@<TRIPOS>MOLECULE
22O
   44    45     1     0     0
SMALL
bcc


@<TRIPOS>ATOM
      1 C1          0.2580   -0.2260    0.0490 c3        1 22O      0.341300
      2 N1         -0.0180   -0.3820   -1.4460 n4        1 22O     -0.601800
      3 S1         -2.5670   -0.9810   -0.8270 s         1 22O      0.304600
      4 BR1         2.5310    3.0250   -6.9450 br        1 22O     -0.002100
      5 C2          1.7810   -0.3600    0.3210 c3        1 22O      0.111100
      6 N2         -1.5600   -1.1600   -3.2560 n4        1 22O     -0.309900
      7 O2          2.1440   -1.6510   -0.1140 oh        1 22O     -0.635800
      8 C3          1.9740   -0.1480    1.8330 c3        1 22O      0.119100
      9 N3         -0.9820   -0.2120   -4.1100 n2        1 22O     -0.655400
     10 O3          3.3690   -0.2050    2.0340 oh        1 22O     -0.589800
     11 C4          1.4050    1.2280    2.2420 c3        1 22O      0.079100
     12 O4          1.4590    1.2390    3.6540 oh        1 22O     -0.575800
     13 C5         -0.0580    1.3630    1.7860 c3        1 22O      0.116100
     14 O5         -0.1680    1.0840    0.3670 os        1 22O     -0.428600
     15 C6         -0.5870    2.7920    1.9360 c3        1 22O      0.136400
     16 O6         -1.9660    2.7450    1.6270 oh        1 22O     -0.609800
     17 C7         -1.3960   -0.8310   -1.7590 c         1 22O      0.006400
     18 C8         -1.6820    0.3280   -5.0910 ce        1 22O      0.611800
     19 C9         -1.1190    1.2640   -6.0320 ca        1 22O     -0.244900
     20 C10        -1.9810    1.8100   -7.0120 ca        1 22O     -0.039000
     21 C11        -1.4850    2.7070   -7.9470 ca        1 22O     -0.132000
     22 C12        -0.1360    3.0750   -7.9310 ca        1 22O      0.005000
     23 C13         0.7290    2.5380   -6.9660 ca        1 22O     -0.057900
     24 C14         0.2410    1.6350   -6.0220 ca        1 22O     -0.021000
     25 H1         -0.3320   -1.0130    0.6070 hx        1 22O      0.120700
     26 HN1         0.1480    0.5410   -1.8910 hn        1 22O      0.497800
     27 H2          2.3700    0.4150   -0.2470 h1        1 22O      0.096700
     28 HN2        -2.5790   -1.3270   -3.3930 hn        1 22O      0.465300
     29 HO2         2.9770   -1.8910    0.3290 ho        1 22O      0.487000
     30 H3          1.4630   -0.9640    2.4190 h1        1 22O      0.083700
     31 HO3         3.5260   -0.0810    2.9840 ho        1 22O      0.460000
     32 H4          2.0330    2.0470    1.7960 h1        1 22O      0.084700
     33 HO4         1.5450    2.1580    3.9440 ho        1 22O      0.438000
     34 H5         -0.7170    0.6440    2.3480 h1        1 22O      0.095700
     35 H6         -0.0650    3.4850    1.2230 h1        1 22O      0.064200
     36 H6A        -0.4080    3.1180    2.9960 h1        1 22O      0.064200
     37 HO6        -2.3810    3.5100    2.0480 ho        1 22O      0.438000
     38 H8         -2.7630    0.0870   -5.2720 h4        1 22O      0.032800
     39 H10        -3.0460    1.5260   -7.0380 ha        1 22O      0.155000
     40 H11        -2.1570    3.1340   -8.7130 ha        1 22O      0.183000
     41 H12         0.2440    3.7890   -8.6860 ha        1 22O      0.190000
     42 H14         0.9280    1.2060   -5.2750 ha        1 22O      0.152000
     43 H121        0.6850   -1.0540   -1.8080 hn        1 22O      0.497800
     44 H22        -1.0610   -2.0530   -3.4420 hn        1 22O      0.465300
@<TRIPOS>BOND
     1    1    2 1   
     2    1    5 1   
     3    1   14 1   
     4    1   25 1   
     5    2   17 1   
     6    2   26 1   
     7    2   43 1   
     8    3   17 2   
     9    4   23 1   
    10    5    7 1   
    11    5    8 1   
    12    5   27 1   
    13    6    9 1   
    14    6   17 1   
    15    6   28 1   
    16    6   44 1   
    17    7   29 1   
    18    8   10 1   
    19    8   11 1   
    20    8   30 1   
    21    9   18 2   
    22   10   31 1   
    23   11   12 1   
    24   11   13 1   
    25   11   32 1   
    26   12   33 1   
    27   13   14 1   
    28   13   15 1   
    29   13   34 1   
    30   15   16 1   
    31   15   35 1   
    32   15   36 1   
    33   16   37 1   
    34   18   19 1   
    35   18   38 1   
    36   19   20 ar  
    37   19   24 ar  
    38   20   21 ar  
    39   20   39 1   
    40   21   22 ar  
    41   21   40 1   
    42   22   23 ar  
    43   22   41 1   
    44   23   24 ar  
    45   24   42 1   
@<TRIPOS>SUBSTRUCTURE
     1 22O         1 TEMP              0 ****  ****    0 ROOT
