@<TRIPOS>MOLECULE
22O
   44    46     1     0     0
SMALL
bcc


@<TRIPOS>ATOM
      1 C1          0.0000    0.0000    0.0000 c3        1 22O     -0.135000
      2 N1         -0.4880    0.0580   -1.3800 ny        1 22O      0.841000
      3 S1         -2.4750   -1.4970   -0.5500 s         1 22O      0.453000
      4 Br1         2.3840    3.3490   -6.3130 br        1 22O      0.153000
      5 C2          1.5310    0.0000    0.0000 c3        1 22O      0.022000
      6 N2         -2.0640   -0.5440   -2.9930 ny        1 22O      0.880000
      7 O2          2.0090   -1.1670   -0.6710 oh        1 22O     -0.320000
      8 C3          2.0330    0.0000    1.4470 c3        1 22O      0.048000
      9 N3         -1.3600    0.1930   -3.9550 n2        1 22O     -0.504000
     10 O3          3.4600    0.0720    1.4580 oh        1 22O     -0.293000
     11 C4          1.4510    1.2130    2.1790 c3        1 22O      0.030000
     12 O4          1.8560    1.1840    3.5490 oh        1 22O     -0.282000
     13 C5         -0.0760    1.1660    2.0950 c3        1 22O      0.068000
     14 O5         -0.4760    1.1370    0.7230 os        1 22O     -0.251000
     15 C6         -0.6620    2.4070    2.7710 c3        1 22O      0.080000
     16 O6         -2.0880    2.3070    2.7960 oh        1 22O     -0.331000
     17 C7         -1.6150   -0.5970   -1.7240 c2        1 22O     -0.650000
     18 C8         -1.7930    0.2460   -5.1780 c2        1 22O     -0.166000
     19 C9         -1.0520    1.0210   -6.1900 c3        1 22O     -0.175000
     20 C10        -1.5140    1.0790   -7.5070 c2        1 22O      0.104000
     21 C11        -0.8180    1.8070   -8.4490 c2        1 22O     -0.129000
     22 C12         0.3380    2.4790   -8.0920 c2        1 22O      0.132000
     23 C13         0.8030    2.4260   -6.7890 c2        1 22O     -0.200000
     24 C14         0.1120    1.7060   -5.8350 c2        1 22O      0.010000
     25 H1         -0.3590   -0.9040    0.4770 hx        1 22O      0.147000
     26 HN1         0.2440   -0.2960   -1.9640 hn        1 22O      0.059500
     27 H2          1.8910    0.8880   -0.5060 h1        1 22O      0.076000
     28 HN2        -2.1110   -1.4860   -3.3260 hn        1 22O      0.047500
     29 HO2         2.7620   -0.9430   -1.1930 ho        1 22O      0.239000
     30 H3          1.7080   -0.9080    1.9410 h1        1 22O      0.080000
     31 HO3         3.8090   -0.6850    1.8990 ho        1 22O      0.228000
     32 H4          1.8100    2.1220    1.7110 h1        1 22O      0.069000
     33 HO4         2.5560    1.8010    3.6840 ho        1 22O      0.223000
     34 H5         -0.4350    0.2740    2.5930 h1        1 22O      0.089000
     35 H6         -0.2870    2.4760    3.7850 h1        1 22O      0.059500
     36 H6A        -0.3720    3.2910    2.2170 h1        1 22O      0.059500
     37 HO6        -2.4490    3.0660    3.2230 ho        1 22O      0.221000
     38 H8         -1.8320    1.3240   -5.2720 DU        1 22O      0.338000
     39 H10        -2.3850    0.5050   -7.8010 ha        1 22O      0.146000
     40 H11        -1.1760    1.8520   -9.4700 ha        1 22O      0.158000
     41 H12         0.8820    3.0500   -8.8360 ha        1 22O      0.147000
     42 H14         0.4340    1.7290   -4.8010 ha        1 22O      0.122000
     43 H121       -0.6360    1.0240   -1.5970 hn        1 22O      0.059500
     44 H22        -2.9900   -0.1650   -2.9570 hn        1 22O      0.047500
@<TRIPOS>BOND
     1    1    2 1   
     2    1    5 1   
     3    1   14 1   
     4    1   25 1   
     5    2   17 1   
     6    2   26 1   
     7    2   43 1   
     8    3   17 1   
     9    4   23 1   
    10    5    7 1   
    11    5    8 1   
    12    5   27 1   
    13    6    9 1   
    14    6   17 1   
    15    6   28 1   
    16    6   44 1   
    17    7   29 1   
    18    8   10 1   
    19    8   11 1   
    20    8   30 1   
    21    9   18 1   
    22   10   31 1   
    23   11   12 1   
    24   11   13 1   
    25   11   32 1   
    26   12   33 1   
    27   13   14 1   
    28   13   15 1   
    29   13   34 1   
    30   15   16 1   
    31   15   35 1   
    32   15   36 1   
    33   16   37 1   
    34   18   19 1   
    35   18   38 1   
    36   19   20 1   
    37   19   24 1   
    38   19   38 1   
    39   20   21 1   
    40   20   39 1   
    41   21   22 1   
    42   21   40 1   
    43   22   23 1   
    44   22   41 1   
    45   23   24 1   
    46   24   42 1   
@<TRIPOS>SUBSTRUCTURE
     1 22O         1 TEMP              0 ****  ****    0 ROOT
