@<TRIPOS>MOLECULE
22P
   30    30     1     0     0
SMALL
bcc


@<TRIPOS>ATOM
      1 O5          1.0010    0.5190    0.7750 oh        1 22P     -0.640800
      2 O6          1.2920   -1.2890   -1.3250 o         1 22P     -0.790800
      3 N9         -0.5320   -1.4970    2.1820 n4        1 22P     -0.859600
      4 C20        -0.1450   -0.0770    0.1730 c3        1 22P     -0.008200
      5 C21        -1.0950   -0.4040    1.3450 c3        1 22P      0.127800
      6 C22        -0.8650    0.8950   -0.7550 c3        1 22P     -0.072400
      7 C23        -0.6380    2.3440   -2.7580 c2        1 22P     -0.109500
      8 C24         0.0640    2.7900   -4.0170 c3        1 22P     -0.027000
      9 C25        -0.2130    4.2540   -4.2510 c2        1 22P     -0.159200
     10 C26        -1.2980    4.8950   -3.7600 ce        1 22P     -0.146000
     11 C27        -2.3380    4.0600   -3.1350 ce        1 22P     -0.155100
     12 C28        -1.8160    2.9500   -2.6250 c1        1 22P     -0.071800
     13 C29         0.3000   -1.3840   -0.5730 c         1 22P      0.899600
     14 C52         0.0640    1.4640   -1.8080 c3        1 22P     -0.040200
     15 HO5         1.7150    0.4450    0.1220 ho        1 22P      0.447000
     16 HN9         0.4070   -1.2310    2.4850 hn        1 22P      0.460467
     17 HN9A       -0.4560   -2.3470    1.5540 hn        1 22P      0.460467
     18 H21        -1.2420    0.5060    1.9890 hx        1 22P      0.093200
     19 H21A       -2.0750   -0.7570    0.9210 hx        1 22P      0.093200
     20 H22        -1.3020    1.7360   -0.1550 hc        1 22P      0.053700
     21 H22A       -1.7090    0.3500   -1.2550 hc        1 22P      0.053700
     22 H24         1.1650    2.6300   -3.8710 hc        1 22P      0.076200
     23 H25        -0.2480    2.2100   -4.9250 hc        1 22P      0.076200
     24 H26         0.5260    4.7710   -4.8780 ha        1 22P      0.131000
     25 H27        -1.4830    5.9650   -3.9040 ha        1 22P      0.135000
     26 H28        -3.3940    4.3200   -3.2340 ha        1 22P      0.150000
     27 OXT        -0.3320   -2.4540   -0.2990 o         1 22P     -0.790800
     28 H52         0.5610    0.6170   -2.3620 hc        1 22P      0.077200
     29 H52A        0.8820    2.0520   -1.3050 hc        1 22P      0.077200
     30 H93        -1.1220   -1.6880    2.9850 hn        1 22P      0.460467
@<TRIPOS>BOND
     1    1    4 1   
     2    1   15 1   
     3    2   13 1   
     4    3    5 1   
     5    3   16 1   
     6    3   17 1   
     7    3   30 1   
     8    4    5 1   
     9    4    6 1   
    10    4   13 1   
    11    5   18 1   
    12    5   19 1   
    13    6   14 1   
    14    6   20 1   
    15    6   21 1   
    16    7    8 1   
    17    7   12 2   
    18    7   14 1   
    19    8    9 1   
    20    8   22 1   
    21    8   23 1   
    22    9   10 2   
    23    9   24 1   
    24   10   11 1   
    25   10   25 1   
    26   11   12 2   
    27   11   26 1   
    28   13   27 1   
    29   14   28 1   
    30   14   29 1   
@<TRIPOS>SUBSTRUCTURE
     1 22P         1 TEMP              0 ****  ****    0 ROOT
