@<TRIPOS>MOLECULE
22P
   29    26     1     0     0
SMALL
bcc


@<TRIPOS>ATOM
      1 O5          1.6220   -1.7620    0.8830 oh        1 22P     -0.638800
      2 O6         -0.0590   -3.7950    0.3960 o         1 22P     -0.830800
      3 N9          0.6150   -2.5120    3.3800 n3        1 22P     -0.909800
      4 C20         0.2870   -1.5210    1.2570 c3        1 22P     -0.019200
      5 C21         0.2180   -1.3140    2.7110 c3        1 22P      0.176800
      6 C22        -0.2190   -0.2890    0.5470 c3        1 22P     -0.066400
      7 C23        -0.0380    1.1030   -1.5110 c1        1 22P     -0.010100
      8 C24         0.8680    2.1650   -1.4290 c1        1 22P     -0.082500
      9 C25         0.5950    3.3500   -2.0510 c1        1 22P     -0.082000
     10 C26        -0.5880    3.5040   -2.7690 c1        1 22P     -0.082000
     11 C27        -1.4880    2.4520   -2.8510 c1        1 22P     -0.082000
     12 C28        -1.2090    1.2500   -2.2190 c1        1 22P     -0.082000
     13 C29        -0.5980   -2.7430    0.8630 c         1 22P      0.892600
     14 C52         0.3150   -0.2620   -0.8580 c3        1 22P     -0.093300
     15 HO5         1.9150   -2.5000    1.2870 ho        1 22P      0.423000
     16 HN9        -0.0650   -2.7950    3.9350 hn        1 22P      0.349300
     17 HN9A        1.3390   -2.3540    3.8590 hn        1 22P      0.349300
     18 H21        -0.6630   -1.0960    2.9550 h1        1 22P      0.036200
     19 H21A        0.8340   -0.5660    2.9740 h1        1 22P      0.036200
     20 H22         0.0890    0.5230    1.0330 hc        1 22P      0.033700
     21 H22A       -1.1970   -0.3040    0.5230 hc        1 22P      0.033700
     22 H24         1.7320    2.0510   -0.9180 ha        1 22P      0.069500
     23 H25         1.2380    4.0980   -1.9900 ha        1 22P      0.066750
     24 H26        -0.7750    4.3190   -3.1980 ha        1 22P      0.066750
     25 H27        -2.3170    2.5560   -3.3510 ha        1 22P      0.066750
     26 H28        -1.8240    0.5300   -2.2740 ha        1 22P      0.066750
     27 OXT        -1.8550   -2.7020    1.0460 o         1 22P     -0.830800
     28 H52         1.3260   -0.3770   -0.8400 hc        1 22P      0.071700
     29 H52A       -0.0960   -1.0080   -1.3900 hc        1 22P      0.071700
@<TRIPOS>BOND
     1    1    4 1   
     2    1   15 1   
     3    2   13 1   
     4    3    5 1   
     5    3   16 1   
     6    3   17 1   
     7    4    5 1   
     8    4    6 1   
     9    4   13 1   
    10    5   18 1   
    11    5   19 1   
    12    6   14 1   
    13    6   20 1   
    14    6   21 1   
    15    7    8 3   
    16    7   14 1   
    17    8   22 1   
    18    9   10 3   
    19    9   23 1   
    20   10   24 1   
    21   11   12 3   
    22   11   25 1   
    23   12   26 1   
    24   13   27 1   
    25   14   28 1   
    26   14   29 1   
@<TRIPOS>SUBSTRUCTURE
     1 22P         1 TEMP              0 ****  ****    0 ROOT
