@<TRIPOS>MOLECULE
22P
   30    28     1     0     0
SMALL
bcc


@<TRIPOS>ATOM
      1 O5         -0.3010    0.1200    1.1250 oh        1 22P     -0.536100
      2 O6          1.6410   -0.5190   -1.2090 o         1 22P     -0.462000
      3 N9          1.3650   -2.2260    1.1440 n9        1 22P     -1.033400
      4 C20        -1.4290    0.9060    0.9590 c2        1 22P      0.063900
      5 C21        -2.4610    0.6970    1.7900 c2        1 22P     -0.283000
      6 C22        -1.3960    1.9460   -0.1080 c3        1 22P     -0.069200
      7 C23        -1.3840    2.3470   -2.5600 c2        1 22P     -0.130500
      8 C24        -1.0960    1.9570   -3.9900 c3        1 22P     -0.023000
      9 C25        -0.2280    3.0120   -4.6290 c2        1 22P     -0.160200
     10 C26        -0.1770    4.2950   -4.2050 ce        1 22P     -0.142000
     11 C27        -1.1700    4.7000   -3.1930 ce        1 22P     -0.151100
     12 C28        -1.5310    3.6640   -2.4450 c1        1 22P     -0.054800
     13 C29         2.4470   -1.3990   -1.1810 c1        1 22P      0.917000
     14 C52        -1.3430    1.3300   -1.4950 c3        1 22P     -0.032200
     15 HO5         0.3170    0.3260    0.4070 ho        1 22P      0.431000
     16 HN9         0.3980   -2.1740    0.8920 hn        1 22P      0.346800
     17 HN9A        1.5550   -1.4930    1.7960 hn        1 22P      0.346800
     18 H21        -2.4330   -0.0690    2.5720 ha        1 22P      0.125500
     19 H21A       -3.3760    1.2950    1.7220 ha        1 22P      0.125500
     20 H22        -0.4970    2.6030    0.0440 hc        1 22P      0.069200
     21 H22A       -2.3040    2.6020   -0.0260 hc        1 22P      0.069200
     22 H24        -0.5510    0.9760   -3.9790 hc        1 22P      0.072700
     23 H25        -2.0240    1.8280   -4.6080 hc        1 22P      0.072700
     24 H26         0.3570    2.6690   -5.4940 ha        1 22P      0.133000
     25 H27         0.4760    5.0540   -4.6490 ha        1 22P      0.139000
     26 H28        -1.5990    5.7040   -3.2040 ha        1 22P      0.155000
     27 OXT         3.2710   -2.2540   -1.2100 o         1 22P     -0.462000
     28 H52        -2.2140    0.6300   -1.6290 hc        1 22P      0.062700
     29 H52A       -0.4060    0.7140   -1.6020 hc        1 22P      0.062700
     30 H93         1.5450   -3.1060    1.5790 hn        1 22P      0.346800
@<TRIPOS>BOND
     1    1    4 1   
     2    1   15 1   
     3    2   13 2   
     4    3   16 1   
     5    3   17 1   
     6    3   30 1   
     7    4    5 2   
     8    4    6 1   
     9    5   18 1   
    10    5   19 1   
    11    6   14 1   
    12    6   20 1   
    13    6   21 1   
    14    7    8 1   
    15    7   12 2   
    16    7   14 1   
    17    8    9 1   
    18    8   22 1   
    19    8   23 1   
    20    9   10 2   
    21    9   24 1   
    22   10   11 1   
    23   10   25 1   
    24   11   12 2   
    25   11   26 1   
    26   13   27 2   
    27   14   28 1   
    28   14   29 1   
@<TRIPOS>SUBSTRUCTURE
     1 22P         1 TEMP              0 ****  ****    0 ROOT
