@<TRIPOS>MOLECULE
22P
   30    28     1     0     0
SMALL
bcc


@<TRIPOS>ATOM
      1 O5          0.5740   -0.4800    0.4060 oh        1 22P     -0.518100
      2 O6         -0.1040   -2.1990   -2.1270 o         1 22P     -0.445500
      3 N9         -0.7210    0.3220    2.8010 n3        1 22P     -0.896800
      4 C20         0.0780    0.8030    0.4630 c2        1 22P      0.028900
      5 C21        -0.1140    1.2560    1.8930 c3        1 22P      0.203000
      6 C22        -0.1770    1.5820   -0.6030 c2        1 22P     -0.275200
      7 C23        -0.4560    2.1340   -2.9950 c2        1 22P     -0.122500
      8 C24         0.0700    3.5470   -3.0480 c3        1 22P     -0.025000
      9 C25        -1.0750    4.5000   -3.2820 c2        1 22P     -0.160200
     10 C26        -2.2380    4.1390   -3.8700 ce        1 22P     -0.142000
     11 C27        -2.2870    2.7970   -4.4770 ce        1 22P     -0.151100
     12 C28        -1.4590    1.9670   -3.8530 c1        1 22P     -0.052800
     13 C29        -0.7500   -3.0900   -2.5840 c1        1 22P      0.891000
     14 C52         0.0540    1.1630   -2.0060 c3        1 22P      0.012000
     15 HO5         0.6510   -0.7490   -0.5220 ho        1 22P      0.429000
     16 HN9         0.6830   -2.4320    1.7940 ha        1 22P      0.002500
     17 HN9A       -0.1800   -0.5220    2.8520 hn        1 22P      0.353800
     18 H21         1.2790   -2.1470    1.9440 ha        1 22P      0.002500
     19 H21A        0.9080    1.5180    2.2980 h1        1 22P      0.065200
     20 H22        -0.7370    2.1960    1.8810 h1        1 22P      0.065200
     21 H22A       -0.5880    2.5910   -0.4490 ha        1 22P      0.141000
     22 H24         0.5520    3.7700   -2.0580 hc        1 22P      0.074700
     23 H25         0.8420    3.7020   -3.8480 hc        1 22P      0.074700
     24 H26        -0.8920    5.5340   -2.9580 ha        1 22P      0.133000
     25 H27        -3.0830    4.8230   -4.0110 ha        1 22P      0.139000
     26 H28        -2.8510    2.6200   -5.3950 ha        1 22P      0.155000
     27 OXT        -1.3910   -3.9790   -3.0400 o         1 22P     -0.445500
     28 H52        -0.4260    0.1600   -2.1890 hc        1 22P      0.056200
     29 H52A        1.1620    1.0310   -2.1770 hc        1 22P      0.056200
     30 H93        -1.6480    0.0880    2.5040 hn        1 22P      0.353800
@<TRIPOS>BOND
     1    1    4 1   
     2    1   15 1   
     3    2   13 2   
     4    3    5 1   
     5    3   17 1   
     6    3   30 1   
     7    4    5 1   
     8    4    6 2   
     9    5   19 1   
    10    5   20 1   
    11    6   14 1   
    12    6   21 1   
    13    7    8 1   
    14    7   12 2   
    15    7   14 1   
    16    8    9 1   
    17    8   22 1   
    18    8   23 1   
    19    9   10 2   
    20    9   24 1   
    21   10   11 1   
    22   10   25 1   
    23   11   12 2   
    24   11   26 1   
    25   13   27 2   
    26   14   28 1   
    27   14   29 1   
    28   16   18 1   
@<TRIPOS>SUBSTRUCTURE
     1 22P         1 TEMP              0 ****  ****    0 ROOT
