@<TRIPOS>MOLECULE
22P
   29    29     1     0     0
SMALL
bcc


@<TRIPOS>ATOM
      1 O5         -2.1640    1.0910    1.0520 oh        1 22P     -0.580800
      2 O6         -3.0990   -1.5560    0.3400 o         1 22P     -0.829300
      3 N9         -4.1280    0.6830   -1.0620 n3        1 22P     -0.902800
      4 C20        -1.7790    0.4250   -0.1450 c3        1 22P     -0.025200
      5 C21        -2.7150    0.8570   -1.3000 c3        1 22P      0.140800
      6 C22        -0.3410    0.7810   -0.5240 c3        1 22P     -0.078400
      7 C23         1.9730    0.3650    0.3070 ca        1 22P     -0.054300
      8 C24         3.0300    1.2720    0.4120 ca        1 22P     -0.131500
      9 C25         4.3260    0.8860    0.0660 ca        1 22P     -0.144500
     10 C26         4.5730   -0.4080   -0.3850 ca        1 22P     -0.155000
     11 C27         3.5200   -1.3200   -0.4900 ca        1 22P     -0.144500
     12 C28         2.2260   -0.9400   -0.1470 ca        1 22P     -0.131500
     13 C29        -1.9400   -1.1160    0.1180 c         1 22P      0.939600
     14 C52         0.5820    0.7360    0.6820 c3        1 22P     -0.036100
     15 HO5        -2.0350    2.0330    0.8880 ho        1 22P      0.361000
     16 HN9        -4.3300   -0.3040   -1.0120 hn        1 22P      0.354300
     17 HN9A       -4.3480    1.0620   -0.1570 hn        1 22P      0.354300
     18 H21        -2.4250    0.2710   -2.2140 h1        1 22P      0.025200
     19 H21A       -2.5380    1.9500   -1.5140 h1        1 22P      0.025200
     20 H22        -0.0020    0.0350   -1.2900 hc        1 22P      0.035200
     21 H22A       -0.3030    1.8020   -0.9870 hc        1 22P      0.035200
     22 H24         2.8410    2.2950    0.7680 ha        1 22P      0.158500
     23 H25         5.1520    1.6060    0.1510 ha        1 22P      0.114500
     24 H26         5.5930   -0.7120   -0.6570 ha        1 22P      0.109000
     25 H27         3.7140   -2.3420   -0.8440 ha        1 22P      0.114500
     26 H28         1.3720   -1.6450   -0.2180 ha        1 22P      0.158500
     27 OXT        -0.9030   -1.8320    0.0520 o         1 22P     -0.829300
     28 H52         0.5640    1.7240    1.2110 hc        1 22P      0.059700
     29 H52A        0.1810   -0.0430    1.3930 hc        1 22P      0.059700
@<TRIPOS>BOND
     1    1    4 1   
     2    1   15 1   
     3    2   13 1   
     4    3    5 1   
     5    3   16 1   
     6    3   17 1   
     7    4    5 1   
     8    4    6 1   
     9    4   13 1   
    10    5   18 1   
    11    5   19 1   
    12    6   14 1   
    13    6   20 1   
    14    6   21 1   
    15    7    8 ar  
    16    7   12 ar  
    17    7   14 1   
    18    8    9 ar  
    19    8   22 1   
    20    9   10 ar  
    21    9   23 1   
    22   10   11 ar  
    23   10   24 1   
    24   11   12 ar  
    25   11   25 1   
    26   12   26 1   
    27   13   27 1   
    28   14   28 1   
    29   14   29 1   
@<TRIPOS>SUBSTRUCTURE
     1 22P         1 TEMP              0 ****  ****    0 ROOT
