@<TRIPOS>MOLECULE
22Q
   26    25     1     0     0
SMALL
bcc


@<TRIPOS>ATOM
      1 C          -0.2600    0.1160   -0.3390 c         1 22Q      0.198200
      2 N          -0.3000   -0.4520    2.0380 n2        1 22Q     -0.543900
      3 S           0.7130   -0.3890   -1.3780 s         1 22Q     -0.138400
      4 C1         -1.0220   -0.0590    3.0300 ce        1 22Q      0.414300
      5 N1         -3.1330   -0.1380    1.7350 ns        1 22Q     -0.595500
      6 C2         -2.4190   -0.5980    0.6270 c         1 22Q      0.676500
      7 O2         -3.0210   -0.8930   -0.4140 o         1 22Q     -0.581500
      8 C4         -0.4610    0.2150    4.3880 c3        1 22Q     -0.143400
      9 C5         -2.5220    0.1630    2.9540 c         1 22Q      0.568200
     10 C6          3.1710    0.4370    5.0860 c2        1 22Q     -0.175200
     11 C7          2.7890    1.8180    5.4440 c3        1 22Q     -0.067900
     12 C8          3.6780   -0.4450    5.9440 c2        1 22Q     -0.222000
     13 CA         -0.8890   -0.7350    0.7510 c3        1 22Q     -0.020500
     14 H          -0.6570   -1.8290    0.5410 h1        1 22Q      0.134700
     15 HS         -0.6170    1.1640   -0.2710 h4        1 22Q      0.037200
     16 HN1        -4.1250   -0.0350    1.6550 hn        1 22Q      0.342500
     17 H4         -0.9490   -0.4710    5.1250 hc        1 22Q      0.075033
     18 H4A        -0.7050    1.2690    4.6730 hc        1 22Q      0.075033
     19 H6          0.6480    0.0710    4.4290 hc        1 22Q      0.075033
     20 H7          3.0140    0.1710    4.0260 ha        1 22Q      0.121000
     21 H7A         3.3770    2.5500    4.8350 hc        1 22Q      0.040367
     22 H7B         1.7020    1.9820    5.2300 hc        1 22Q      0.040367
     23 H8          2.9710    2.0340    6.5250 hc        1 22Q      0.040367
     24 H8A         3.9550   -1.4630    5.6420 ha        1 22Q      0.111500
     25 H8B         3.8510   -0.2130    7.0030 ha        1 22Q      0.111500
     26 O3         -3.1950    0.5840    3.9040 o         1 22Q     -0.573500
@<TRIPOS>BOND
     1    1    3 2   
     2    1   13 1   
     3    1   15 1   
     4    2    4 2   
     5    2   13 1   
     6    4    8 1   
     7    4    9 1   
     8    5    6 1   
     9    5    9 1   
    10    5   16 1   
    11    6    7 2   
    12    6   13 1   
    13    8   17 1   
    14    8   18 1   
    15    8   19 1   
    16    9   26 2   
    17   10   11 1   
    18   10   12 2   
    19   10   20 1   
    20   11   21 1   
    21   11   22 1   
    22   11   23 1   
    23   12   24 1   
    24   12   25 1   
    25   13   14 1   
@<TRIPOS>SUBSTRUCTURE
     1 22Q         1 TEMP              0 ****  ****    0 ROOT
