@<TRIPOS>MOLECULE
22Q
   26    25     1     0     0
SMALL
bcc


@<TRIPOS>ATOM
      1 C          -0.3540    1.0580    0.0150 c         1 22Q      0.198200
      2 N          -0.1850    0.0150    2.2190 n2        1 22Q     -0.546900
      3 S           0.7080    1.0820   -1.0590 s         1 22Q     -0.139400
      4 C1         -0.9710   -0.0280    3.2400 ce        1 22Q      0.416300
      5 N1         -2.9960   -0.4250    1.8680 n         1 22Q     -0.595500
      6 C2         -2.2020   -0.4220    0.7210 c         1 22Q      0.676500
      7 O2         -2.7140   -0.6490   -0.3840 o         1 22Q     -0.582500
      8 C4         -0.4870    0.1020    4.6480 c3        1 22Q     -0.145400
      9 C5         -2.4730   -0.2280    3.1470 c         1 22Q      0.567200
     10 C6          3.2630   -0.0430    5.2480 c2        1 22Q     -0.163200
     11 C7          3.1780    0.8920    4.1090 c3        1 22Q     -0.075900
     12 C8          2.7340    0.1890    6.4480 c2        1 22Q     -0.235000
     13 CA         -0.6940   -0.1440    0.8780 c3        1 22Q     -0.020500
     14 H          -0.1640   -1.0600    0.4560 h1        1 22Q      0.134700
     15 HS         -0.9960    1.9230    0.2800 h4        1 22Q      0.037200
     16 HN1        -3.9770   -0.5910    1.7700 hn        1 22Q      0.342500
     17 H4         -0.7680   -0.8230    5.2120 hc        1 22Q      0.076033
     18 H4A        -1.0010    0.9740    5.1250 hc        1 22Q      0.076033
     19 H6          0.6230    0.2470    4.7100 hc        1 22Q      0.076033
     20 H7          3.8080   -0.9790    5.0400 ha        1 22Q      0.119000
     21 H7A         4.2040    1.1490    3.7450 hc        1 22Q      0.045367
     22 H7B         2.6170    0.4180    3.2640 hc        1 22Q      0.045367
     23 H8          2.6560    1.8410    4.3870 hc        1 22Q      0.045367
     24 H8A         2.8170   -0.5290    7.2740 ha        1 22Q      0.110500
     25 H8B         2.1890    1.1110    6.6890 ha        1 22Q      0.110500
     26 O3         -3.2200   -0.2230    4.1350 o         1 22Q     -0.573500
@<TRIPOS>BOND
     1    1    3 2   
     2    1   13 1   
     3    1   15 1   
     4    2    4 2   
     5    2   13 1   
     6    4    8 1   
     7    4    9 1   
     8    5    6 1   
     9    5    9 1   
    10    5   16 1   
    11    6    7 2   
    12    6   13 1   
    13    8   17 1   
    14    8   18 1   
    15    8   19 1   
    16    9   26 2   
    17   10   11 1   
    18   10   12 2   
    19   10   20 1   
    20   11   21 1   
    21   11   22 1   
    22   11   23 1   
    23   12   24 1   
    24   12   25 1   
    25   13   14 1   
@<TRIPOS>SUBSTRUCTURE
     1 22Q         1 TEMP              0 ****  ****    0 ROOT
