@<TRIPOS>MOLECULE
22S
   42    40     1     0     0
SMALL
bcc


@<TRIPOS>ATOM
      1 C1          1.2220   -1.8000   -0.1830 c3        1 22S      0.101000
      2 N1          0.8240   -0.4360    0.1220 n         1 22S     -0.331000
      3 S1         -1.6960   -1.0200    0.7560 s         1 22S     -0.287000
      4 CL1        -1.0000    5.1900   -2.0990 cl        1 22S     -0.005000
      5 C2          2.6350   -1.8780   -0.1380 c3        1 22S      0.018000
      6 N2         -0.9260    1.0950   -0.6870 n         1 22S     -0.287000
      7 O2          3.0540   -3.2170   -0.6960 oh        1 22S     -0.311000
      8 C3          3.2000   -1.7440    1.1890 c3        1 22S     -0.042000
      9 N3         -0.2720    1.4150   -1.8580 n2        1 22S     -0.044000
     10 O3          0.4150   -1.5420    4.1620 oh        1 22S     -0.324000
     11 C4          2.5890   -2.6670    2.1960 c3        1 22S     -0.035000
     12 O4          2.9290   -3.9910    1.8520 oh        1 22S     -0.319000
     13 C5          1.0080   -2.5640    2.3020 c3        1 22S     -0.007000
     14 O5          0.5440   -2.7130    0.7620 os        1 22S     -0.256000
     15 C6          0.6510   -1.4160    2.7880 c3        1 22S     -0.054000
     16 O6          3.0030   -0.3670    1.6380 oh        1 22S     -0.325000
     17 C7         -0.5400   -0.0640    0.0500 c2        1 22S      0.193000
     18 C8         -0.8520    2.2180   -2.7570 c1        1 22S     -0.113000
     19 C9         -2.2540    2.7910   -2.4890 c1        1 22S     -0.084000
     20 C10        -2.4100    4.1480   -2.2060 c2        1 22S     -0.042000
     21 C11        -3.6990    4.6900   -2.0470 c1        1 22S     -0.125000
     22 C12        -4.8090    3.8780   -2.1720 c1        1 22S     -0.117000
     23 C13        -4.6510    2.5230   -2.4560 c1        1 22S     -0.117000
     24 C14        -3.3620    1.9820   -2.6140 c1        1 22S     -0.114000
     25 H1          0.9240   -2.0190   -1.1030 h2        1 22S      0.198000
     26 HN1         1.4550    0.1830    0.3590 hn        1 22S      0.260000
     27 H2          3.0110   -1.1610   -0.7150 h1        1 22S      0.147000
     28 HN2        -1.6080    1.6040   -0.3990 hn        1 22S      0.258000
     29 HO2         3.4880   -3.0950   -1.4630 ho        1 22S      0.229000
     30 H3          4.1520   -1.9230    1.1410 h1        1 22S      0.095000
     31 HO3        -0.4580   -1.4510    4.3230 ho        1 22S      0.203000
     32 H4          2.9800   -2.4600    3.0910 h1        1 22S      0.100000
     33 HO4         3.4260   -4.3440    2.4910 ho        1 22S      0.208000
     34 H5          0.6430   -3.3100    2.8520 h1        1 22S      0.138000
     35 H6          1.3720   -0.7580    2.6380 h1        1 22S      0.105000
     36 H6A        -0.1530   -1.1180    2.3500 h1        1 22S      0.105000
     37 HO6         3.7920   -0.0100    1.8520 ho        1 22S      0.215000
     38 H8         -0.3910    2.4380   -3.5730 ha        1 22S      0.179000
     39 H11        -3.8100    5.6530   -1.8460 ha        1 22S      0.152000
     40 H12        -5.7460    4.2730   -2.0570 ha        1 22S      0.143000
     41 H13        -5.4300    1.9510   -2.5440 ha        1 22S      0.143000
     42 H14        -3.2520    1.0340   -2.8110 ha        1 22S      0.147000
@<TRIPOS>BOND
     1    1    2 1   
     2    1    5 1   
     3    1   14 1   
     4    1   25 1   
     5    2   17 1   
     6    2   26 1   
     7    3   17 1   
     8    4   20 1   
     9    5    7 1   
    10    5    8 1   
    11    5   27 1   
    12    6    9 1   
    13    6   17 1   
    14    6   28 1   
    15    7   29 1   
    16    8   11 1   
    17    8   16 1   
    18    8   30 1   
    19    9   18 1   
    20   10   15 1   
    21   10   31 1   
    22   11   12 1   
    23   11   13 1   
    24   11   32 1   
    25   12   33 1   
    26   13   14 1   
    27   13   15 1   
    28   13   34 1   
    29   15   35 1   
    30   15   36 1   
    31   16   37 1   
    32   18   38 1   
    33   19   20 1   
    34   19   24 1   
    35   20   21 1   
    36   21   39 1   
    37   22   23 1   
    38   22   40 1   
    39   23   41 1   
    40   24   42 1   
@<TRIPOS>SUBSTRUCTURE
     1 22S         1 TEMP              0 ****  ****    0 ROOT
