@<TRIPOS>MOLECULE
22S
   44    45     1     0     0
SMALL
bcc


@<TRIPOS>ATOM
      1 C1          0.2360   -0.2610    0.0500 c3        1 22S      0.340300
      2 N1         -0.0680   -0.4340   -1.4370 ny        1 22S     -0.601800
      3 S1         -2.6270   -0.9310   -0.7630 s         1 22S      0.300600
      4 Cl1         1.2660    1.4340   -4.6360 cl        1 22S     -0.072400
      5 C2          1.7590   -0.4360    0.3000 c3        1 22S      0.112100
      6 N2         -1.6880   -1.1150   -3.2190 ny        1 22S     -0.311900
      7 O2          2.0760   -1.7450   -0.1180 oh        1 22S     -0.635800
      8 C3          1.9830   -0.2060    1.8050 c3        1 22S      0.119100
      9 N3         -1.0610   -0.1840   -4.0590 n2        1 22S     -0.640400
     10 O3         -1.8790    2.7920    1.6250 oh        1 22S     -0.609800
     11 C4          1.4610    1.1920    2.2010 c3        1 22S      0.079100
     12 O4          1.5400    1.2230    3.6120 oh        1 22S     -0.575800
     13 C5         -0.0050    1.3610    1.7670 c3        1 22S      0.115100
     14 O5         -0.1460    1.0660    0.3540 os        1 22S     -0.427600
     15 C6         -0.4920    2.8060    1.9060 c3        1 22S      0.136400
     16 O6          3.3790   -0.2990    1.9850 oh        1 22S     -0.589800
     17 C7         -1.4720   -0.8180   -1.7220 c         1 22S      0.013400
     18 C8         -1.7050    0.3620   -5.0710 ce        1 22S      0.607800
     19 C9         -1.1070    1.3030   -5.9880 ca        1 22S     -0.236900
     20 C10         0.2000    1.8340   -5.8970 ca        1 22S      0.105400
     21 C11         0.6670    2.7300   -6.8630 ca        1 22S     -0.136000
     22 C12        -0.1520    3.1100   -7.9260 ca        1 22S     -0.013000
     23 C13        -1.4510    2.5980   -8.0290 ca        1 22S     -0.128000
     24 C14        -1.9230    1.7090   -7.0750 ca        1 22S     -0.048000
     25 H1         -0.3670   -1.0210    0.6310 hx        1 22S      0.120700
     26 HN1         0.5920   -1.1490   -1.7940 hn        1 22S      0.499300
     27 H2          2.3610    0.3110   -0.2900 h1        1 22S      0.096700
     28 HN2        -1.2520   -2.0350   -3.4260 hn        1 22S      0.463300
     29 HO2         2.9100   -2.0010    0.3140 ho        1 22S      0.486000
     30 H3          1.4590   -0.9970    2.4130 h1        1 22S      0.083700
     31 HO3        -2.2620    3.5770    2.0400 ho        1 22S      0.438000
     32 H4          2.1040    1.9860    1.7320 h1        1 22S      0.084700
     33 HO4         1.6530    2.1440    3.8860 ho        1 22S      0.438000
     34 H5         -0.6750    0.6690    2.3500 h1        1 22S      0.095700
     35 H6         -0.2830    3.1440    2.9560 h1        1 22S      0.064200
     36 H6A         0.0330    3.4740    1.1710 h1        1 22S      0.064200
     37 HO6         3.5560   -0.1660    2.9300 ho        1 22S      0.460000
     38 H8         -2.7750    0.1180   -5.3070 h4        1 22S      0.032800
     39 H11         1.6910    3.1390   -6.7890 ha        1 22S      0.186000
     40 H12         0.2270    3.8160   -8.6880 ha        1 22S      0.184000
     41 H13        -2.0980    2.9010   -8.8710 ha        1 22S      0.183000
     42 H14        -2.9470    1.3110   -7.1700 ha        1 22S      0.155000
     43 H121        0.1420    0.4690   -1.9070 hn        1 22S      0.499300
     44 H22        -2.7180   -1.2120   -3.3390 hn        1 22S      0.463300
@<TRIPOS>BOND
     1    1    2 1   
     2    1    5 1   
     3    1   14 1   
     4    1   25 1   
     5    2   17 1   
     6    2   26 1   
     7    2   43 1   
     8    3   17 2   
     9    4   20 1   
    10    5    7 1   
    11    5    8 1   
    12    5   27 1   
    13    6    9 1   
    14    6   17 1   
    15    6   28 1   
    16    6   44 1   
    17    7   29 1   
    18    8   11 1   
    19    8   16 1   
    20    8   30 1   
    21    9   18 2   
    22   10   15 1   
    23   10   31 1   
    24   11   12 1   
    25   11   13 1   
    26   11   32 1   
    27   12   33 1   
    28   13   14 1   
    29   13   15 1   
    30   13   34 1   
    31   15   35 1   
    32   15   36 1   
    33   16   37 1   
    34   18   19 1   
    35   18   38 1   
    36   19   20 ar  
    37   19   24 ar  
    38   20   21 ar  
    39   21   22 ar  
    40   21   39 1   
    41   22   23 ar  
    42   22   40 1   
    43   23   24 ar  
    44   23   41 1   
    45   24   42 1   
@<TRIPOS>SUBSTRUCTURE
     1 22S         1 TEMP              0 ****  ****    0 ROOT
