@<TRIPOS>MOLECULE
22S
   44    44     1     0     0
SMALL
bcc


@<TRIPOS>ATOM
      1 C1        -57.9560 -286.5210  693.4440 c3        1 22S      0.050000
      2 N1        -57.0750 -287.4410  694.2390 n4        1 22S     -0.077000
      3 S1        -57.4070 -289.9520  694.8320 s         1 22S      0.084000
      4 CL1       125.0900  612.7840-1490.2770 cl        1 22S      0.193000
      5 C2        -58.1810 -285.1690  694.1730 c3        1 22S      0.001000
      6 N2        -56.7150 -289.0550  692.4390 n         1 22S     -0.326000
      7 O2        -58.8130 -285.4830  695.3950 oh        1 22S     -0.344000
      8 C3        -59.0560 -284.2960  693.2590 c3        1 22S      0.003000
      9 N3        124.4750  615.5000-1492.7440 n1        1 22S      0.121000
     10 O3        -56.9880 -286.7320  689.5100 oh        1 22S     -0.319000
     11 C4        -58.3750 -284.1320  691.8840 c3        1 22S     -0.030000
     12 O4        -59.3250 -283.4700  691.0720 oh        1 22S     -0.310000
     13 C5        -58.0520 -285.5120  691.2900 c3        1 22S     -0.028000
     14 O5        -57.2650 -286.2750  692.2250 os        1 22S     -0.294000
     15 C6        -57.1670 -285.4380  690.0390 c3        1 22S     -0.018000
     16 O6        -59.1680 -283.0520  693.9190 oh        1 22S     -0.320000
     17 C7        -57.0550 -288.8900  693.7410 c2        1 22S     -0.023000
     18 C8        124.1110  615.3120-1491.6580 c1        1 22S     -0.194000
     19 C9        123.6450  615.0780-1490.3050 c3        1 22S     -0.029000
     20 C10       124.5580  614.1700-1489.5390 c2        1 22S      0.088000
     21 C11       124.9090  614.4670-1488.2320 c2        1 22S     -0.224000
     22 C12       124.4970  615.6610-1487.6280 c2        1 22S      0.154000
     23 C13       123.7020  616.5990-1488.3310 c2        1 22S     -0.204000
     24 C14       123.3210  616.3570-1489.6180 c2        1 22S      0.038000
     25 H1        -58.9400 -287.0480  693.2620 hx        1 22S      0.158000
     26 HN1       -57.4400 -287.4660  695.2140 hn        1 22S      0.275000
     27 H2        -57.2030 -284.6470  694.3700 h1        1 22S      0.125000
     28 HN2       -56.5610 -288.3020  691.7990 hn        1 22S      0.284000
     29 HO2       -59.2010 -284.6630  695.7420 ho        1 22S      0.268000
     30 H3        -60.0750 -284.7570  693.1270 h1        1 22S      0.119000
     31 HO3       -57.7130 -286.9060  688.8960 ho        1 22S      0.217000
     32 H4        -57.4350 -283.5250  691.9950 h1        1 22S      0.119000
     33 HO4       -58.8430 -283.0000  690.3790 ho        1 22S      0.227000
     34 H5        -59.0030 -286.0700  691.0660 h1        1 22S      0.117000
     35 H6        -56.1360 -285.0820  690.3100 h1        1 22S      0.117000
     36 H6A       -57.6420 -284.7370  689.3040 h1        1 22S      0.117000
     37 HO6       -59.7240 -282.4860  693.3630 ho        1 22S      0.247000
     38 H8        122.6370  614.5160-1490.3810 hc        1 22S      0.238000
     39 H11       125.5460  613.7650-1487.6570 ha        1 22S      0.210000
     40 H12       124.8100  615.8830-1486.5870 ha        1 22S      0.201000
     41 H13       123.4130  617.5410-1487.8240 ha        1 22S      0.205000
     42 H14       122.7290  617.0910-1490.1990 ha        1 22S      0.203000
     43 H121      -56.1200 -287.0620  694.2430 hn        1 22S      0.275000
     44 H22       -56.6630 -289.9900  692.0910 hn        1 22S      0.284000
@<TRIPOS>BOND
     1    1    2 1   
     2    1    5 1   
     3    1   14 1   
     4    1   25 1   
     5    2   17 1   
     6    2   26 1   
     7    2   43 1   
     8    3   17 1   
     9    4   20 1   
    10    5    7 1   
    11    5    8 1   
    12    5   27 1   
    13    6   17 1   
    14    6   28 1   
    15    6   44 1   
    16    7   29 1   
    17    8   11 1   
    18    8   16 1   
    19    8   30 1   
    20    9   18 1   
    21   10   15 1   
    22   10   31 1   
    23   11   12 1   
    24   11   13 1   
    25   11   32 1   
    26   12   33 1   
    27   13   14 1   
    28   13   15 1   
    29   13   34 1   
    30   15   35 1   
    31   15   36 1   
    32   16   37 1   
    33   18   19 1   
    34   19   20 1   
    35   19   24 1   
    36   19   38 1   
    37   20   21 1   
    38   21   22 1   
    39   21   39 1   
    40   22   23 1   
    41   22   40 1   
    42   23   24 1   
    43   23   41 1   
    44   24   42 1   
@<TRIPOS>SUBSTRUCTURE
     1 22S         1 TEMP              0 ****  ****    0 ROOT
