@<TRIPOS>MOLECULE
22S
   42    43     1     0     0
SMALL
bcc


@<TRIPOS>ATOM
      1 C1         -1.9600    0.1360   -0.7620 c3        1 22S      0.239500
      2 N1         -0.5290    0.2570   -0.9590 n         1 22S     -0.482900
      3 S1         -0.8430    2.6160   -2.1480 s         1 22S     -0.530400
      4 CL1         3.5170   -1.8090   -1.2200 cl        1 22S     -0.080400
      5 C2         -2.4990   -1.2290   -1.2770 c3        1 22S      0.090100
      6 N2          1.3690    1.7520   -1.1600 n         1 22S     -0.296900
      7 O2         -2.4290   -1.3200   -2.6880 oh        1 22S     -0.597800
      8 C3         -3.9950   -1.3310   -0.9350 c3        1 22S      0.109100
      9 N3          2.2160    0.9140   -0.5630 n2        1 22S     -0.455300
     10 O3         -3.1950    1.6490    2.9210 oh        1 22S     -0.592800
     11 C4         -4.2060   -1.1270    0.5740 c3        1 22S      0.122100
     12 O4         -5.5880   -1.0460    0.8750 oh        1 22S     -0.592800
     13 C5         -3.5690    0.2020    1.0050 c3        1 22S      0.108100
     14 O5         -2.1820    0.2080    0.6610 os        1 22S     -0.453600
     15 C6         -3.6190    0.3640    2.5270 c3        1 22S      0.140400
     16 O6         -4.4900   -2.6230   -1.2390 oh        1 22S     -0.605800
     17 C7         -0.0010    1.4790   -1.3620 c         1 22S      0.584400
     18 C8          3.4860    1.2030   -0.4610 ce        1 22S      0.385800
     19 C9          4.4200    0.3000    0.2240 ca        1 22S     -0.122900
     20 C10         4.5090   -1.0720   -0.0530 ca        1 22S      0.044400
     21 C11         5.4430   -1.8690    0.6220 ca        1 22S     -0.128000
     22 C12         6.2860   -1.2980    1.5720 ca        1 22S     -0.110000
     23 C13         6.2060    0.0670    1.8500 ca        1 22S     -0.129000
     24 C14         5.2820    0.8610    1.1790 ca        1 22S     -0.106000
     25 H1         -2.4980    0.9880   -1.2860 h2        1 22S      0.123700
     26 HN1         0.0130   -0.3300   -0.3550 hn        1 22S      0.329500
     27 H2         -1.9380   -2.0810   -0.8040 h1        1 22S      0.062700
     28 HN2         1.6820    2.6010   -1.6110 hn        1 22S      0.339500
     29 HO2        -1.5020   -1.2290   -2.9420 ho        1 22S      0.424000
     30 H3         -4.5710   -0.5580   -1.5180 h1        1 22S      0.070700
     31 HO3        -2.2930    1.7640    2.5940 ho        1 22S      0.410000
     32 H4         -3.7430   -1.9850    1.1370 h1        1 22S      0.061700
     33 HO4        -5.9940   -1.8410    0.5030 ho        1 22S      0.426000
     34 H5         -4.0900    1.0650    0.5040 h1        1 22S      0.078700
     35 H6         -2.9900   -0.4250    3.0170 h1        1 22S      0.064700
     36 H6A        -4.6870    0.2810    2.8660 h1        1 22S      0.064700
     37 HO6        -4.3190   -2.7700   -2.1790 ho        1 22S      0.429000
     38 H8          3.9600    2.1320   -0.8460 h4        1 22S      0.003800
     39 H11         5.5100   -2.9450    0.4000 ha        1 22S      0.151000
     40 H12         7.0160   -1.9280    2.1030 ha        1 22S      0.141000
     41 H13         6.8730    0.5170    2.6010 ha        1 22S      0.141000
     42 H14         5.2180    1.9380    1.3980 ha        1 22S      0.141000
@<TRIPOS>BOND
     1    1    2 1   
     2    1    5 1   
     3    1   14 1   
     4    1   25 1   
     5    2   17 1   
     6    2   26 1   
     7    3   17 2   
     8    4   20 1   
     9    5    7 1   
    10    5    8 1   
    11    5   27 1   
    12    6    9 1   
    13    6   17 1   
    14    6   28 1   
    15    7   29 1   
    16    8   11 1   
    17    8   16 1   
    18    8   30 1   
    19    9   18 2   
    20   10   15 1   
    21   10   31 1   
    22   11   12 1   
    23   11   13 1   
    24   11   32 1   
    25   12   33 1   
    26   13   14 1   
    27   13   15 1   
    28   13   34 1   
    29   15   35 1   
    30   15   36 1   
    31   16   37 1   
    32   18   19 1   
    33   18   38 1   
    34   19   20 ar  
    35   19   24 ar  
    36   20   21 ar  
    37   21   22 ar  
    38   21   39 1   
    39   22   23 ar  
    40   22   40 1   
    41   23   24 ar  
    42   23   41 1   
    43   24   42 1   
@<TRIPOS>SUBSTRUCTURE
     1 22S         1 TEMP              0 ****  ****    0 ROOT
