@<TRIPOS>MOLECULE
22S
   44    45     1     0     0
SMALL
bcc


@<TRIPOS>ATOM
      1 C1          0.2250   -0.2580    0.0520 c3        1 22S      0.340300
      2 N1         -0.0760   -0.4330   -1.4350 n4        1 22S     -0.601800
      3 S1         -2.6390   -0.9150   -0.7680 s         1 22S      0.300600
      4 CL1         1.2770    1.4250   -4.6320 cl        1 22S     -0.072400
      5 C2          1.7450   -0.4410    0.3080 c3        1 22S      0.112100
      6 N2         -1.6940   -1.1070   -3.2210 n4        1 22S     -0.311900
      7 O2          2.0570   -1.7520   -0.1070 oh        1 22S     -0.635800
      8 C3          1.9660   -0.2090    1.8130 c3        1 22S      0.119100
      9 N3         -1.0600   -0.1810   -4.0600 n2        1 22S     -0.640400
     10 O3         -1.8810    2.8070    1.6160 oh        1 22S     -0.609800
     11 C4          1.4490    1.1920    2.2060 c3        1 22S      0.079100
     12 O4          1.5240    1.2250    3.6170 oh        1 22S     -0.575800
     13 C5         -0.0150    1.3670    1.7660 c3        1 22S      0.115100
     14 O5         -0.1520    1.0700    0.3530 os        1 22S     -0.427600
     15 C6         -0.4950    2.8150    1.9010 c3        1 22S      0.136400
     16 O6          3.3610   -0.3090    1.9970 oh        1 22S     -0.589800
     17 C7         -1.4810   -0.8100   -1.7230 c         1 22S      0.013400
     18 C8         -1.6970    0.3670   -5.0750 ce        1 22S      0.607800
     19 C9         -1.0910    1.3030   -5.9920 ca        1 22S     -0.236900
     20 C10         0.2180    1.8280   -5.8970 ca        1 22S      0.105400
     21 C11         0.6930    2.7200   -6.8630 ca        1 22S     -0.136000
     22 C12        -0.1210    3.1020   -7.9300 ca        1 22S     -0.013000
     23 C13        -1.4210    2.5960   -8.0360 ca        1 22S     -0.128000
     24 C14        -1.9010    1.7120   -7.0830 ca        1 22S     -0.048000
     25 H1         -0.3850   -1.0150    0.6330 hx        1 22S      0.120700
     26 HN1         0.1400    0.4690   -1.9050 hn        1 22S      0.499300
     27 H2          2.3530    0.3030   -0.2820 h1        1 22S      0.096700
     28 HN2        -1.2620   -2.0300   -3.4260 hn        1 22S      0.463300
     29 HO2         2.8880   -2.0110    0.3280 ho        1 22S      0.486000
     30 H3          1.4370   -0.9970    2.4200 h1        1 22S      0.083700
     31 HO3        -2.2620    3.5940    2.0290 ho        1 22S      0.438000
     32 H4          2.0970    1.9820    1.7370 h1        1 22S      0.084700
     33 HO4         1.6410    2.1450    3.8890 ho        1 22S      0.438000
     34 H5         -0.6890    0.6790    2.3480 h1        1 22S      0.095700
     35 H6          0.0360    3.4790    1.1680 h1        1 22S      0.064200
     36 H6A        -0.2880    3.1530    2.9520 h1        1 22S      0.064200
     37 HO6         3.5350   -0.1750    2.9430 ho        1 22S      0.460000
     38 H8         -2.7670    0.1280   -5.3150 h4        1 22S      0.032800
     39 H11         1.7180    3.1240   -6.7850 ha        1 22S      0.186000
     40 H12         0.2650    3.8040   -8.6910 ha        1 22S      0.184000
     41 H13        -2.0640    2.9010   -8.8810 ha        1 22S      0.183000
     42 H14        -2.9270    1.3180   -7.1800 ha        1 22S      0.155000
     43 H121        0.5820   -1.1520   -1.7890 hn        1 22S      0.499300
     44 H22        -2.7240   -1.1990   -3.3440 hn        1 22S      0.463300
@<TRIPOS>BOND
     1    1    2 1   
     2    1    5 1   
     3    1   14 1   
     4    1   25 1   
     5    2   17 1   
     6    2   26 1   
     7    2   43 1   
     8    3   17 2   
     9    4   20 1   
    10    5    7 1   
    11    5    8 1   
    12    5   27 1   
    13    6    9 1   
    14    6   17 1   
    15    6   28 1   
    16    6   44 1   
    17    7   29 1   
    18    8   11 1   
    19    8   16 1   
    20    8   30 1   
    21    9   18 2   
    22   10   15 1   
    23   10   31 1   
    24   11   12 1   
    25   11   13 1   
    26   11   32 1   
    27   12   33 1   
    28   13   14 1   
    29   13   15 1   
    30   13   34 1   
    31   15   35 1   
    32   15   36 1   
    33   16   37 1   
    34   18   19 1   
    35   18   38 1   
    36   19   20 ar  
    37   19   24 ar  
    38   20   21 ar  
    39   21   22 ar  
    40   21   39 1   
    41   22   23 ar  
    42   22   40 1   
    43   23   24 ar  
    44   23   41 1   
    45   24   42 1   
@<TRIPOS>SUBSTRUCTURE
     1 22S         1 TEMP              0 ****  ****    0 ROOT
