@<TRIPOS>MOLECULE
22T
   31    33     1     0     0
SMALL
bcc


@<TRIPOS>ATOM
      1 Cl21        0.0840   -0.0900   -0.2610 cl        1 22T     -0.066400
      2 C14         1.7780   -0.0340   -0.1780 ca        1 22T     -0.036600
      3 C13         2.3870    0.0060    1.0700 ca        1 22T     -0.032000
      4 C10         3.7850    0.0500    1.1760 ca        1 22T     -0.186600
      5 C11         4.4080    0.0870    2.5110 c         1 22T      0.708100
      6 O13         3.7800    0.0800    3.5870 o         1 22T     -0.633500
      7 N20         5.8110    0.1350    2.5570 ns        1 22T     -0.456100
      8 C12         6.5720    0.1460    1.4090 cc        1 22T      0.017600
      9 C9          4.5870    0.0600    0.0160 ca        1 22T      0.054200
     10 C8          3.9730    0.0250   -1.2460 ca        1 22T     -0.225000
     11 C7          2.5830   -0.0260   -1.3490 ca        1 22T      0.174100
     12 O9          1.9070   -0.0420   -2.5480 os        1 22T     -0.315900
     13 C5          2.6710   -0.3350   -3.7270 c3        1 22T      0.112100
     14 C6          3.3660    0.9400   -4.2710 c3        1 22T      0.118800
     15 C15         6.0180    0.1110    0.1610 cd        1 22T     -0.226200
     16 C4          1.6460   -0.7320   -4.8000 c3        1 22T     -0.108400
     17 C3          1.7970    0.3130   -5.9180 c3        1 22T      0.143800
     18 N1          2.6690    1.3950   -5.4670 n7        1 22T     -0.790200
     19 H13         1.7830    0.0010    1.9950 ha        1 22T      0.175000
     20 H20         6.2530    0.1620    3.4480 hn        1 22T      0.335500
     21 H12         7.6670    0.1850    1.5610 h4        1 22T      0.152000
     22 H15         6.6490    0.1210   -0.7360 ha        1 22T      0.151000
     23 H8          4.6040    0.0490   -2.1470 ha        1 22T      0.148000
     24 H5          3.4030   -1.1550   -3.5180 h1        1 22T      0.065700
     25 H61C        4.4200    0.6830   -4.5690 h1        1 22T      0.060700
     26 H62C        3.4040    1.7340   -3.4790 h1        1 22T      0.060700
     27 H41C        1.8600   -1.7590   -5.1790 hc        1 22T      0.068700
     28 H42C        0.6120   -0.7210   -4.3740 hc        1 22T      0.068700
     29 H1          2.1260    2.2130   -5.2590 hn        1 22T      0.355800
     30 H31C        2.2850   -0.1570   -6.8160 h1        1 22T      0.052700
     31 H32C        0.7930    0.7010   -6.2360 h1        1 22T      0.052700
@<TRIPOS>BOND
     1    1    2 1   
     2    2    3 ar  
     3    2   11 ar  
     4    3    4 ar  
     5    3   19 1   
     6    4    5 1   
     7    4    9 ar  
     8    5    6 2   
     9    5    7 1   
    10    7    8 1   
    11    7   20 1   
    12    8   15 2   
    13    8   21 1   
    14    9   10 ar  
    15    9   15 1   
    16   10   11 ar  
    17   10   23 1   
    18   11   12 1   
    19   12   13 1   
    20   13   14 1   
    21   13   16 1   
    22   13   24 1   
    23   14   18 1   
    24   14   25 1   
    25   14   26 1   
    26   15   22 1   
    27   16   17 1   
    28   16   27 1   
    29   16   28 1   
    30   17   18 1   
    31   17   30 1   
    32   17   31 1   
    33   18   29 1   
@<TRIPOS>SUBSTRUCTURE
     1 22T         1 TEMP              0 ****  ****    0 ROOT
