@<TRIPOS>MOLECULE
22T
   31    33     1     0     0
SMALL
bcc


@<TRIPOS>ATOM
      1 CL21       -0.4720   -2.9970    0.0040 cl        1 22T     -0.066400
      2 C14         0.2220   -1.4480   -0.0210 ca        1 22T     -0.036600
      3 C13         1.6030   -1.3300    0.0700 ca        1 22T     -0.032000
      4 C10         2.2110   -0.0660    0.0500 ca        1 22T     -0.186600
      5 C11         3.6770    0.0330    0.1440 c         1 22T      0.708100
      6 O13         4.4500   -0.9410    0.2400 o         1 22T     -0.633500
      7 N20         4.2310    1.3240    0.1230 n         1 22T     -0.456100
      8 C12         3.4410    2.4480    0.0190 cc        1 22T      0.017600
      9 C9          1.4250    1.1000   -0.0580 ca        1 22T      0.054200
     10 C8          0.0280    0.9830   -0.1450 ca        1 22T     -0.225000
     11 C7         -0.5740   -0.2750   -0.1320 ca        1 22T      0.174100
     12 O9         -1.9340   -0.4720   -0.1930 os        1 22T     -0.315900
     13 C5         -2.7400    0.6440   -0.6010 c3        1 22T      0.112100
     14 C6         -3.0460    1.5790    0.5980 c3        1 22T      0.118800
     15 C15         2.0800    2.3810   -0.0710 cd        1 22T     -0.226200
     16 C4         -4.0940    0.0520   -1.0160 c3        1 22T     -0.108400
     17 C3         -5.1240    0.6710   -0.0560 c3        1 22T      0.143800
     18 N1         -4.4320    1.3950    1.0080 n3        1 22T     -0.790200
     19 H13         2.2430   -2.2260    0.1580 ha        1 22T      0.175000
     20 H20         5.2200    1.4150    0.1860 hn        1 22T      0.335500
     21 H12         3.9810    3.4130    0.0120 h4        1 22T      0.152000
     22 H15         1.4750    3.2930   -0.1530 ha        1 22T      0.151000
     23 H8         -0.5800    1.8970   -0.2140 ha        1 22T      0.148000
     24 H5         -2.2420    1.1910   -1.4420 h1        1 22T      0.065700
     25 H61C       -2.3290    1.3830    1.4390 h1        1 22T      0.060700
     26 H62C       -2.9270    2.6470    0.2690 h1        1 22T      0.060700
     27 H41C       -4.3250    0.3140   -2.0750 hc        1 22T      0.068700
     28 H42C       -4.0760   -1.0630   -0.9240 hc        1 22T      0.068700
     29 H1         -4.4720    0.8730    1.8650 hn        1 22T      0.355800
     30 H31C       -5.7610    1.4160   -0.6080 h1        1 22T      0.052700
     31 H32C       -5.8020   -0.1190    0.3620 h1        1 22T      0.052700
@<TRIPOS>BOND
     1    1    2 1   
     2    2    3 ar  
     3    2   11 ar  
     4    3    4 ar  
     5    3   19 1   
     6    4    5 1   
     7    4    9 ar  
     8    5    6 2   
     9    5    7 1   
    10    7    8 1   
    11    7   20 1   
    12    8   15 2   
    13    8   21 1   
    14    9   10 ar  
    15    9   15 1   
    16   10   11 ar  
    17   10   23 1   
    18   11   12 1   
    19   12   13 1   
    20   13   14 1   
    21   13   16 1   
    22   13   24 1   
    23   14   18 1   
    24   14   25 1   
    25   14   26 1   
    26   15   22 1   
    27   16   17 1   
    28   16   27 1   
    29   16   28 1   
    30   17   18 1   
    31   17   30 1   
    32   17   31 1   
    33   18   29 1   
@<TRIPOS>SUBSTRUCTURE
     1 22T         1 TEMP              0 ****  ****    0 ROOT
