@<TRIPOS>MOLECULE
22T
   31    31     1     0     0
SMALL
bcc


@<TRIPOS>ATOM
      1 CL21       -2.9550    0.1760    0.8760 cl        1 22T      0.010000
      2 C14        -1.2630    0.0770    0.9770 c2        1 22T     -0.103000
      3 C13        -1.0360    0.1470    2.3340 c2        1 22T     -0.046000
      4 C10         0.2880    0.1910    2.8260 c1        1 22T     -0.146000
      5 C11         0.5440    0.1880    4.3410 c1        1 22T      0.342000
      6 O13        -0.3840    0.2450    5.1070 o         1 22T     -0.355000
      7 N20         1.9330    0.1800    4.8580 n3        1 22T     -0.299000
      8 C12         3.0270    0.1780    3.9570 c2        1 22T      0.012000
      9 C9          1.3370    0.1640    1.9600 c2        1 22T      0.048000
     10 C8          1.1050    0.0930    0.5830 c1        1 22T     -0.179000
     11 C7         -0.1960    0.0500    0.0980 c1        1 22T      0.105000
     12 O9         -1.0860    0.4040   -0.9090 os        1 22T     -0.218000
     13 C5         -0.6220   -0.1800   -2.2230 c3        1 22T      0.004000
     14 C6         -0.6430    0.9700   -3.3840 c3        1 22T     -0.091000
     15 C15         2.7830    0.1840    2.4980 c2        1 22T     -0.234000
     16 C4         -1.4010   -1.0550   -2.5940 c3        1 22T     -0.213000
     17 C3         -1.4110   -0.9510   -4.1940 c3        1 22T     -0.090000
     18 N1         -0.7230    0.3420   -4.5210 n3        1 22T     -0.271000
     19 H13        -1.7970    0.1310    2.9620 ha        1 22T      0.175000
     20 H20         2.0920    0.1750    5.7980 hn        1 22T      0.250000
     21 H12         3.9780    0.1700    4.3140 h4        1 22T      0.153000
     22 H15         3.5330    0.1830    1.8790 ha        1 22T      0.152000
     23 H8          1.8520    0.0750   -0.0330 ha        1 22T      0.150000
     24 H5          0.2800   -0.5470   -2.1300 h1        1 22T      0.097000
     25 H61C        0.1510    1.4830   -3.3500 h1        1 22T      0.104500
     26 H62C       -1.4440    1.5630   -3.2620 h1        1 22T      0.104500
     27 H41C       -2.3410   -0.8760   -2.2180 hc        1 22T      0.103500
     28 H42C       -1.0810   -1.9460   -2.3090 hc        1 22T      0.103500
     29 H1         -1.2550    0.8370   -5.1160 hn        1 22T      0.150000
     30 H31C       -0.9140   -1.7160   -4.5920 h1        1 22T      0.090500
     31 H32C       -2.3530   -0.9340   -4.5330 h1        1 22T      0.090500
@<TRIPOS>BOND
     1    1    2 1   
     2    2    3 1   
     3    2   11 1   
     4    3    4 1   
     5    3   19 1   
     6    4    9 1   
     7    5    6 1   
     8    5    7 1   
     9    7    8 1   
    10    7   20 1   
    11    8   15 1   
    12    8   21 1   
    13    9   10 1   
    14    9   15 1   
    15   10   23 1   
    16   11   12 1   
    17   12   13 1   
    18   13   14 1   
    19   13   16 1   
    20   13   24 1   
    21   14   18 1   
    22   14   25 1   
    23   14   26 1   
    24   15   22 1   
    25   16   17 1   
    26   16   27 1   
    27   16   28 1   
    28   17   18 1   
    29   17   30 1   
    30   17   31 1   
    31   18   29 1   
@<TRIPOS>SUBSTRUCTURE
     1 22T         1 TEMP              0 ****  ****    0 ROOT
