@<TRIPOS>MOLECULE
22T
   31    33     1     0     0
SMALL
bcc


@<TRIPOS>ATOM
      1 CL21        0.0820   -0.0670   -0.2610 cl        1 22T     -0.066400
      2 C14         1.7770   -0.0210   -0.1780 ca        1 22T     -0.036600
      3 C13         2.3870    0.0180    1.0700 ca        1 22T     -0.032000
      4 C10         3.7850    0.0530    1.1760 ca        1 22T     -0.186600
      5 C11         4.4080    0.0900    2.5110 c         1 22T      0.708100
      6 O13         3.7800    0.0890    3.5870 o         1 22T     -0.633500
      7 N20         5.8110    0.1290    2.5570 n         1 22T     -0.456100
      8 C12         6.5730    0.1330    1.4080 cc        1 22T      0.017600
      9 C9          4.5870    0.0560    0.0160 ca        1 22T      0.054200
     10 C8          3.9720    0.0220   -1.2460 ca        1 22T     -0.225000
     11 C7          2.5820   -0.0210   -1.3490 ca        1 22T      0.174100
     12 O9          1.9050   -0.0350   -2.5470 os        1 22T     -0.315900
     13 C5          2.6680   -0.3350   -3.7270 c3        1 22T      0.112100
     14 C6          3.3710    0.9350   -4.2720 c3        1 22T      0.118800
     15 C15         6.0180    0.0980    0.1610 cd        1 22T     -0.226200
     16 C4          1.6410   -0.7280   -4.7980 c3        1 22T     -0.108400
     17 C3          1.7980    0.3150   -5.9180 c3        1 22T      0.143800
     18 N1          2.6760    1.3930   -5.4690 n3        1 22T     -0.790200
     19 H13         1.7830    0.0190    1.9950 ha        1 22T      0.175000
     20 H20         6.2540    0.1550    3.4480 hn        1 22T      0.335500
     21 H12         7.6670    0.1650    1.5610 h4        1 22T      0.152000
     22 H15         6.6490    0.1020   -0.7360 ha        1 22T      0.151000
     23 H8          4.6040    0.0390   -2.1470 ha        1 22T      0.148000
     24 H5          3.3950   -1.1590   -3.5160 h1        1 22T      0.065700
     25 H61C        4.4230    0.6710   -4.5700 h1        1 22T      0.060700
     26 H62C        3.4130    1.7300   -3.4810 h1        1 22T      0.060700
     27 H41C        1.8480   -1.7560   -5.1760 hc        1 22T      0.068700
     28 H42C        0.6070   -0.7090   -4.3720 hc        1 22T      0.068700
     29 H1          2.1380    2.2140   -5.2620 hn        1 22T      0.355800
     30 H31C        0.7960    0.7090   -6.2360 h1        1 22T      0.052700
     31 H32C        2.2830   -0.1590   -6.8150 h1        1 22T      0.052700
@<TRIPOS>BOND
     1    1    2 1   
     2    2    3 ar  
     3    2   11 ar  
     4    3    4 ar  
     5    3   19 1   
     6    4    5 1   
     7    4    9 ar  
     8    5    6 2   
     9    5    7 1   
    10    7    8 1   
    11    7   20 1   
    12    8   15 2   
    13    8   21 1   
    14    9   10 ar  
    15    9   15 1   
    16   10   11 ar  
    17   10   23 1   
    18   11   12 1   
    19   12   13 1   
    20   13   14 1   
    21   13   16 1   
    22   13   24 1   
    23   14   18 1   
    24   14   25 1   
    25   14   26 1   
    26   15   22 1   
    27   16   17 1   
    28   16   27 1   
    29   16   28 1   
    30   17   18 1   
    31   17   30 1   
    32   17   31 1   
    33   18   29 1   
@<TRIPOS>SUBSTRUCTURE
     1 22T         1 TEMP              0 ****  ****    0 ROOT
