@<TRIPOS>MOLECULE
22T
   31    33     1     0     0
SMALL
bcc


@<TRIPOS>ATOM
      1 CL21        0.0850   -0.0770   -0.2570 cl        1 22T     -0.066400
      2 C14         1.7800   -0.0290   -0.1760 ca        1 22T     -0.036600
      3 C13         2.3910    0.0060    1.0710 ca        1 22T     -0.032000
      4 C10         3.7890    0.0440    1.1750 ca        1 22T     -0.186600
      5 C11         4.4140    0.0760    2.5090 c         1 22T      0.708100
      6 O13         3.7880    0.0690    3.5870 o         1 22T     -0.633500
      7 N20         5.8170    0.1170    2.5530 n         1 22T     -0.456100
      8 C12         6.5770    0.1270    1.4040 cc        1 22T      0.017600
      9 C9          4.5900    0.0520    0.0140 ca        1 22T      0.054200
     10 C8          3.9730    0.0220   -1.2470 ca        1 22T     -0.225000
     11 C7          2.5830   -0.0230   -1.3490 ca        1 22T      0.174100
     12 O9          1.9050   -0.0330   -2.5460 os        1 22T     -0.315900
     13 C5          2.6660   -0.3280   -3.7270 c3        1 22T      0.112100
     14 C6          3.3660    0.9440   -4.2700 c3        1 22T      0.118800
     15 C15         6.0210    0.0960    0.1570 cd        1 22T     -0.226200
     16 C4          1.6380   -0.7190   -4.7980 c3        1 22T     -0.108400
     17 C3          1.7920    0.3270   -5.9160 c3        1 22T      0.143800
     18 N1          2.6690    1.4050   -5.4640 n3        1 22T     -0.790200
     19 H13         1.7880    0.0020    1.9970 ha        1 22T      0.175000
     20 H20         6.2610    0.1400    3.4440 hn        1 22T      0.335500
     21 H12         7.6720    0.1610    1.5550 h4        1 22T      0.152000
     22 H15         6.6500    0.1050   -0.7410 ha        1 22T      0.151000
     23 H8          4.6030    0.0440   -2.1480 ha        1 22T      0.148000
     24 H5          3.3950   -1.1510   -3.5200 h1        1 22T      0.065700
     25 H61C        3.4080    1.7370   -3.4770 h1        1 22T      0.060700
     26 H62C        4.4180    0.6840   -4.5700 h1        1 22T      0.060700
     27 H41C        1.8460   -1.7470   -5.1790 hc        1 22T      0.068700
     28 H42C        0.6040   -0.7040   -4.3710 hc        1 22T      0.068700
     29 H1          2.1290    2.2250   -5.2540 hn        1 22T      0.355800
     30 H31C        2.2760   -0.1440   -6.8150 h1        1 22T      0.052700
     31 H32C        0.7890    0.7200   -6.2310 h1        1 22T      0.052700
@<TRIPOS>BOND
     1    1    2 1   
     2    2    3 ar  
     3    2   11 ar  
     4    3    4 ar  
     5    3   19 1   
     6    4    5 1   
     7    4    9 ar  
     8    5    6 2   
     9    5    7 1   
    10    7    8 1   
    11    7   20 1   
    12    8   15 2   
    13    8   21 1   
    14    9   10 ar  
    15    9   15 1   
    16   10   11 ar  
    17   10   23 1   
    18   11   12 1   
    19   12   13 1   
    20   13   14 1   
    21   13   16 1   
    22   13   24 1   
    23   14   18 1   
    24   14   25 1   
    25   14   26 1   
    26   15   22 1   
    27   16   17 1   
    28   16   27 1   
    29   16   28 1   
    30   17   18 1   
    31   17   30 1   
    32   17   31 1   
    33   18   29 1   
@<TRIPOS>SUBSTRUCTURE
     1 22T         1 TEMP              0 ****  ****    0 ROOT
