@<TRIPOS>MOLECULE
22U
   51    49     1     0     0
SMALL
bcc


@<TRIPOS>ATOM
      1 N1          0.4240    0.0230    2.8590 n3        1 22U     -0.338000
      2 C2          1.6050   -0.2480    2.1180 c3        1 22U     -0.045000
      3 C3          2.1330    1.0390    1.5150 c2        1 22U      0.324000
      4 O1          3.2760    1.3700    1.7090 o         1 22U     -0.371000
      5 C1          2.6620   -0.8480    3.0490 c3        1 22U     -0.157000
      6 C16         2.9250   -2.3400    2.6530 c2        1 22U     -0.080000
      7 C17         4.1090   -2.6860    2.0420 c1        1 22U     -0.122000
      8 C21         2.0370   -3.3360    3.0640 c2        1 22U     -0.137000
      9 C18         4.4220   -4.0350    1.8320 c1        1 22U     -0.129500
     10 C20         2.3470   -4.6680    2.8570 c1        1 22U     -0.129000
     11 C19         3.5470   -5.0170    2.2380 c1        1 22U     -0.129500
     12 N2          1.2410    1.9190    0.8040 n         1 22U     -0.313000
     13 C7         -0.2460    1.6640    0.4670 c3        1 22U      0.017000
     14 C8         -0.4620    0.5990   -0.5040 c2        1 22U      0.277000
     15 O2          0.4180   -0.2510   -0.6940 o         1 22U     -0.354000
     16 C6         -0.7420    3.1040   -0.0140 c3        1 22U     -0.168000
     17 C5          0.1760    3.9030    0.3110 c3        1 22U     -0.171000
     18 C4          1.5200    3.0710    0.3260 c3        1 22U     -0.024000
     19 N3         -1.7790    0.4900   -1.2210 n         1 22U     -0.368000
     20 C9         -1.8830   -0.3000   -2.4350 c3        1 22U      0.005000
     21 C10        -3.0990    0.1440   -3.2240 c2        1 22U     -0.112000
     22 C15        -4.2190   -0.6420   -3.2510 c2        1 22U     -0.122000
     23 C14        -5.3010   -0.2730   -4.0160 c1        1 22U     -0.125000
     24 C13        -5.2600    0.8850   -4.7540 c1        1 22U     -0.120000
     25 C12        -4.1380    1.6740   -4.7290 c1        1 22U     -0.064000
     26 C11        -3.0550    1.3070   -3.9650 c1        1 22U     -0.110000
     27 CL1        -4.0830    3.1420   -5.6740 cl        1 22U     -0.012000
     28 HN1        -0.0580   -0.7690    2.9750 hn        1 22U      0.153000
     29 HN1A        0.6500    0.3660    3.6800 hn        1 22U      0.153000
     30 H2          1.4030   -0.8820    1.4040 h1        1 22U      0.127000
     31 H1          2.3430   -0.8080    3.9670 hc        1 22U      0.113000
     32 H1A         3.5130   -0.3250    2.9690 hc        1 22U      0.113000
     33 H17         4.7240   -1.9980    1.7570 ha        1 22U      0.141000
     34 H21         1.1860   -3.0880    3.5050 ha        1 22U      0.129000
     35 H18         5.2770   -4.2830    1.3910 ha        1 22U      0.131500
     36 H20         1.7180   -5.3720    3.1480 ha        1 22U      0.131000
     37 H19         3.7720   -5.9810    2.0880 ha        1 22U      0.131500
     38 H7         -0.7430    1.3430    1.2280 h1        1 22U      0.134000
     39 H6         -1.5780    3.3430    0.4430 hc        1 22U      0.096000
     40 H6A        -0.8700    3.1130   -0.9710 hc        1 22U      0.096000
     41 H5         -0.0010    4.2760    1.2100 hc        1 22U      0.095500
     42 H5A         0.2390    4.6330   -0.3510 hc        1 22U      0.095500
     43 H4          2.1860    3.5170    0.8930 h1        1 22U      0.102000
     44 H4A         1.8750    2.9760   -0.6110 h1        1 22U      0.102000
     45 HN3        -2.5120    0.9570   -0.9100 hn        1 22U      0.217000
     46 H9         -1.9740   -1.2400   -2.2050 h1        1 22U      0.112000
     47 H9A        -1.0830   -0.1750   -2.9720 h1        1 22U      0.112000
     48 H15        -4.2520   -1.4900   -2.7100 ha        1 22U      0.134000
     49 H14        -6.0920   -0.8290   -4.0340 ha        1 22U      0.138000
     50 H13        -6.0490    1.1520   -5.3110 ha        1 22U      0.148000
     51 H11        -2.2520    1.8720   -3.9470 ha        1 22U      0.169000
@<TRIPOS>BOND
     1    1    2 1   
     2    1   28 1   
     3    1   29 1   
     4    2    3 1   
     5    2    5 1   
     6    2   30 1   
     7    3    4 1   
     8    3   12 1   
     9    5    6 1   
    10    5   31 1   
    11    5   32 1   
    12    6    7 1   
    13    6    8 1   
    14    7   33 1   
    15    8   10 1   
    16    8   34 1   
    17    9   11 1   
    18    9   35 1   
    19   10   36 1   
    20   11   37 1   
    21   12   13 1   
    22   12   18 1   
    23   13   14 1   
    24   13   16 1   
    25   13   38 1   
    26   14   15 1   
    27   14   19 1   
    28   16   17 1   
    29   16   39 1   
    30   16   40 1   
    31   17   18 1   
    32   17   41 1   
    33   17   42 1   
    34   18   43 1   
    35   18   44 1   
    36   19   20 1   
    37   19   45 1   
    38   20   21 1   
    39   20   46 1   
    40   20   47 1   
    41   21   22 1   
    42   21   26 1   
    43   22   23 1   
    44   22   48 1   
    45   23   49 1   
    46   24   25 1   
    47   24   50 1   
    48   25   27 1   
    49   26   51 1   
@<TRIPOS>SUBSTRUCTURE
     1 22U         1 TEMP              0 ****  ****    0 ROOT
