@<TRIPOS>MOLECULE
22U
   51    53     1     0     0
SMALL
bcc


@<TRIPOS>ATOM
      1 N1          2.9990    1.6580    0.8200 n3        1 22U     -0.898800
      2 C2          2.9560    0.3390    0.2260 c3        1 22U      0.118500
      3 C3          1.5270    0.0120   -0.2560 c         1 22U      0.667100
      4 O1          0.8750    0.8540   -0.9120 o         1 22U     -0.632100
      5 C1          3.8770    0.1170   -0.9930 c3        1 22U     -0.078100
      6 C16         5.3050    0.3230   -0.6390 ca        1 22U     -0.089300
      7 C17         6.0610   -0.7320   -0.1130 ca        1 22U     -0.128500
      8 C21         5.9100    1.5710   -0.8320 ca        1 22U     -0.128500
      9 C18         7.4020   -0.5400    0.2160 ca        1 22U     -0.124000
     10 C20         7.2520    1.7600   -0.5030 ca        1 22U     -0.124000
     11 C19         7.9990    0.7060    0.0220 ca        1 22U     -0.126000
     12 N2          0.9710   -1.2100    0.0600 n         1 22U     -0.456800
     13 C7         -0.3080   -1.6430   -0.4930 c3        1 22U      0.033700
     14 C8         -1.5240   -1.1560    0.3320 c         1 22U      0.651100
     15 O2         -2.3790   -1.9620    0.7520 o         1 22U     -0.622100
     16 C6         -0.2690   -3.1850   -0.5520 c3        1 22U     -0.088400
     17 C5          0.9550   -3.6170    0.2480 c3        1 22U     -0.091400
     18 C4          1.7280   -2.3330    0.5860 c3        1 22U      0.089000
     19 N3         -1.6200    0.1950    0.5720 n         1 22U     -0.550900
     20 C9         -2.7550    0.7700    1.2410 c3        1 22U      0.132300
     21 C10        -3.8680    1.2120    0.3300 ca        1 22U     -0.110300
     22 C15        -4.1110    2.5710    0.1120 ca        1 22U     -0.119000
     23 C14        -5.1640    2.9690   -0.7120 ca        1 22U     -0.126000
     24 C13        -5.9760    2.0180   -1.3270 ca        1 22U     -0.122000
     25 C12        -5.7270    0.6590   -1.1080 ca        1 22U      0.014400
     26 C11        -4.6770    0.2490   -0.2820 ca        1 22U     -0.108000
     27 CL1        -6.7140   -0.5070   -1.8560 cl        1 22U     -0.097400
     28 HN1         3.9510    1.9690    0.8850 hn        1 22U      0.365300
     29 HN1A        2.4710    2.3140    0.2760 hn        1 22U      0.365300
     30 H2          3.2760   -0.3760    1.0430 h1        1 22U      0.078700
     31 H1          3.7260   -0.9310   -1.3670 hc        1 22U      0.063700
     32 H1A         3.5730    0.8160   -1.8180 hc        1 22U      0.063700
     33 H17         5.5930   -1.7150    0.0400 ha        1 22U      0.131000
     34 H21         5.3270    2.4020   -1.2540 ha        1 22U      0.131000
     35 H18         7.9900   -1.3740    0.6280 ha        1 22U      0.134500
     36 H20         7.7210    2.7430   -0.6590 ha        1 22U      0.134500
     37 H19         9.0570    0.8560    0.2810 ha        1 22U      0.135000
     38 H7         -0.4350   -1.2090   -1.5290 h1        1 22U      0.086700
     39 H6         -0.1820   -3.5110   -1.6190 hc        1 22U      0.076200
     40 H6A        -1.2060   -3.6250   -0.1290 hc        1 22U      0.076200
     41 H5          1.5970   -4.3150   -0.3420 hc        1 22U      0.058200
     42 H5A         0.6490   -4.1390    1.1880 hc        1 22U      0.058200
     43 H4          2.7570   -2.3610    0.1300 h1        1 22U      0.049200
     44 H4A         1.8390   -2.2150    1.7000 h1        1 22U      0.049200
     45 HN3        -1.0200    0.8190    0.0770 hn        1 22U      0.338500
     46 H9         -3.1710    0.0060    1.9640 h1        1 22U      0.069200
     47 H9A        -2.3860    1.6570    1.8340 h1        1 22U      0.069200
     48 H15        -3.4730    3.3290    0.5910 ha        1 22U      0.135000
     49 H14        -5.3540    4.0390   -0.8810 ha        1 22U      0.136000
     50 H13        -6.8060    2.3340   -1.9770 ha        1 22U      0.145000
     51 H11        -4.4760   -0.8210   -0.1040 ha        1 22U      0.169000
@<TRIPOS>BOND
     1    1    2 1   
     2    1   28 1   
     3    1   29 1   
     4    2    3 1   
     5    2    5 1   
     6    2   30 1   
     7    3    4 2   
     8    3   12 1   
     9    5    6 1   
    10    5   31 1   
    11    5   32 1   
    12    6    7 ar  
    13    6    8 ar  
    14    7    9 ar  
    15    7   33 1   
    16    8   10 ar  
    17    8   34 1   
    18    9   11 ar  
    19    9   35 1   
    20   10   11 ar  
    21   10   36 1   
    22   11   37 1   
    23   12   13 1   
    24   12   18 1   
    25   13   14 1   
    26   13   16 1   
    27   13   38 1   
    28   14   15 2   
    29   14   19 1   
    30   16   17 1   
    31   16   39 1   
    32   16   40 1   
    33   17   18 1   
    34   17   41 1   
    35   17   42 1   
    36   18   43 1   
    37   18   44 1   
    38   19   20 1   
    39   19   45 1   
    40   20   21 1   
    41   20   46 1   
    42   20   47 1   
    43   21   22 ar  
    44   21   26 ar  
    45   22   23 ar  
    46   22   48 1   
    47   23   24 ar  
    48   23   49 1   
    49   24   25 ar  
    50   24   50 1   
    51   25   26 ar  
    52   25   27 1   
    53   26   51 1   
@<TRIPOS>SUBSTRUCTURE
     1 22U         1 TEMP              0 ****  ****    0 ROOT
