@<TRIPOS>MOLECULE
22W
   27    26     1     0     0
SMALL
bcc


@<TRIPOS>ATOM
      1 C          -0.1370    0.4030   -1.6510 c1        1 22W     -0.636000
      2 N           0.9120    1.5850   -3.9080 nz        1 22W     -0.402000
      3 O          -2.6300   -0.9320    0.6560 os        1 22W     -0.168000
      4 S           1.0200    0.7920   -2.2460 ss        1 22W      1.197000
      5 CA         -4.7080   -0.5740   -0.4630 c1        1 22W     -0.048000
      6 CB         -5.9980   -0.7220   -0.4440 c2        1 22W     -0.015000
      7 NB         -2.5500    0.0980   -1.4570 n2        1 22W      0.038000
      8 CE         -3.3950   -0.4560   -0.4640 c2        1 22W      0.014000
      9 CF         -1.3030   -0.0090   -1.0090 c2        1 22W     -0.082000
     10 C83        -1.2940   -0.6680    0.3550 c2        1 22W      0.310000
     11 CG1        -9.1820   -2.6230   -1.0880 c3        1 22W     -0.218500
     12 CG2        -6.9540    0.2680    0.0970 c3        1 22W     -0.201000
     13 HNA        -0.0330    1.6770   -4.2690 hn        1 22W      0.226667
     14 HA         -8.7370   -1.6800   -0.6830 hc        1 22W      0.073000
     15 HB         -6.4500   -1.6530   -0.8590 ha        1 22W      0.189000
     16 HD1        -9.7660   -3.1110   -0.2700 hc        1 22W      0.073000
     17 HD1A       -7.4040   -3.8230   -0.7760 hc        1 22W      0.073000
     18 HD1B       -8.5620   -4.4850   -1.9980 hc        1 22W      0.073000
     19 HG1        -9.8900   -2.3510   -1.9070 hc        1 22W      0.073000
     20 HG1A       -7.5280   -3.0620   -2.4180 hc        1 22W      0.073000
     21 HG2        -7.5350   -0.2020    0.9330 hc        1 22W      0.114333
     22 HG2A       -7.6750    0.5660   -0.7070 hc        1 22W      0.114333
     23 HG2B       -6.4470    1.1840    0.4850 hc        1 22W      0.114333
     24 O26        -0.4310   -0.9790    1.1530 o         1 22W     -0.222000
     25 CD1        -8.1110   -3.5440   -1.5960 c3        1 22W     -0.218500
     26 H2          1.3170    2.5180   -3.8780 hn        1 22W      0.226667
     27 HN          1.4460    1.0490   -4.5870 hn        1 22W      0.226667
@<TRIPOS>BOND
     1    1    4 1   
     2    1    9 1   
     3    2    4 1   
     4    2   13 1   
     5    2   26 1   
     6    2   27 1   
     7    3    8 1   
     8    3   10 1   
     9    5    6 1   
    10    5    8 1   
    11    6   12 1   
    12    6   15 1   
    13    7    8 1   
    14    7    9 1   
    15    9   10 1   
    16   10   24 1   
    17   11   14 1   
    18   11   16 1   
    19   11   19 1   
    20   11   25 1   
    21   12   21 1   
    22   12   22 1   
    23   12   23 1   
    24   17   25 1   
    25   18   25 1   
    26   20   25 1   
@<TRIPOS>SUBSTRUCTURE
     1 22W         1 TEMP              0 ****  ****    0 ROOT
