@<TRIPOS>MOLECULE
22W
   27    27     1     0     0
SMALL
bcc


@<TRIPOS>ATOM
      1 C          -0.0500   -0.8410    0.2980 c1        1 22W      0.135000
      2 N          -4.1040    0.7490   -2.9080 n4        1 22W     -0.842600
      3 O          -3.2440    0.8430    0.5250 os        1 22W     -0.431700
      4 S           1.2180   -1.3710    0.4990 s         1 22W      0.385100
      5 CA         -4.4920    0.3100   -1.5170 c3        1 22W      0.137200
      6 CB         -5.3040   -1.0050   -1.5200 c3        1 22W     -0.079700
      7 NB         -2.1380   -0.5060   -0.9780 nc        1 22W     -0.506300
      8 CE         -3.2430    0.1680   -0.7070 cd        1 22W      0.427600
      9 CF         -1.2800   -0.3160    0.1350 cc        1 22W     -0.211700
     10 C83        -1.9770    0.5480    1.1150 c         1 22W      0.725800
     11 CG1        -6.4660   -0.9360   -2.5010 c3        1 22W     -0.091400
     12 CG2        -5.7930   -1.2430   -0.1030 c3        1 22W     -0.102100
     13 HNA        -3.5130    1.5840   -2.8560 hn        1 22W      0.464800
     14 HA         -5.1250    1.1380   -1.0660 hx        1 22W      0.138700
     15 HB         -4.6230   -1.8520   -1.8160 hc        1 22W      0.086700
     16 HD1        -7.9440   -2.1040   -1.4150 hc        1 22W      0.056700
     17 HD1A       -6.8010   -3.0830   -2.4270 hc        1 22W      0.056700
     18 HD1B       -8.1240   -2.1250   -3.2160 hc        1 22W      0.056700
     19 HG1        -7.0560    0.0020   -2.3250 hc        1 22W      0.034200
     20 HG1A       -6.0770   -0.9080   -3.5550 hc        1 22W      0.034200
     21 HG2        -6.1700   -2.2920   -0.0110 hc        1 22W      0.066033
     22 HG2A       -4.9660   -1.1000    0.6350 hc        1 22W      0.066033
     23 HG2B       -6.6250   -0.5430    0.1530 hc        1 22W      0.066033
     24 O26        -1.7650    1.0380    2.2070 o         1 22W     -0.506500
     25 CD1        -7.3820   -2.1300   -2.3800 c3        1 22W     -0.097100
     26 H2         -4.9500    0.9540   -3.4470 hn        1 22W      0.464800
     27 HN         -3.5810   -0.0020   -3.3730 hn        1 22W      0.464800
@<TRIPOS>BOND
     1    1    4 2   
     2    1    9 2   
     3    2    5 1   
     4    2   13 1   
     5    2   26 1   
     6    2   27 1   
     7    3    8 1   
     8    3   10 1   
     9    5    6 1   
    10    5    8 1   
    11    5   14 1   
    12    6   11 1   
    13    6   12 1   
    14    6   15 1   
    15    7    8 2   
    16    7    9 1   
    17    9   10 1   
    18   10   24 2   
    19   11   19 1   
    20   11   20 1   
    21   11   25 1   
    22   12   21 1   
    23   12   22 1   
    24   12   23 1   
    25   16   25 1   
    26   17   25 1   
    27   18   25 1   
@<TRIPOS>SUBSTRUCTURE
     1 22W         1 TEMP              0 ****  ****    0 ROOT
