@<TRIPOS>MOLECULE
22X
   84    86     1     0     0
SMALL
bcc


@<TRIPOS>ATOM
      1 C1          0.2000    0.1940    0.0260 c3        1 22X      0.218100
      2 N1         -0.2560    5.1650    0.4500 n4        1 22X     -0.691800
      3 O1          1.6090    0.3020   -0.1680 oh        1 22X     -0.575800
      4 CL1        -3.1900    0.0060    3.9430 cl        1 22X     -0.049400
      5 C2         -0.0430    0.0890    1.5170 ca        1 22X     -0.123300
      6 N2         -4.3770   -2.0880   -6.0120 n4        1 22X     -0.759000
      7 O2         -2.2300   -1.5880   -4.1530 o         1 22X     -0.615100
      8 C3          1.0240   -0.0300    2.4140 ca        1 22X     -0.104000
      9 N3         -1.6750   -3.8330   -4.4490 n4        1 22X     -0.669800
     10 O3         -1.5390    6.3310   -1.1140 o         1 22X     -0.395100
     11 C4         -1.3580    0.0970    1.9990 ca        1 22X     -0.151000
     12 N4         -0.4790   -2.3690   -2.8160 n         1 22X     -0.380800
     13 C5          0.7760   -0.1380    3.7840 ca        1 22X     -0.110000
     14 C6         -1.5960   -0.0090    3.3720 ca        1 22X      0.012400
     15 C7         -0.5290   -0.1280    4.2710 ca        1 22X     -0.094000
     16 C8         -0.4850    1.4570   -0.5340 c3        1 22X     -0.101400
     17 C9         -0.0050    2.6800    0.2290 c3        1 22X     -0.113400
     18 C10        -0.6440    3.9470   -0.3210 c3        1 22X      0.106800
     19 C11        -0.8800    6.4530   -0.0980 c         1 22X      0.562100
     20 C12        -0.5890    7.6740    0.7020 c3        1 22X     -0.193100
     21 C13        -2.4460   -3.7280   -5.7390 c3        1 22X      0.124500
     22 C14        -3.9540   -3.4330   -5.5240 c3        1 22X      0.089800
     23 C15        -2.3220   -5.0300   -6.5510 c3        1 22X     -0.118400
     24 C16        -0.8990   -5.4870   -6.8410 c3        1 22X     -0.084700
     25 C17        -0.9640   -6.6970   -7.7770 c3        1 22X     -0.075900
     26 C18         0.4250   -7.2100   -8.0920 c3        1 22X     -0.080400
     27 C19         1.2930   -6.1220   -8.6890 c3        1 22X     -0.086400
     28 C20        -0.0460   -4.3940   -7.4660 c3        1 22X     -0.075900
     29 C21         1.3460   -4.9050   -7.7890 c3        1 22X     -0.080400
     30 C22        -1.4670   -2.4840   -3.7370 c         1 22X      0.648100
     31 C23         0.1200   -3.5890   -0.7410 c3        1 22X     -0.098400
     32 C24         0.4780   -2.2830   -0.0780 c3        1 22X     -0.093400
     33 C25        -0.3260   -1.1130   -0.6330 c3        1 22X     -0.105700
     34 C26        -0.2500   -1.0680   -2.1660 c3        1 22X      0.082000
     35 C27         0.2840   -3.4810   -2.2550 c3        1 22X      0.059000
     36 C28        -5.8490   -1.9090   -5.9140 c3        1 22X      0.076100
     37 HN1        -0.5430    5.0560    1.4290 hn        1 22X      0.462300
     38 HO1         1.7610    0.5040   -1.0990 ho        1 22X      0.402000
     39 HN2        -4.0910   -1.9750   -6.9940 hn        1 22X      0.471300
     40 H3          2.0610   -0.0450    2.0420 ha        1 22X      0.165000
     41 HN3        -0.7550   -4.2410   -4.6920 hn        1 22X      0.476800
     42 H4         -2.2080    0.1780    1.3050 ha        1 22X      0.131000
     43 H5          1.6210   -0.2370    4.4870 ha        1 22X      0.169000
     44 H7         -0.7210   -0.2190    5.3540 ha        1 22X      0.178000
     45 H8         -1.5950    1.3510   -0.4400 hc        1 22X      0.053700
     46 H8A        -0.2350    1.5690   -1.6210 hc        1 22X      0.053700
     47 H9         -0.2640    2.5510    1.3160 hc        1 22X      0.087200
     48 H9A         1.1160    2.7360    0.1540 hc        1 22X      0.087200
     49 H10        -0.3390    4.1120   -1.3950 hx        1 22X      0.109200
     50 H10A       -1.7690    3.8680   -0.2860 hx        1 22X      0.109200
     51 H12        -1.0100    8.5640    0.1560 hc        1 22X      0.126367
     52 H12A        0.5130    7.8280    0.8340 hc        1 22X      0.126367
     53 H12B       -1.0770    7.6150    1.7090 hc        1 22X      0.126367
     54 H13        -1.9460   -2.8930   -6.3240 hx        1 22X      0.128700
     55 H14        -4.2460   -3.5020   -4.4360 hx        1 22X      0.130700
     56 H14A       -4.5620   -4.2040   -6.0900 hx        1 22X      0.130700
     57 H15        -2.8730   -5.8600   -6.0320 hc        1 22X      0.094200
     58 H15A       -2.8380   -4.8400   -7.5340 hc        1 22X      0.094200
     59 H16        -0.4080   -5.8370   -5.8890 hc        1 22X      0.036700
     60 H17        -1.4800   -6.4030   -8.7290 hc        1 22X      0.042200
     61 H17A       -1.5670   -7.5100   -7.2950 hc        1 22X      0.042200
     62 H18         0.3440   -8.0640   -8.8160 hc        1 22X      0.061450
     63 H18A        0.9030   -7.6090   -7.1590 hc        1 22X      0.061450
     64 H19         2.3330   -6.5150   -8.8440 hc        1 22X      0.071200
     65 H19A        0.8930   -5.8300   -9.6960 hc        1 22X      0.071200
     66 H20        -0.5340   -4.0300   -8.4090 hc        1 22X      0.042200
     67 H20A        0.0400   -3.5200   -6.7660 hc        1 22X      0.042200
     68 H21         1.8800   -5.1650   -6.8380 hc        1 22X      0.061450
     69 H21A        1.9290   -4.0900   -8.2940 hc        1 22X      0.061450
     70 H23         0.8070   -4.4010   -0.3780 hc        1 22X      0.084200
     71 H23A       -0.9270   -3.8900   -0.4770 hc        1 22X      0.084200
     72 H24         0.2930   -2.3620    1.0290 hc        1 22X      0.093700
     73 H24A        1.5750   -2.0720   -0.2100 hc        1 22X      0.093700
     74 H25        -1.4050   -1.2280   -0.3320 hc        1 22X      0.076700
     75 H26        -0.9980   -0.3220   -2.5590 h1        1 22X      0.084700
     76 H26A        0.7870   -0.7550   -2.4860 h1        1 22X      0.084700
     77 H27         0.0050   -4.4650   -2.7190 h1        1 22X      0.075700
     78 H27A        1.3710   -3.2770   -2.4980 h1        1 22X      0.075700
     79 H28        -6.1130   -0.8800   -6.2900 hx        1 22X      0.124367
     80 H28A       -6.3730   -2.6790   -6.5440 hx        1 22X      0.124367
     81 H28B       -6.1750   -2.0120   -4.8440 hx        1 22X      0.124367
     82 H121        0.7650    5.2680    0.4340 hn        1 22X      0.462300
     83 H22        -3.9020   -1.3580   -5.4560 hn        1 22X      0.471300
     84 H32        -2.1540   -4.4770   -3.8090 hn        1 22X      0.476800
@<TRIPOS>BOND
     1    1    3 1   
     2    1    5 1   
     3    1   16 1   
     4    1   33 1   
     5    2   18 1   
     6    2   19 1   
     7    2   37 1   
     8    2   82 1   
     9    3   38 1   
    10    4   14 1   
    11    5    8 ar  
    12    5   11 ar  
    13    6   22 1   
    14    6   36 1   
    15    6   39 1   
    16    6   83 1   
    17    7   30 2   
    18    8   13 ar  
    19    8   40 1   
    20    9   21 1   
    21    9   30 1   
    22    9   41 1   
    23    9   84 1   
    24   10   19 2   
    25   11   14 ar  
    26   11   42 1   
    27   12   30 1   
    28   12   34 1   
    29   12   35 1   
    30   13   15 ar  
    31   13   43 1   
    32   14   15 ar  
    33   15   44 1   
    34   16   17 1   
    35   16   45 1   
    36   16   46 1   
    37   17   18 1   
    38   17   47 1   
    39   17   48 1   
    40   18   49 1   
    41   18   50 1   
    42   19   20 1   
    43   20   51 1   
    44   20   52 1   
    45   20   53 1   
    46   21   22 1   
    47   21   23 1   
    48   21   54 1   
    49   22   55 1   
    50   22   56 1   
    51   23   24 1   
    52   23   57 1   
    53   23   58 1   
    54   24   25 1   
    55   24   28 1   
    56   24   59 1   
    57   25   26 1   
    58   25   60 1   
    59   25   61 1   
    60   26   27 1   
    61   26   62 1   
    62   26   63 1   
    63   27   29 1   
    64   27   64 1   
    65   27   65 1   
    66   28   29 1   
    67   28   66 1   
    68   28   67 1   
    69   29   68 1   
    70   29   69 1   
    71   31   32 1   
    72   31   35 1   
    73   31   70 1   
    74   31   71 1   
    75   32   33 1   
    76   32   72 1   
    77   32   73 1   
    78   33   34 1   
    79   33   74 1   
    80   34   75 1   
    81   34   76 1   
    82   35   77 1   
    83   35   78 1   
    84   36   79 1   
    85   36   80 1   
    86   36   81 1   
@<TRIPOS>SUBSTRUCTURE
     1 22X         1 TEMP              0 ****  ****    0 ROOT
