@<TRIPOS>MOLECULE
22X
   84    86     1     0     0
SMALL
bcc


@<TRIPOS>ATOM
      1 C1          0.2050    0.1980    0.0200 c3        1 22X      0.218100
      2 N1         -0.2580    5.1690    0.4430 ny        1 22X     -0.691800
      3 O1          1.6120    0.3070   -0.1840 oh        1 22X     -0.575800
      4 Cl1        -3.1590    0.0090    3.9600 cl        1 22X     -0.049400
      5 C2         -0.0280    0.0940    1.5130 ca        1 22X     -0.123300
      6 N2         -4.3790   -2.0890   -6.0160 ny        1 22X     -0.759000
      7 O2         -2.2340   -1.5890   -4.1540 o         1 22X     -0.615100
      8 C3          1.0450   -0.0210    2.4030 ca        1 22X     -0.104000
      9 N3         -1.6820   -3.8360   -4.4470 ny        1 22X     -0.668800
     10 O3         -1.5520    6.3310   -1.1140 o         1 22X     -0.395100
     11 C4         -1.3400    0.1010    2.0030 ca        1 22X     -0.151000
     12 N4         -0.4870   -2.3710   -2.8130 n         1 22X     -0.380800
     13 C5          0.8070   -0.1270    3.7750 ca        1 22X     -0.110000
     14 C6         -1.5690   -0.0040    3.3780 ca        1 22X      0.012400
     15 C7         -0.4950   -0.1190    4.2710 ca        1 22X     -0.094000
     16 C8         -0.4850    1.4590   -0.5370 c3        1 22X     -0.101400
     17 C9         -0.0010    2.6840    0.2210 c3        1 22X     -0.113400
     18 C10        -0.6490    3.9490   -0.3250 c3        1 22X      0.106800
     19 C11        -0.8890    6.4550   -0.1010 c         1 22X      0.562100
     20 C12        -0.6000    7.6760    0.6990 c3        1 22X     -0.193100
     21 C13        -2.4510   -3.7310   -5.7380 c3        1 22X      0.124500
     22 C14        -3.9580   -3.4330   -5.5260 c3        1 22X      0.089800
     23 C15        -2.3270   -5.0350   -6.5480 c3        1 22X     -0.118400
     24 C16        -0.9050   -5.4950   -6.8350 c3        1 22X     -0.084700
     25 C17        -0.9710   -6.7050   -7.7690 c3        1 22X     -0.075900
     26 C18         0.4190   -7.2210   -8.0810 c3        1 22X     -0.080400
     27 C19         1.2890   -6.1360   -8.6780 c3        1 22X     -0.086400
     28 C20        -0.0490   -4.4040   -7.4600 c3        1 22X     -0.075900
     29 C21         1.3430   -4.9180   -7.7800 c3        1 22X     -0.080400
     30 C22        -1.4730   -2.4860   -3.7360 c         1 22X      0.648100
     31 C23         0.1200   -3.5870   -0.7380 c3        1 22X     -0.098400
     32 C24         0.4820   -2.2790   -0.0800 c3        1 22X     -0.093400
     33 C25        -0.3240   -1.1110   -0.6340 c3        1 22X     -0.105700
     34 C26        -0.2550   -1.0690   -2.1670 c3        1 22X      0.083000
     35 C27         0.2770   -3.4840   -2.2530 c3        1 22X      0.059000
     36 C28        -5.8510   -1.9070   -5.9210 c3        1 22X      0.076100
     37 HN1         0.7630    5.2740    0.4190 hn        1 22X      0.462300
     38 HO1         1.7580    0.5110   -1.1150 ho        1 22X      0.402000
     39 HN2        -4.0910   -1.9770   -6.9980 hn        1 22X      0.471300
     40 H3          2.0800   -0.0340    2.0230 ha        1 22X      0.165000
     41 HN3        -0.7620   -4.2450   -4.6870 hn        1 22X      0.476800
     42 H4         -2.1950    0.1790    1.3150 ha        1 22X      0.131000
     43 H5          1.6570   -0.2230    4.4710 ha        1 22X      0.169000
     44 H7         -0.6790   -0.2090    5.3550 ha        1 22X      0.178000
     45 H8         -1.5950    1.3520   -0.4350 hc        1 22X      0.053700
     46 H8A        -0.2430    1.5700   -1.6260 hc        1 22X      0.053700
     47 H9          1.1180    2.7430    0.1360 hc        1 22X      0.087200
     48 H9A        -0.2510    2.5550    1.3100 hc        1 22X      0.087200
     49 H10        -0.3530    4.1150   -1.4010 hx        1 22X      0.109200
     50 H10A       -1.7730    3.8670   -0.2800 hx        1 22X      0.109200
     51 H12         0.5010    7.8320    0.8320 hc        1 22X      0.126033
     52 H12A       -1.0230    8.5650    0.1540 hc        1 22X      0.126033
     53 H12B       -1.0890    7.6150    1.7070 hc        1 22X      0.126033
     54 H13        -1.9490   -2.8980   -6.3230 hx        1 22X      0.128700
     55 H14        -4.5670   -4.2050   -6.0920 hx        1 22X      0.130700
     56 H14A       -4.2530   -3.5010   -4.4380 hx        1 22X      0.130700
     57 H15        -2.8810   -5.8630   -6.0290 hc        1 22X      0.094200
     58 H15A       -2.8420   -4.8460   -7.5320 hc        1 22X      0.094200
     59 H16        -0.4160   -5.8450   -5.8810 hc        1 22X      0.036700
     60 H17        -1.4840   -6.4120   -8.7230 hc        1 22X      0.042200
     61 H17A       -1.5760   -7.5170   -7.2880 hc        1 22X      0.042200
     62 H18         0.8940   -7.6200   -7.1460 hc        1 22X      0.061450
     63 H18A        0.3370   -8.0770   -8.8040 hc        1 22X      0.061450
     64 H19         2.3290   -6.5310   -8.8300 hc        1 22X      0.071200
     65 H19A        0.8920   -5.8440   -9.6860 hc        1 22X      0.071200
     66 H20         0.0370   -3.5290   -6.7610 hc        1 22X      0.042200
     67 H20A       -0.5350   -4.0410   -8.4040 hc        1 22X      0.042200
     68 H21         1.9280   -4.1050   -8.2850 hc        1 22X      0.061450
     69 H21A        1.8750   -5.1770   -6.8270 hc        1 22X      0.061450
     70 H23         0.8080   -4.3990   -0.3750 hc        1 22X      0.084700
     71 H23A       -0.9270   -3.8860   -0.4680 hc        1 22X      0.084700
     72 H24         0.3030   -2.3560    1.0280 hc        1 22X      0.093700
     73 H24A        1.5790   -2.0700   -0.2180 hc        1 22X      0.093700
     74 H25        -1.4010   -1.2250   -0.3280 hc        1 22X      0.076700
     75 H26        -1.0040   -0.3240   -2.5590 h1        1 22X      0.084700
     76 H26A        0.7810   -0.7580   -2.4920 h1        1 22X      0.084700
     77 H27        -0.0070   -4.4680   -2.7120 h1        1 22X      0.075700
     78 H27A        1.3630   -3.2830   -2.5010 h1        1 22X      0.075700
     79 H28        -6.3750   -2.6780   -6.5510 hx        1 22X      0.124367
     80 H28A       -6.1780   -2.0090   -4.8510 hx        1 22X      0.124367
     81 H28B       -6.1120   -0.8780   -6.2980 hx        1 22X      0.124367
     82 H121       -0.5370    5.0580    1.4250 hn        1 22X      0.462300
     83 H22        -3.9040   -1.3590   -5.4600 hn        1 22X      0.471300
     84 H32        -2.1630   -4.4780   -3.8060 hn        1 22X      0.476800
@<TRIPOS>BOND
     1    1    3 1   
     2    1    5 1   
     3    1   16 1   
     4    1   33 1   
     5    2   18 1   
     6    2   19 1   
     7    2   37 1   
     8    2   82 1   
     9    3   38 1   
    10    4   14 1   
    11    5    8 ar  
    12    5   11 ar  
    13    6   22 1   
    14    6   36 1   
    15    6   39 1   
    16    6   83 1   
    17    7   30 2   
    18    8   13 ar  
    19    8   40 1   
    20    9   21 1   
    21    9   30 1   
    22    9   41 1   
    23    9   84 1   
    24   10   19 2   
    25   11   14 ar  
    26   11   42 1   
    27   12   30 1   
    28   12   34 1   
    29   12   35 1   
    30   13   15 ar  
    31   13   43 1   
    32   14   15 ar  
    33   15   44 1   
    34   16   17 1   
    35   16   45 1   
    36   16   46 1   
    37   17   18 1   
    38   17   47 1   
    39   17   48 1   
    40   18   49 1   
    41   18   50 1   
    42   19   20 1   
    43   20   51 1   
    44   20   52 1   
    45   20   53 1   
    46   21   22 1   
    47   21   23 1   
    48   21   54 1   
    49   22   55 1   
    50   22   56 1   
    51   23   24 1   
    52   23   57 1   
    53   23   58 1   
    54   24   25 1   
    55   24   28 1   
    56   24   59 1   
    57   25   26 1   
    58   25   60 1   
    59   25   61 1   
    60   26   27 1   
    61   26   62 1   
    62   26   63 1   
    63   27   29 1   
    64   27   64 1   
    65   27   65 1   
    66   28   29 1   
    67   28   66 1   
    68   28   67 1   
    69   29   68 1   
    70   29   69 1   
    71   31   32 1   
    72   31   35 1   
    73   31   70 1   
    74   31   71 1   
    75   32   33 1   
    76   32   72 1   
    77   32   73 1   
    78   33   34 1   
    79   33   74 1   
    80   34   75 1   
    81   34   76 1   
    82   35   77 1   
    83   35   78 1   
    84   36   79 1   
    85   36   80 1   
    86   36   81 1   
@<TRIPOS>SUBSTRUCTURE
     1 22X         1 TEMP              0 ****  ****    0 ROOT
