@<TRIPOS>MOLECULE
22X
   84    86     1     0     0
SMALL
bcc


@<TRIPOS>ATOM
      1 C1          0.1000    0.2400   -0.1670 c3        1 22X      0.220100
      2 N1         -0.6000    5.1560    0.5730 n4        1 22X     -0.690800
      3 O1          1.1760    0.5040   -1.0610 oh        1 22X     -0.604800
      4 CL1        -1.1520   -0.6460    4.7830 cl        1 22X     -0.036400
      5 C2          0.5440    0.1550    1.2760 ca        1 22X     -0.152300
      6 N2         -4.0400   -1.7370   -6.7600 n4        1 22X     -0.760000
      7 O2         -2.3980   -1.4620   -4.4120 o         1 22X     -0.607100
      8 C3          1.8660    0.4230    1.6500 ca        1 22X     -0.136000
      9 N3         -2.0910   -3.7690   -4.5660 n4        1 22X     -0.671800
     10 O3         -2.4550    6.2240   -0.3580 o         1 22X     -0.395100
     11 C4         -0.3950   -0.1720    2.2640 ca        1 22X     -0.141000
     12 N4         -1.2300   -2.4330   -2.6320 n         1 22X     -0.374800
     13 C5          2.2500    0.3380    2.9890 ca        1 22X     -0.105000
     14 C6         -0.0060   -0.2480    3.6040 ca        1 22X      0.018400
     15 C7          1.3230   -0.0000    3.9720 ca        1 22X     -0.095000
     16 C8         -0.8610    1.4360   -0.3310 c3        1 22X     -0.062400
     17 C9         -0.1820    2.7300    0.0810 c3        1 22X     -0.110400
     18 C10        -1.1860    3.8750    0.0810 c3        1 22X      0.103800
     19 C11        -1.5690    6.3380    0.4700 c         1 22X      0.562100
     20 C12        -1.2850    7.4620    1.4020 c3        1 22X     -0.193100
     21 C13        -2.4770   -3.6070   -6.0120 c3        1 22X      0.124500
     22 C14        -3.9360   -3.1150   -6.2000 c3        1 22X      0.088800
     23 C15        -2.3180   -4.9390   -6.7690 c3        1 22X     -0.118400
     24 C16        -0.9420   -5.5840   -6.6760 c3        1 22X     -0.084700
     25 C17        -0.9200   -6.8030   -7.6020 c3        1 22X     -0.075900
     26 C18         0.4230   -7.5000   -7.5430 c3        1 22X     -0.080400
     27 C19         1.5520   -6.5510   -7.8860 c3        1 22X     -0.086400
     28 C20         0.1810   -4.6290   -7.0500 c3        1 22X     -0.075900
     29 C21         1.5290   -5.3240   -6.9990 c3        1 22X     -0.080400
     30 C22        -1.8810   -2.4340   -3.8270 c         1 22X      0.642100
     31 C23        -0.4280   -3.5710   -0.5560 c3        1 22X     -0.085400
     32 C24         0.2530   -2.2860   -0.1620 c3        1 22X     -0.095400
     33 C25        -0.5900   -1.0930   -0.5810 c3        1 22X     -0.095700
     34 C26        -0.8300   -1.1190   -2.0980 c3        1 22X      0.085000
     35 C27        -0.6490   -3.6440   -2.0650 c3        1 22X      0.057000
     36 C28        -5.4500   -1.3690   -7.0520 c3        1 22X      0.076100
     37 HN1         0.2370    5.3780    0.0190 hn        1 22X      0.460300
     38 HO1         1.8900   -0.1160   -0.8590 ho        1 22X      0.427000
     39 HN2        -3.6410   -1.0620   -6.0860 hn        1 22X      0.471800
     40 H3          2.6170    0.7110    0.8970 ha        1 22X      0.144000
     41 HN3        -1.2080   -4.3080   -4.5510 hn        1 22X      0.475300
     42 H4         -1.4420   -0.3730    1.9910 ha        1 22X      0.140000
     43 H5          3.2980    0.5360    3.2710 ha        1 22X      0.167000
     44 H7          1.6320   -0.0730    5.0290 ha        1 22X      0.180000
     45 H8         -1.7660    1.2490    0.3040 hc        1 22X      0.059200
     46 H8A        -1.1810    1.5070   -1.4020 hc        1 22X      0.059200
     47 H9          0.6600    2.9380   -0.6330 hc        1 22X      0.084200
     48 H9A         0.2660    2.6010    1.1050 hc        1 22X      0.084200
     49 H10        -1.5750    4.0540   -0.9640 hx        1 22X      0.111200
     50 H10A       -2.0640    3.6290    0.7460 hx        1 22X      0.111200
     51 H12        -1.9220    8.3410    1.1030 hc        1 22X      0.126033
     52 H12A       -0.2100    7.7740    1.3690 hc        1 22X      0.126033
     53 H12B       -1.5540    7.1740    2.4520 hc        1 22X      0.126033
     54 H13        -1.7370   -2.8610   -6.4420 hx        1 22X      0.128700
     55 H14        -4.5140   -3.1270   -5.2300 hx        1 22X      0.130700
     56 H14A       -4.4670   -3.8120   -6.9200 hx        1 22X      0.130700
     57 H15        -3.0910   -5.6750   -6.4160 hc        1 22X      0.094200
     58 H15A       -2.5300   -4.7150   -7.8520 hc        1 22X      0.094200
     59 H16        -0.7670   -5.9650   -5.6300 hc        1 22X      0.036700
     60 H17        -1.1260   -6.4750   -8.6550 hc        1 22X      0.042450
     61 H17A       -1.7300   -7.5170   -7.2990 hc        1 22X      0.042450
     62 H18         0.4210   -8.3580   -8.2670 hc        1 22X      0.061200
     63 H18A        0.5840   -7.9280   -6.5190 hc        1 22X      0.061200
     64 H19         1.4710   -6.2400   -8.9610 hc        1 22X      0.071200
     65 H19A        2.5350   -7.0790   -7.7650 hc        1 22X      0.071200
     66 H20         0.0080   -4.2340   -8.0860 hc        1 22X      0.042450
     67 H20A        0.1960   -3.7530   -6.3480 hc        1 22X      0.042450
     68 H21         2.3260   -4.6070   -7.3290 hc        1 22X      0.061200
     69 H21A        1.7570   -5.6220   -5.9420 hc        1 22X      0.061200
     70 H23        -1.4090   -3.6670   -0.0190 hc        1 22X      0.090700
     71 H23A        0.2060   -4.4520   -0.2650 hc        1 22X      0.090700
     72 H24         1.2690   -2.2240   -0.6350 hc        1 22X      0.082200
     73 H24A        0.4000   -2.2760    0.9530 hc        1 22X      0.082200
     74 H25        -1.5820   -1.1430   -0.0530 hc        1 22X      0.080700
     75 H26        -1.6420   -0.3810   -2.3580 h1        1 22X      0.089700
     76 H26A        0.1220   -0.8110   -2.6250 h1        1 22X      0.089700
     77 H27        -1.3320   -4.5220   -2.2510 h1        1 22X      0.062200
     78 H27A        0.3440   -3.8330   -2.5720 h1        1 22X      0.062200
     79 H28        -6.0570   -1.4110   -6.1070 hx        1 22X      0.124033
     80 H28A       -5.8830   -2.0780   -7.8100 hx        1 22X      0.124033
     81 H28B       -5.4710   -0.3220   -7.4670 hx        1 22X      0.124033
     82 H121       -0.3090    5.0480    1.5500 hn        1 22X      0.460300
     83 H22        -3.4920   -1.6780   -7.6290 hn        1 22X      0.471800
     84 H32        -2.8070   -4.3170   -4.0740 hn        1 22X      0.475300
@<TRIPOS>BOND
     1    1    3 1   
     2    1    5 1   
     3    1   16 1   
     4    1   33 1   
     5    2   18 1   
     6    2   19 1   
     7    2   37 1   
     8    2   82 1   
     9    3   38 1   
    10    4   14 1   
    11    5    8 ar  
    12    5   11 ar  
    13    6   22 1   
    14    6   36 1   
    15    6   39 1   
    16    6   83 1   
    17    7   30 2   
    18    8   13 ar  
    19    8   40 1   
    20    9   21 1   
    21    9   30 1   
    22    9   41 1   
    23    9   84 1   
    24   10   19 2   
    25   11   14 ar  
    26   11   42 1   
    27   12   30 1   
    28   12   34 1   
    29   12   35 1   
    30   13   15 ar  
    31   13   43 1   
    32   14   15 ar  
    33   15   44 1   
    34   16   17 1   
    35   16   45 1   
    36   16   46 1   
    37   17   18 1   
    38   17   47 1   
    39   17   48 1   
    40   18   49 1   
    41   18   50 1   
    42   19   20 1   
    43   20   51 1   
    44   20   52 1   
    45   20   53 1   
    46   21   22 1   
    47   21   23 1   
    48   21   54 1   
    49   22   55 1   
    50   22   56 1   
    51   23   24 1   
    52   23   57 1   
    53   23   58 1   
    54   24   25 1   
    55   24   28 1   
    56   24   59 1   
    57   25   26 1   
    58   25   60 1   
    59   25   61 1   
    60   26   27 1   
    61   26   62 1   
    62   26   63 1   
    63   27   29 1   
    64   27   64 1   
    65   27   65 1   
    66   28   29 1   
    67   28   66 1   
    68   28   67 1   
    69   29   68 1   
    70   29   69 1   
    71   31   32 1   
    72   31   35 1   
    73   31   70 1   
    74   31   71 1   
    75   32   33 1   
    76   32   72 1   
    77   32   73 1   
    78   33   34 1   
    79   33   74 1   
    80   34   75 1   
    81   34   76 1   
    82   35   77 1   
    83   35   78 1   
    84   36   79 1   
    85   36   80 1   
    86   36   81 1   
@<TRIPOS>SUBSTRUCTURE
     1 22X         1 TEMP              0 ****  ****    0 ROOT
