@<TRIPOS>MOLECULE
22Y
   44    46     1     0     0
SMALL
bcc


@<TRIPOS>ATOM
      1 C1          0.4690    1.7950    0.3000 c3        1 22Y     -0.139100
      2 C2          1.4030    0.6020    0.2160 c3        1 22Y      0.208800
      3 C4          1.9440    0.1950    1.5490 ca        1 22Y     -0.205300
      4 C5          2.4880    1.1380    2.4320 ca        1 22Y     -0.099500
      5 C6          2.9580    0.7360    3.6780 ca        1 22Y     -0.113500
      6 C7          2.8880   -0.6090    4.0530 ca        1 22Y     -0.067000
      7 C8          2.3490   -1.5510    3.1750 ca        1 22Y     -0.113500
      8 C9          1.8810   -1.1540    1.9230 ca        1 22Y     -0.099500
      9 N10         2.5940    0.8730   -0.7100 n4        1 22Y     -0.775700
     10 C11         2.2030    0.9810   -2.1320 ca        1 22Y      0.475900
     11 C12         1.9780    2.2240   -2.7900 ca        1 22Y      0.202900
     12 N13         1.6300    2.2430   -4.1300 nb        1 22Y     -0.589000
     13 C14         1.5240    1.0920   -4.7580 ca        1 22Y      0.339900
     14 C15         1.7570   -0.2040   -4.1030 cp        1 22Y      0.535500
     15 N16         2.0900   -0.2000   -2.7750 nb        1 22Y     -0.679000
     16 C17         1.6610   -1.4040   -4.8610 cp        1 22Y     -0.257500
     17 C18         1.8590   -1.3080   -6.2670 ca        1 22Y     -0.031000
     18 C19         1.8050   -2.4220   -7.0870 ca        1 22Y     -0.167600
     19 C20         1.5540   -3.6810   -6.5370 ca        1 22Y      0.038000
     20 C21         1.3630   -3.8140   -5.1510 ca        1 22Y     -0.165000
     21 C22         1.4130   -2.7020   -4.3220 ca        1 22Y      0.089400
     22 CL1         1.0950   -2.9420   -2.6670 cl        1 22Y     -0.097400
     23 C24         2.0300   -2.2250   -8.6070 c         1 22Y      0.925200
     24 O25         2.2600   -1.0400   -8.9580 o         1 22Y     -0.773300
     25 O26         1.9580   -3.2550   -9.3120 o         1 22Y     -0.773300
     26 N27         2.0800    3.5380   -2.1540 n4        1 22Y     -0.796300
     27 H1         -0.0000    2.0150   -0.6900 hc        1 22Y      0.075033
     28 H2          0.9770    2.7060    0.6990 hc        1 22Y      0.075033
     29 H3         -0.3550    1.5290    1.0160 hc        1 22Y      0.075033
     30 H4          0.8460   -0.2690   -0.2590 hx        1 22Y      0.139700
     31 H5          2.5310    2.2020    2.1560 ha        1 22Y      0.136000
     32 H6          3.3800    1.4790    4.3740 ha        1 22Y      0.166500
     33 H7          3.2560   -0.9240    5.0440 ha        1 22Y      0.169000
     34 H8          2.2900   -2.6120    3.4710 ha        1 22Y      0.166500
     35 H9          1.4520   -1.9050    1.2390 ha        1 22Y      0.136000
     36 H10         3.0850    1.7130   -0.4060 hn        1 22Y      0.460300
     37 H11         1.2240    1.1380   -5.8310 h4        1 22Y      0.114100
     38 H12         2.1140   -0.3520   -6.7650 ha        1 22Y      0.182000
     39 H13         1.5100   -4.5560   -7.2150 ha        1 22Y      0.201000
     40 H14         1.1600   -4.8120   -4.7270 ha        1 22Y      0.166000
     41 H16         1.5110    3.5600   -1.3010 hn        1 22Y      0.468467
     42 H17         3.0600    3.7480   -1.9400 hn        1 22Y      0.468467
     43 H102        3.2430    0.0700   -0.5990 hn        1 22Y      0.460300
     44 H273        1.7300    4.2640   -2.8050 hn        1 22Y      0.468467
@<TRIPOS>BOND
     1    1    2 1   
     2    1   27 1   
     3    1   28 1   
     4    1   29 1   
     5    2    3 1   
     6    2    9 1   
     7    2   30 1   
     8    3    4 ar  
     9    3    8 ar  
    10    4    5 ar  
    11    4   31 1   
    12    5    6 ar  
    13    5   32 1   
    14    6    7 ar  
    15    6   33 1   
    16    7    8 ar  
    17    7   34 1   
    18    8   35 1   
    19    9   10 1   
    20    9   36 1   
    21    9   43 1   
    22   10   11 ar  
    23   10   15 ar  
    24   11   12 ar  
    25   11   26 1   
    26   12   13 ar  
    27   13   14 ar  
    28   13   37 1   
    29   14   15 ar  
    30   14   16 1   
    31   16   17 ar  
    32   16   21 ar  
    33   17   18 ar  
    34   17   38 1   
    35   18   19 ar  
    36   18   23 1   
    37   19   20 ar  
    38   19   39 1   
    39   20   21 ar  
    40   20   40 1   
    41   21   22 1   
    42   23   24 1   
    43   23   25 1   
    44   26   41 1   
    45   26   42 1   
    46   26   44 1   
@<TRIPOS>SUBSTRUCTURE
     1 22Y         1 TEMP              0 ****  ****    0 ROOT
