@<TRIPOS>MOLECULE
22Y
   42    44     1     0     0
SMALL
bcc


@<TRIPOS>ATOM
      1 C1          2.4580    0.6070   -1.8990 c3        1 22Y     -0.121100
      2 C2          2.7840    0.2980   -0.4350 c3        1 22Y      0.232800
      3 C4          4.2570    0.5610   -0.2040 ca        1 22Y     -0.069300
      4 C5          4.6470    1.5750    0.6770 ca        1 22Y     -0.120000
      5 C6          5.9990    1.8430    0.8830 ca        1 22Y     -0.134000
      6 C7          6.9710    1.0970    0.2180 ca        1 22Y     -0.138000
      7 C8          6.5870    0.0800   -0.6560 ca        1 22Y     -0.134000
      8 C9          5.2350   -0.1870   -0.8670 ca        1 22Y     -0.120000
      9 N10         2.4540   -1.0550    0.0030 nh        1 22Y     -0.807900
     10 C11         1.0970   -1.4010    0.2240 ca        1 22Y      0.485900
     11 C12         0.7940   -2.7560    0.6810 ca        1 22Y      0.433900
     12 N13        -0.4880   -3.1060    0.9930 nb        1 22Y     -0.674000
     13 C14        -1.4390   -2.1740    0.8550 ca        1 22Y      0.288900
     14 C15        -1.1560   -0.8460    0.4180 cp        1 22Y      0.388500
     15 N16         0.1030   -0.4750    0.0970 nb        1 22Y     -0.660000
     16 C17        -2.2700    0.1060    0.2990 cp        1 22Y     -0.180500
     17 C18        -3.4250   -0.3020   -0.3850 ca        1 22Y     -0.083000
     18 C19        -4.5210    0.5510   -0.5160 ca        1 22Y     -0.128600
     19 C20        -4.4610    1.8330    0.0390 ca        1 22Y     -0.086000
     20 C21        -3.3250    2.2540    0.7260 ca        1 22Y     -0.163000
     21 C22        -2.2320    1.3920    0.8580 ca        1 22Y      0.037400
     22 CL1        -0.8770    1.9420    1.7440 cl        1 22Y     -0.137400
     23 C24        -5.7730    0.0860   -1.2520 c         1 22Y      0.910200
     24 O25        -6.7170    0.9140   -1.3800 o         1 22Y     -0.823300
     25 O26        -5.7910   -1.0990   -1.6860 o         1 22Y     -0.823300
     26 N27         1.8220   -3.7330    0.7220 nh        1 22Y     -0.895500
     27 H1          3.0020   -0.0860   -2.5860 hc        1 22Y      0.046033
     28 H2          1.3620    0.5140   -2.0870 hc        1 22Y      0.046033
     29 H3          2.7700    1.6530   -2.1310 hc        1 22Y      0.046033
     30 H4          2.1920    1.0180    0.2090 h1        1 22Y      0.094700
     31 H5          3.8830    2.1610    1.2110 ha        1 22Y      0.134000
     32 H6          6.2990    2.6440    1.5750 ha        1 22Y      0.125500
     33 H7          8.0370    1.3080    0.3820 ha        1 22Y      0.123000
     34 H8          7.3510   -0.5120   -1.1810 ha        1 22Y      0.125500
     35 H9          4.9380   -0.9880   -1.5610 ha        1 22Y      0.134000
     36 H10         2.9080   -1.7420   -0.5710 hn        1 22Y      0.391800
     37 H11        -2.4730   -2.4770    1.0980 h4        1 22Y      0.048100
     38 H12        -3.4880   -1.3070   -0.8370 ha        1 22Y      0.163000
     39 H13        -5.3350    2.4950   -0.0810 ha        1 22Y      0.160000
     40 H14        -3.2870    3.2610    1.1660 ha        1 22Y      0.126000
     41 H16         2.5830   -3.4230    1.2950 hn        1 22Y      0.378800
     42 H17         1.4940   -4.6290    1.0270 hn        1 22Y      0.378800
@<TRIPOS>BOND
     1    1    2 1   
     2    1   27 1   
     3    1   28 1   
     4    1   29 1   
     5    2    3 1   
     6    2    9 1   
     7    2   30 1   
     8    3    4 ar  
     9    3    8 ar  
    10    4    5 ar  
    11    4   31 1   
    12    5    6 ar  
    13    5   32 1   
    14    6    7 ar  
    15    6   33 1   
    16    7    8 ar  
    17    7   34 1   
    18    8   35 1   
    19    9   10 1   
    20    9   36 1   
    21   10   11 ar  
    22   10   15 ar  
    23   11   12 ar  
    24   11   26 1   
    25   12   13 ar  
    26   13   14 ar  
    27   13   37 1   
    28   14   15 ar  
    29   14   16 1   
    30   16   17 ar  
    31   16   21 ar  
    32   17   18 ar  
    33   17   38 1   
    34   18   19 ar  
    35   18   23 1   
    36   19   20 ar  
    37   19   39 1   
    38   20   21 ar  
    39   20   40 1   
    40   21   22 1   
    41   23   24 1   
    42   23   25 1   
    43   26   41 1   
    44   26   42 1   
@<TRIPOS>SUBSTRUCTURE
     1 22Y         1 TEMP              0 ****  ****    0 ROOT
