@<TRIPOS>MOLECULE
22Y
   42    37     1     0     0
SMALL
bcc


@<TRIPOS>ATOM
      1 C1         -3.9990   -0.8790   -0.6230 c3        1 22Y     -0.203000
      2 C2         -2.6010   -0.8830   -0.0460 c3        1 22Y      0.011000
      3 C4         -2.6780   -0.8020    1.4640 c2        1 22Y     -0.102000
      4 C5         -2.2310   -1.8620    2.2370 c2        1 22Y     -0.115000
      5 C6         -2.3680   -1.8200    3.6170 c1        1 22Y     -0.131000
      6 C7         -2.9520   -0.7180    4.2220 c1        1 22Y     -0.125250
      7 C8         -3.3990    0.3420    3.4480 c1        1 22Y     -0.125250
      8 C9         -3.2620    0.3000    2.0700 c1        1 22Y     -0.112000
      9 N10        -1.8810    0.2340   -0.5430 n3        1 22Y     -0.242000
     10 C11        -0.7080    0.0350   -1.3180 c2        1 22Y     -0.031000
     11 C12        -0.8140   -0.2890   -2.6620 c2        1 22Y      0.040000
     12 N13         0.2890   -0.3760   -3.4200 n1        1 22Y     -0.170000
     13 C14         1.4960   -0.1500   -2.8770 c1        1 22Y     -0.078000
     14 C15         1.6020    0.1750   -1.5340 c1        1 22Y     -0.007000
     15 N16         0.4990    0.2620   -0.7750 n2        1 22Y     -0.099000
     16 C17         2.9630    0.4290   -0.9220 c1        1 22Y     -0.069000
     17 C18         3.4420    1.7270   -0.8130 c1        1 22Y     -0.065000
     18 C19         4.6860    1.9600   -0.2470 c1        1 22Y     -0.108000
     19 C20         5.4510    0.8980    0.2090 c1        1 22Y     -0.125250
     20 C21         4.9720   -0.3990    0.1000 c1        1 22Y     -0.125250
     21 C22         3.7270   -0.6330   -0.4660 c1        1 22Y     -0.059000
     22 CL1         3.1520   -2.2660   -0.6590 cl        1 22Y     -0.070000
     23 C24         5.2340    3.3690   -0.1810 c2        1 22Y      0.359000
     24 O25         5.0430    4.0710    0.8470 o         1 22Y     -0.558500
     25 O26         5.9040    3.8300   -1.1420 o         1 22Y     -0.558500
     26 N27        -2.0910   -0.5230   -3.2370 n3        1 22Y     -0.303000
     27 H1         -4.1310   -1.6850   -1.1640 hc        1 22Y      0.076333
     28 H2         -4.1170   -0.0870   -1.1840 hc        1 22Y      0.076333
     29 H3         -4.6530   -0.8640    0.1060 hc        1 22Y      0.076333
     30 H4         -2.1430   -1.7070   -0.3050 h1        1 22Y      0.115000
     31 H5         -1.8200   -2.6370    1.8120 ha        1 22Y      0.130000
     32 H6         -2.0530   -2.5660    4.1610 ha        1 22Y      0.125000
     33 H7         -3.0420   -0.6860    5.1940 ha        1 22Y      0.135500
     34 H8         -3.8100    1.1180    3.8750 ha        1 22Y      0.135500
     35 H9         -3.5770    1.0470    1.5240 ha        1 22Y      0.131000
     36 H10        -2.1780    1.0810   -0.3740 hn        1 22Y      0.182000
     37 H11         2.3000   -0.2130   -3.4300 ha        1 22Y      0.176000
     38 H12         2.9030    2.4750   -1.1350 ha        1 22Y      0.167000
     39 H13         6.3260    1.0620    0.6070 ha        1 22Y      0.135500
     40 H14         5.5110   -1.1470    0.4180 ha        1 22Y      0.135500
     41 H16        -2.2560   -0.2720   -4.1000 hn        1 22Y      0.187500
     42 H17        -2.7360   -0.9530   -2.7550 hn        1 22Y      0.187500
@<TRIPOS>BOND
     1    1    2 1   
     2    1   27 1   
     3    1   28 1   
     4    1   29 1   
     5    2    3 1   
     6    2    9 1   
     7    2   30 1   
     8    3    4 1   
     9    3    8 1   
    10    4    5 1   
    11    4   31 1   
    12    5   32 1   
    13    6    7 1   
    14    6   33 1   
    15    7   34 1   
    16    8   35 1   
    17    9   10 1   
    18    9   36 1   
    19   10   11 1   
    20   10   15 1   
    21   11   12 1   
    22   11   26 1   
    23   13   14 1   
    24   13   37 1   
    25   14   15 1   
    26   16   21 1   
    27   17   18 1   
    28   17   38 1   
    29   18   23 1   
    30   19   20 1   
    31   19   39 1   
    32   20   40 1   
    33   21   22 1   
    34   23   24 1   
    35   23   25 1   
    36   26   41 1   
    37   26   42 1   
@<TRIPOS>SUBSTRUCTURE
     1 22Y         1 TEMP              0 ****  ****    0 ROOT
