@<TRIPOS>MOLECULE
22Y
   42    44     1     0     0
SMALL
bcc


@<TRIPOS>ATOM
      1 C1          0.2280   -0.3780    0.1500 c3        1 22Y     -0.123100
      2 C2          1.7210   -0.0500    0.0610 c3        1 22Y      0.234800
      3 C4          2.2850    0.0100    1.4650 ca        1 22Y     -0.069300
      4 C5          3.2610   -0.9130    1.8570 ca        1 22Y     -0.120000
      5 C6          3.7740   -0.8830    3.1530 ca        1 22Y     -0.134000
      6 C7          3.3230    0.0720    4.0640 ca        1 22Y     -0.137000
      7 C8          2.3560    0.9990    3.6750 ca        1 22Y     -0.134000
      8 C9          1.8390    0.9690    2.3810 ca        1 22Y     -0.120000
      9 N10         2.0470    1.1830   -0.6480 nh        1 22Y     -0.807900
     10 C11         1.9460    1.2180   -2.0630 ca        1 22Y      0.482900
     11 C12         2.3440    2.4440   -2.7530 ca        1 22Y      0.437900
     12 N13         2.3710    2.4860   -4.1180 nb        1 22Y     -0.674000
     13 C14         2.0040    1.3830   -4.7820 ca        1 22Y      0.289900
     14 C15         1.5950    0.1870   -4.1200 cp        1 22Y      0.386500
     15 N16         1.5730    0.1140   -2.7710 nb        1 22Y     -0.658000
     16 C17         1.2080   -0.9700   -4.9390 cp        1 22Y     -0.179500
     17 C18         2.0670   -1.3710   -5.9740 ca        1 22Y     -0.083000
     18 C19         1.7470   -2.4520   -6.7950 ca        1 22Y     -0.128600
     19 C20         0.5540   -3.1490   -6.5770 ca        1 22Y     -0.086000
     20 C21        -0.3130   -2.7630   -5.5570 ca        1 22Y     -0.163000
     21 C22         0.0120   -1.6750   -4.7420 ca        1 22Y      0.037400
     22 CL1        -1.1050   -1.2170   -3.5300 cl        1 22Y     -0.139400
     23 C24         2.6860   -2.8650   -7.9240 c         1 22Y      0.910200
     24 O25         2.3700   -3.8790   -8.6060 o         1 22Y     -0.823300
     25 O26         3.7210   -2.1670   -8.1090 o         1 22Y     -0.823300
     26 N27         2.6250    3.6160   -2.0060 nh        1 22Y     -0.895500
     27 H1          0.0940   -1.3120    0.7460 hc        1 22Y      0.046033
     28 H2         -0.2000   -0.5430   -0.8680 hc        1 22Y      0.046033
     29 H3         -0.3350    0.4460    0.6510 hc        1 22Y      0.046033
     30 H4          2.2290   -0.9010   -0.4870 h1        1 22Y      0.092700
     31 H5          3.6270   -1.6630    1.1390 ha        1 22Y      0.134000
     32 H6          4.5380   -1.6130    3.4550 ha        1 22Y      0.125500
     33 H7          3.7290    0.0950    5.0850 ha        1 22Y      0.123000
     34 H8          2.0010    1.7550    4.3890 ha        1 22Y      0.125500
     35 H9          1.0740    1.7000    2.0800 ha        1 22Y      0.134000
     36 H10         1.5800    1.9720   -0.2400 hn        1 22Y      0.389800
     37 H11         2.0420    1.4310   -5.8850 h4        1 22Y      0.048100
     38 H12         3.0160   -0.8390   -6.1590 ha        1 22Y      0.163000
     39 H13         0.3220   -4.0050   -7.2310 ha        1 22Y      0.160000
     40 H14        -1.2520   -3.3110   -5.3940 ha        1 22Y      0.126000
     41 H16         3.3320    3.4380   -1.3190 hn        1 22Y      0.379800
     42 H17         2.8830    4.3920   -2.5840 hn        1 22Y      0.379800
@<TRIPOS>BOND
     1    1    2 1   
     2    1   27 1   
     3    1   28 1   
     4    1   29 1   
     5    2    3 1   
     6    2    9 1   
     7    2   30 1   
     8    3    4 ar  
     9    3    8 ar  
    10    4    5 ar  
    11    4   31 1   
    12    5    6 ar  
    13    5   32 1   
    14    6    7 ar  
    15    6   33 1   
    16    7    8 ar  
    17    7   34 1   
    18    8   35 1   
    19    9   10 1   
    20    9   36 1   
    21   10   11 ar  
    22   10   15 ar  
    23   11   12 ar  
    24   11   26 1   
    25   12   13 ar  
    26   13   14 ar  
    27   13   37 1   
    28   14   15 ar  
    29   14   16 1   
    30   16   17 ar  
    31   16   21 ar  
    32   17   18 ar  
    33   17   38 1   
    34   18   19 ar  
    35   18   23 1   
    36   19   20 ar  
    37   19   39 1   
    38   20   21 ar  
    39   20   40 1   
    40   21   22 1   
    41   23   24 1   
    42   23   25 1   
    43   26   41 1   
    44   26   42 1   
@<TRIPOS>SUBSTRUCTURE
     1 22Y         1 TEMP              0 ****  ****    0 ROOT
