@<TRIPOS>MOLECULE
22Y
   42    44     1     0     0
SMALL
bcc


@<TRIPOS>ATOM
      1 C1          0.2330   -0.3850    0.1540 c3        1 22Y     -0.123100
      2 C2          1.7240   -0.0490    0.0610 c3        1 22Y      0.234800
      3 C4          2.2910    0.0130    1.4650 ca        1 22Y     -0.069300
      4 C5          3.2720   -0.9040    1.8540 ca        1 22Y     -0.120000
      5 C6          3.7870   -0.8720    3.1500 ca        1 22Y     -0.134000
      6 C7          3.3330    0.0820    4.0610 ca        1 22Y     -0.137000
      7 C8          2.3610    1.0030    3.6740 ca        1 22Y     -0.134000
      8 C9          1.8410    0.9700    2.3800 ca        1 22Y     -0.120000
      9 N10         2.0430    1.1840   -0.6490 nu        1 22Y     -0.807900
     10 C11         1.9400    1.2180   -2.0640 ca        1 22Y      0.482900
     11 C12         2.3300    2.4460   -2.7550 ca        1 22Y      0.437900
     12 N13         2.3540    2.4870   -4.1200 nb        1 22Y     -0.674000
     13 C14         1.9920    1.3820   -4.7820 ca        1 22Y      0.289900
     14 C15         1.5900    0.1850   -4.1200 cp        1 22Y      0.386500
     15 N16         1.5710    0.1120   -2.7710 nb        1 22Y     -0.658000
     16 C17         1.2080   -0.9750   -4.9380 cp        1 22Y     -0.179500
     17 C18         2.0670   -1.3720   -5.9740 ca        1 22Y     -0.083000
     18 C19         1.7510   -2.4560   -6.7930 ca        1 22Y     -0.128600
     19 C20         0.5620   -3.1580   -6.5720 ca        1 22Y     -0.086000
     20 C21        -0.3060   -2.7760   -5.5520 ca        1 22Y     -0.163000
     21 C22         0.0150   -1.6850   -4.7380 ca        1 22Y      0.037400
     22 Cl1        -1.1030   -1.2320   -3.5240 cl        1 22Y     -0.139400
     23 C24         2.6910   -2.8650   -7.9230 c         1 22Y      0.910200
     24 O25         2.3780   -3.8810   -8.6040 o         1 22Y     -0.823300
     25 O26         3.7210   -2.1610   -8.1100 o         1 22Y     -0.823300
     26 N27         2.6060    3.6200   -2.0090 nv        1 22Y     -0.895500
     27 H1          0.1040   -1.3200    0.7500 hc        1 22Y      0.046033
     28 H2         -0.1970   -0.5520   -0.8640 hc        1 22Y      0.046033
     29 H3         -0.3330    0.4360    0.6550 hc        1 22Y      0.046033
     30 H4          2.2350   -0.8990   -0.4870 h1        1 22Y      0.092700
     31 H5          3.6400   -1.6530    1.1360 ha        1 22Y      0.134000
     32 H6          4.5560   -1.5970    3.4500 ha        1 22Y      0.125500
     33 H7          3.7420    0.1080    5.0810 ha        1 22Y      0.123000
     34 H8          2.0030    1.7580    4.3880 ha        1 22Y      0.125500
     35 H9          1.0720    1.6980    2.0810 ha        1 22Y      0.134000
     36 H10         1.5730    1.9710   -0.2400 hn        1 22Y      0.389800
     37 H11         2.0270    1.4300   -5.8860 h4        1 22Y      0.048100
     38 H12         3.0130   -0.8360   -6.1590 ha        1 22Y      0.163000
     39 H13         0.3320   -4.0160   -7.2260 ha        1 22Y      0.160000
     40 H14        -1.2420   -3.3280   -5.3870 ha        1 22Y      0.126000
     41 H16         2.8590    4.3960   -2.5880 hn        1 22Y      0.379800
     42 H17         3.3150    3.4460   -1.3230 hn        1 22Y      0.379800
@<TRIPOS>BOND
     1    1    2 1   
     2    1   27 1   
     3    1   28 1   
     4    1   29 1   
     5    2    3 1   
     6    2    9 1   
     7    2   30 1   
     8    3    4 ar  
     9    3    8 ar  
    10    4    5 ar  
    11    4   31 1   
    12    5    6 ar  
    13    5   32 1   
    14    6    7 ar  
    15    6   33 1   
    16    7    8 ar  
    17    7   34 1   
    18    8   35 1   
    19    9   10 1   
    20    9   36 1   
    21   10   11 ar  
    22   10   15 ar  
    23   11   12 ar  
    24   11   26 1   
    25   12   13 ar  
    26   13   14 ar  
    27   13   37 1   
    28   14   15 ar  
    29   14   16 1   
    30   16   17 ar  
    31   16   21 ar  
    32   17   18 ar  
    33   17   38 1   
    34   18   19 ar  
    35   18   23 1   
    36   19   20 ar  
    37   19   39 1   
    38   20   21 ar  
    39   20   40 1   
    40   21   22 1   
    41   23   24 1   
    42   23   25 1   
    43   26   41 1   
    44   26   42 1   
@<TRIPOS>SUBSTRUCTURE
     1 22Y         1 TEMP              0 ****  ****    0 ROOT
