@<TRIPOS>MOLECULE
22Z
   53    54     1     0     0
SMALL
bcc


@<TRIPOS>ATOM
      1 N01         0.0020   -0.0170   -0.0160 nh        1 22Z     -0.734600
      2 N02         3.3350    0.0250    2.8910 n4        1 22Z     -0.761400
      3 N03        -4.0030    1.2320    1.1670 nb        1 22Z     -0.651000
      4 N04         3.1820    0.0620   -3.6320 nh        1 22Z     -0.709600
      5 N05         5.4550   -0.0300   -1.6710 no        1 22Z      0.330200
      6 C06         3.7080   -0.0350    0.0350 ca        1 22Z      0.049000
      7 C07         2.3940   -0.0250    0.5380 ca        1 22Z     -0.350600
      8 C08         1.2990   -0.0110   -0.4200 ca        1 22Z      0.357600
      9 C09         1.6230    0.0160   -1.7940 ca        1 22Z     -0.363000
     10 C10         2.9440    0.0220   -2.3030 ca        1 22Z      0.350600
     11 C11         4.0140   -0.0140   -1.3130 ca        1 22Z     -0.287200
     12 C13        -1.1160    0.0030   -0.9380 c3        1 22Z      0.263100
     13 C14        -2.4310    0.0180   -0.2270 ca        1 22Z     -0.261600
     14 C15        -2.8230    1.1440    0.5270 ca        1 22Z      0.412200
     15 C16        -4.8450    0.1860    1.0650 ca        1 22Z      0.422200
     16 C17        -4.5470   -0.9800    0.3330 ca        1 22Z     -0.239300
     17 C18        -3.3160   -1.0630   -0.3190 ca        1 22Z     -0.066000
     18 C19         2.1280    0.1020   -4.6240 c3        1 22Z      0.194800
     19 C20         2.6660    0.1500   -6.0540 c3        1 22Z     -0.097400
     20 C21         1.5080    0.1910   -7.0290 c3        1 22Z     -0.078400
     21 C22         2.0090    0.2390   -8.4580 c3        1 22Z     -0.080400
     22 C23         0.8570    0.2800   -9.4390 c3        1 22Z     -0.079400
     23 C24         1.3490    0.3280  -10.8630 c3        1 22Z     -0.095100
     24 O25         1.0820   -0.0720    2.5850 o         1 22Z     -0.495100
     25 O26         6.2520   -0.0280   -0.7670 o         1 22Z     -0.203500
     26 O27         5.8060   -0.0470   -2.8190 o         1 22Z     -0.203500
     27 HN01       -0.2270   -0.0470    0.9560 hn        1 22Z      0.469800
     28 HN02        2.9920    0.0510    3.8600 hn        1 22Z      0.463800
     29 HN0A        3.9240   -0.8010    2.7660 hn        1 22Z      0.463800
     30 HN04        4.1200    0.0560   -3.9840 hn        1 22Z      0.485800
     31 H06         4.5670   -0.0650    0.7340 ha        1 22Z      0.146000
     32 H09         0.7950    0.0320   -2.5230 ha        1 22Z      0.167000
     33 H13        -1.0540   -0.9030   -1.6100 h1        1 22Z      0.067700
     34 H13A       -1.0380    0.9270   -1.5870 h1        1 22Z      0.067700
     35 H15        -2.1610    2.0240    0.6170 h4        1 22Z      0.024100
     36 H16        -5.8090    0.2910    1.5970 h4        1 22Z      0.041100
     37 H17        -5.2720   -1.8040    0.2800 ha        1 22Z      0.161000
     38 H18        -3.0510   -1.9600   -0.8980 ha        1 22Z      0.145000
     39 H19         1.4870    1.0130   -4.4410 h1        1 22Z      0.059200
     40 H19A        1.4780   -0.8140   -4.5060 h1        1 22Z      0.059200
     41 H20         3.3010   -0.7520   -6.2610 hc        1 22Z      0.062700
     42 H20A        3.3100    1.0570   -6.1960 hc        1 22Z      0.062700
     43 H21         0.8710    1.0910   -6.8240 hc        1 22Z      0.045200
     44 H21A        0.8620   -0.7160   -6.8890 hc        1 22Z      0.045200
     45 H22         2.6560    1.1440   -8.6000 hc        1 22Z      0.046700
     46 H22A        2.6470   -0.6610   -8.6650 hc        1 22Z      0.046700
     47 H23         0.2190    1.1790   -9.2300 hc        1 22Z      0.040200
     48 H23A        0.2090   -0.6250   -9.2950 hc        1 22Z      0.040200
     49 H24         1.9760    1.2370  -11.0330 hc        1 22Z      0.038700
     50 H24A        0.4850    0.3580  -11.5690 hc        1 22Z      0.038700
     51 H24B        1.9660   -0.5730  -11.0980 hc        1 22Z      0.038700
     52 H023        3.8890    0.8640    2.7080 hn        1 22Z      0.463800
     53 C12         2.1320   -0.0330    1.9440 c         1 22Z      0.588700
@<TRIPOS>BOND
     1    1    8 1   
     2    1   12 1   
     3    1   27 1   
     4    2   28 1   
     5    2   29 1   
     6    2   52 1   
     7    2   53 1   
     8    3   14 ar  
     9    3   15 ar  
    10    4   10 1   
    11    4   18 1   
    12    4   30 1   
    13    5   11 1   
    14    5   25 1   
    15    5   26 1   
    16    6    7 ar  
    17    6   11 ar  
    18    6   31 1   
    19    7    8 ar  
    20    7   53 1   
    21    8    9 ar  
    22    9   10 ar  
    23    9   32 1   
    24   10   11 ar  
    25   12   13 1   
    26   12   33 1   
    27   12   34 1   
    28   13   14 ar  
    29   13   17 ar  
    30   14   35 1   
    31   15   16 ar  
    32   15   36 1   
    33   16   17 ar  
    34   16   37 1   
    35   17   38 1   
    36   18   19 1   
    37   18   39 1   
    38   18   40 1   
    39   19   20 1   
    40   19   41 1   
    41   19   42 1   
    42   20   21 1   
    43   20   43 1   
    44   20   44 1   
    45   21   22 1   
    46   21   45 1   
    47   21   46 1   
    48   22   23 1   
    49   22   47 1   
    50   22   48 1   
    51   23   49 1   
    52   23   50 1   
    53   23   51 1   
    54   24   53 2   
@<TRIPOS>SUBSTRUCTURE
     1 22Z         1 TEMP              0 ****  ****    0 ROOT
