@<TRIPOS>MOLECULE
22Z
   52    49     1     0     0
SMALL
bcc


@<TRIPOS>ATOM
      1 N01        -1.8960    0.4950    2.6850 n3        1 22Z     -0.308000
      2 N02         1.2610    0.5890    5.6050 n         1 22Z     -0.426000
      3 N03        -5.1020    1.9380    5.4580 n1        1 22Z     -0.131000
      4 N04         1.3530    0.4990   -1.0320 n3        1 22Z     -0.316000
      5 N05         3.4320    0.4820    0.8960 n2        1 22Z      0.481400
      6 C06         1.8150    0.4320    2.7130 c1        1 22Z      0.042000
      7 C07         0.4970    0.5070    3.1550 c1        1 22Z     -0.259000
      8 C08        -0.5470    0.5470    2.2320 c2        1 22Z      0.237000
      9 C09        -0.2710    0.5120    0.8660 c2        1 22Z     -0.347000
     10 C10         1.0530    0.4370    0.4210 c2        1 22Z      0.257000
     11 C11         2.0940    0.3970    1.3420 c1        1 22Z     -0.295000
     12 C12         0.1930    0.5620    4.6650 c2        1 22Z      0.363000
     13 C13        -2.7540    1.6480    2.5270 c3        1 22Z      0.018000
     14 C14        -3.9850    1.4880    3.4030 c2        1 22Z     -0.157000
     15 C15        -3.9620    1.9420    4.7160 c2        1 22Z     -0.055000
     16 C16        -6.2670    1.4890    4.9160 c1        1 22Z     -0.122000
     17 C17        -6.2940    1.0340    3.6030 c1        1 22Z     -0.122000
     18 C18        -5.1550    1.0380    2.8580 c1        1 22Z     -0.076000
     19 C19         1.3990   -0.7320   -1.8240 c3        1 22Z     -0.024000
     20 C20         1.6850   -0.3890   -3.2940 c3        1 22Z     -0.174000
     21 C21         1.9510   -1.6700   -4.0680 c3        1 22Z     -0.156000
     22 C22         2.2730   -1.3290   -5.5340 c3        1 22Z     -0.158000
     23 C23         2.5350   -2.6300   -6.3180 c3        1 22Z     -0.158000
     24 C24         2.9210   -2.2900   -7.7530 c3        1 22Z     -0.211000
     25 O25        -0.9630    0.6280    5.0530 o         1 22Z     -0.402000
     26 O26         4.4400    0.6790    1.7980 o         1 22Z     -0.336200
     27 O27         3.6800    0.4650   -0.3050 o         1 22Z     -0.336200
     28 HN01       -2.2390   -0.2890    3.0110 hn        1 22Z      0.263000
     29 HN02        2.0610    0.2270    5.3900 hn        1 22Z      0.230500
     30 HN0A        1.1250    0.9410    6.4500 hn        1 22Z      0.230500
     31 HN04        1.4970    1.3110   -1.4360 hn        1 22Z      0.269000
     32 H06         2.5460    0.4040    3.3600 ha        1 22Z      0.167000
     33 H09        -0.9990    0.4740    0.2270 ha        1 22Z      0.145000
     34 H13        -3.0290    1.7260    1.5890 h1        1 22Z      0.091000
     35 H13A       -2.2650    2.4610    2.7940 h1        1 22Z      0.091000
     36 H15        -3.1280    2.2640    5.1070 h4        1 22Z      0.172000
     37 H16        -7.0870    1.4870    5.4520 ha        1 22Z      0.155000
     38 H17        -7.1330    0.7120    3.2130 ha        1 22Z      0.155000
     39 H18        -5.1740    0.7200    1.9390 ha        1 22Z      0.140000
     40 H19         2.1040   -1.3100   -1.4840 h1        1 22Z      0.083000
     41 H19A        0.5320   -1.1980   -1.7590 h1        1 22Z      0.083000
     42 H20         2.4630    0.1880   -3.3460 hc        1 22Z      0.095000
     43 H20A        0.9110    0.0710   -3.6790 hc        1 22Z      0.095000
     44 H21         1.1550   -2.2450   -4.0320 hc        1 22Z      0.081500
     45 H21A        2.7080   -2.1390   -3.6710 hc        1 22Z      0.081500
     46 H22         3.0680   -0.7610   -5.5700 hc        1 22Z      0.083000
     47 H22A        1.5100   -0.8520   -5.9350 hc        1 22Z      0.083000
     48 H23         3.2610   -3.1230   -5.8950 hc        1 22Z      0.078000
     49 H23A        1.7210   -3.1810   -6.3200 hc        1 22Z      0.078000
     50 H24         2.9700   -3.1160   -8.2830 hc        1 22Z      0.074000
     51 H24A        2.2450   -1.6900   -8.1420 hc        1 22Z      0.074000
     52 H24B        3.7920   -1.8470   -7.7610 hc        1 22Z      0.074000
@<TRIPOS>BOND
     1    1    8 1   
     2    1   13 1   
     3    1   28 1   
     4    2   12 1   
     5    2   29 1   
     6    2   30 1   
     7    3   15 1   
     8    4   10 1   
     9    4   19 1   
    10    4   31 1   
    11    5   26 2   
    12    5   27 2   
    13    6   11 1   
    14    6   32 1   
    15    7    8 1   
    16    7   12 1   
    17    8    9 1   
    18    9   10 1   
    19    9   33 1   
    20   10   11 1   
    21   12   25 1   
    22   13   14 1   
    23   13   34 1   
    24   13   35 1   
    25   14   15 1   
    26   14   18 1   
    27   15   36 1   
    28   16   17 1   
    29   16   37 1   
    30   17   38 1   
    31   18   39 1   
    32   19   20 1   
    33   19   40 1   
    34   19   41 1   
    35   20   21 1   
    36   20   42 1   
    37   20   43 1   
    38   21   22 1   
    39   21   44 1   
    40   21   45 1   
    41   22   23 1   
    42   22   46 1   
    43   22   47 1   
    44   23   24 1   
    45   23   48 1   
    46   23   49 1   
    47   24   50 1   
    48   24   51 1   
    49   24   52 1   
@<TRIPOS>SUBSTRUCTURE
     1 22Z         1 TEMP              0 ****  ****    0 ROOT
