@<TRIPOS>MOLECULE
22Z
   52    53     1     0     0
SMALL
bcc


@<TRIPOS>ATOM
      1 N01         2.3090    0.1890    0.1670 nh        1 22Z     -0.752600
      2 N02         3.4970   -3.6700    0.8160 n         1 22Z     -0.667000
      3 N03         4.3810    4.2820   -1.0980 nb        1 22Z     -0.661000
      4 N04        -2.3630   -1.0690   -0.0370 nh        1 22Z     -0.759600
      5 N05        -1.5740   -3.9510   -0.1840 no        1 22Z      0.335200
      6 C06         0.7340   -3.1390   -0.0550 ca        1 22Z      0.041000
      7 C07         1.7180   -2.1750    0.0290 ca        1 22Z     -0.277600
      8 C08         1.3460   -0.7860    0.0540 ca        1 22Z      0.317600
      9 C09        -0.0250   -0.4660    0.0250 ca        1 22Z     -0.346000
     10 C10        -1.0500   -1.4450   -0.0400 ca        1 22Z      0.337600
     11 C11        -0.6380   -2.8230   -0.0920 ca        1 22Z     -0.339200
     12 C13         1.9840    1.5880    0.0260 c3        1 22Z      0.260100
     13 C14         3.1920    2.4710   -0.0010 ca        1 22Z     -0.228600
     14 C15         3.3450    3.4260   -1.0280 ca        1 22Z      0.410200
     15 C16         5.3170    4.2030   -0.1320 ca        1 22Z      0.403200
     16 C17         5.2580    3.2820    0.9300 ca        1 22Z     -0.244300
     17 C18         4.1750    2.4050    0.9930 ca        1 22Z     -0.075000
     18 C19        -2.7820    0.3080   -0.0110 c3        1 22Z      0.211800
     19 C20        -4.3020    0.4670   -0.0410 c3        1 22Z     -0.095400
     20 C21        -4.6630    1.9370   -0.0080 c3        1 22Z     -0.077400
     21 C22        -6.1650    2.1270   -0.0370 c3        1 22Z     -0.079400
     22 C23        -6.5320    3.5960   -0.0040 c3        1 22Z     -0.079400
     23 C24        -8.0260    3.7910   -0.0320 c3        1 22Z     -0.093100
     24 O25         4.0430   -1.9610   -0.5630 o         1 22Z     -0.640100
     25 O26        -1.1310   -5.0720   -0.1240 o         1 22Z     -0.240500
     26 O27        -2.7610   -3.7730   -0.3180 o         1 22Z     -0.240500
     27 HN01        3.2560   -0.0700   -0.0310 hn        1 22Z      0.467800
     28 HN02        2.8210   -4.1840    1.3200 hn        1 22Z      0.316000
     29 HN0A        4.4380   -3.9770    0.8210 hn        1 22Z      0.316000
     30 HN04       -3.0800   -1.7570   -0.1310 hn        1 22Z      0.472800
     31 H06         1.0210   -4.2080   -0.1130 ha        1 22Z      0.167000
     32 H09        -0.3190    0.5950    0.0550 ha        1 22Z      0.146000
     33 H13         1.3770    1.7560   -0.9140 h1        1 22Z      0.052200
     34 H13A        1.3390    1.8910    0.9050 h1        1 22Z      0.052200
     35 H15         2.5980    3.5110   -1.8390 h4        1 22Z      0.025100
     36 H16         6.1570    4.9150   -0.2200 h4        1 22Z      0.026100
     37 H17         6.0510    3.2580    1.6890 ha        1 22Z      0.148000
     38 H18         4.0950    1.6740    1.8110 ha        1 22Z      0.148000
     39 H19        -2.3820    0.7980    0.9250 h1        1 22Z      0.044200
     40 H19A       -2.3410    0.8530   -0.8970 h1        1 22Z      0.044200
     41 H20        -4.7220   -0.0030   -0.9690 hc        1 22Z      0.055700
     42 H20A       -4.7630   -0.0550    0.8380 hc        1 22Z      0.055700
     43 H21        -4.2420    2.4090    0.9190 hc        1 22Z      0.042700
     44 H21A       -4.2010    2.4600   -0.8860 hc        1 22Z      0.042700
     45 H22        -6.5870    1.6550   -0.9630 hc        1 22Z      0.043700
     46 H22A       -6.6280    1.6040    0.8410 hc        1 22Z      0.043700
     47 H23        -6.1080    4.0660    0.9220 hc        1 22Z      0.039200
     48 H23A       -6.0670    4.1170   -0.8820 hc        1 22Z      0.039200
     49 H24        -8.5050    3.2990    0.8490 hc        1 22Z      0.034367
     50 H24A       -8.2750    4.8790   -0.0070 hc        1 22Z      0.034367
     51 H24B       -8.4640    3.3500   -0.9600 hc        1 22Z      0.034367
     52 C12         3.1490   -2.5800    0.0590 c         1 22Z      0.689700
@<TRIPOS>BOND
     1    1    8 1   
     2    1   12 1   
     3    1   27 1   
     4    2   28 1   
     5    2   29 1   
     6    2   52 1   
     7    3   14 ar  
     8    3   15 ar  
     9    4   10 1   
    10    4   18 1   
    11    4   30 1   
    12    5   11 1   
    13    5   25 1   
    14    5   26 1   
    15    6    7 ar  
    16    6   11 ar  
    17    6   31 1   
    18    7    8 ar  
    19    7   52 1   
    20    8    9 ar  
    21    9   10 ar  
    22    9   32 1   
    23   10   11 ar  
    24   12   13 1   
    25   12   33 1   
    26   12   34 1   
    27   13   14 ar  
    28   13   17 ar  
    29   14   35 1   
    30   15   16 ar  
    31   15   36 1   
    32   16   17 ar  
    33   16   37 1   
    34   17   38 1   
    35   18   19 1   
    36   18   39 1   
    37   18   40 1   
    38   19   20 1   
    39   19   41 1   
    40   19   42 1   
    41   20   21 1   
    42   20   43 1   
    43   20   44 1   
    44   21   22 1   
    45   21   45 1   
    46   21   46 1   
    47   22   23 1   
    48   22   47 1   
    49   22   48 1   
    50   23   49 1   
    51   23   50 1   
    52   23   51 1   
    53   24   52 2   
@<TRIPOS>SUBSTRUCTURE
     1 22Z         1 TEMP              0 ****  ****    0 ROOT
