@<TRIPOS>MOLECULE
22Z
   53    67     1     0     0
SMALL
bcc


@<TRIPOS>ATOM
      1 N01         0.0000    0.0000    0.0000 n7        1 22Z      0.020000
      2 N02         3.1210   -0.1290    2.7880 nz        1 22Z      0.269000
      3 N03        -4.1270    1.2610    0.9130 n2        1 22Z      0.047000
      4 N04         3.1680    0.0030   -3.6210 n7        1 22Z     -0.435000
      5 N05         5.3480    0.0020   -1.8270 no        1 22Z      1.318000
      6 C06         3.6970    0.0000    0.0000 c2        1 22Z     -0.020000
      7 C07         2.3780    0.0000    0.4660 c2        1 22Z     -0.506000
      8 C08         1.3140    0.0010   -0.4530 DU        1 22Z      0.035000
      9 C09         1.5820    0.0010   -1.8120 c2        1 22Z     -0.649000
     10 C10         2.8980    0.0020   -2.2570 c3        1 22Z      0.019000
     11 C11         3.9490    0.0020   -1.3420 c2        1 22Z     -0.016000
     12 C13        -1.1020    0.1470   -0.9530 c3        1 22Z     -0.039000
     13 C14        -2.4140    0.1140   -0.2120 c2        1 22Z     -0.305000
     14 C15        -2.9790    1.2820    0.2630 c3        1 22Z     -0.146000
     15 C16        -4.7780    0.1360    1.1330 c3        1 22Z      0.071000
     16 C17        -4.2750   -1.0710    0.6890 c3        1 22Z     -0.396000
     17 C18        -3.0700   -1.0900    0.0020 c2        1 22Z     -0.231000
     18 C19         2.0720    0.1330   -4.5850 DU        1 22Z     -0.069000
     19 C20         2.6370    0.1040   -6.0060 DU        1 22Z      0.045000
     20 C21         1.4920    0.2410   -7.0130 DU        1 22Z     -0.303000
     21 C22         2.0570    0.2120   -8.4340 DU        1 22Z     -0.112000
     22 C23         0.9120    0.3480   -9.4410 DU        1 22Z     -0.287000
     23 C24         1.4760    0.3200  -10.8630 c3        1 22Z     -0.018000
     24 O25         0.9640    0.1100    2.3160 oh        1 22Z     -0.335000
     25 O26         6.1980   -0.6390   -1.2360 o         1 22Z     -0.580500
     26 O27         5.6480    0.6440   -2.8180 o         1 22Z     -0.580500
     27 HN01        0.7060    0.1790    0.6860 DU        1 22Z      0.227000
     28 HN02        2.2440   -0.1350    2.3080 DU        1 22Z     -0.160000
     29 HN0A        2.9940    0.4750    3.5770 hn        1 22Z      0.139000
     30 HN04        3.3140   -0.0270   -2.6320 hn        1 22Z      0.388000
     31 H06         3.8100   -0.0320   -1.0770 ha        1 22Z     -0.492000
     32 H09         2.4050    0.0010   -1.1070 DU        1 22Z      0.369000
     33 H13        -0.2740    0.1160   -1.6500 h1        1 22Z      0.122500
     34 H13A       -1.0060    1.0910   -1.4750 h1        1 22Z      0.122500
     35 H15        -2.3620    0.6500   -0.3630 h1        1 22Z      0.324000
     36 H16        -4.0170    0.8270    0.7920 DU        1 22Z      0.162000
     37 H17        -5.0080   -0.4490    1.1870 DU        1 22Z      0.173000
     38 H18        -3.9500   -1.5460    0.4410 DU        1 22Z      0.243000
     39 H19         1.3080   -0.2170   -3.9010 ha        1 22Z      0.204000
     40 H19A        1.5550    1.0700   -4.4200 ha        1 22Z      0.204000
     41 H20         2.0020   -0.2970   -5.2260 DU        1 22Z      0.242000
     42 H20A        3.3310    0.9260   -6.1350 ha        1 22Z      0.158000
     43 H21         2.3290   -0.3020   -6.5900 DU        1 22Z      0.133000
     44 H21A        0.7980   -0.5810   -6.8840 ha        1 22Z      0.123000
     45 H22         1.5120    0.7010   -7.6360 DU        1 22Z      0.135000
     46 H22A        2.7510    1.0340   -8.5630 ha        1 22Z      0.119000
     47 H23         1.7490   -0.1940   -9.0180 DU        1 22Z      0.128000
     48 H23A        0.2180   -0.4730   -9.3110 ha        1 22Z      0.131000
     49 H24         0.9320    0.8090  -10.0640 DU        1 22Z      0.132000
     50 H24A        2.1800    1.1340  -10.9880 hc        1 22Z      0.092000
     51 H24B        1.9810   -0.6230  -11.0320 hc        1 22Z      0.092000
     52 H023        2.9530   -0.0900    1.8030 DU        1 22Z      0.224000
     53 C12         2.1060   -0.0020    1.9120 c3        1 22Z      0.469000
@<TRIPOS>BOND
     1    1    8 1   
     2    1   12 1   
     3    1   27 1   
     4    2   28 1   
     5    2   29 1   
     6    2   52 1   
     7    2   53 1   
     8    3   14 1   
     9    3   15 1   
    10    4   10 1   
    11    4   18 1   
    12    4   30 1   
    13    5   11 1   
    14    5   25 1   
    15    5   26 1   
    16    6    7 1   
    17    6   11 1   
    18    6   31 1   
    19    7    8 1   
    20    7   53 1   
    21    8    9 1   
    22    8   27 1   
    23    8   32 1   
    24    9   10 1   
    25    9   32 1   
    26   10   11 1   
    27   10   32 1   
    28   12   13 1   
    29   12   33 1   
    30   12   34 1   
    31   13   14 1   
    32   13   17 1   
    33   14   35 1   
    34   14   36 1   
    35   15   16 1   
    36   15   36 1   
    37   15   37 1   
    38   16   17 1   
    39   16   37 1   
    40   16   38 1   
    41   17   38 1   
    42   18   19 1   
    43   18   39 1   
    44   18   40 1   
    45   18   41 1   
    46   19   20 1   
    47   19   41 1   
    48   19   42 1   
    49   19   43 1   
    50   20   21 1   
    51   20   43 1   
    52   20   44 1   
    53   20   45 1   
    54   21   22 1   
    55   21   45 1   
    56   21   46 1   
    57   21   47 1   
    58   22   23 1   
    59   22   47 1   
    60   22   48 1   
    61   22   49 1   
    62   23   49 1   
    63   23   50 1   
    64   23   51 1   
    65   24   28 1   
    66   24   53 1   
    67   52   53 1   
@<TRIPOS>SUBSTRUCTURE
     1 22Z         1 TEMP              0 ****  ****    0 ROOT
