@<TRIPOS>MOLECULE
230
   56    54     1     0     0
SMALL
bcc


@<TRIPOS>ATOM
      1 N1         -0.1860    0.9640    1.6030 n         1 230     -0.327000
      2 N3          5.4290    1.7500    1.5500 n         1 230     -0.196000
      3 C4          1.2720    1.1730    1.5880 c2        1 230      0.035000
      4 C5          1.8310    2.0900    0.7170 c1        1 230      0.104000
      5 C6          3.2120    2.2990    0.7130 c1        1 230     -0.133000
      6 C7         -0.9530    1.1150    0.3820 c2        1 230      0.309000
      7 C8         -1.9570   -6.4650   -1.7310 c1        1 230     -0.083000
      8 C10        -2.9360   -4.6060   -0.5790 c1        1 230     -0.117000
      9 C13        -1.6560   -5.6440   -2.7940 c1        1 230     -0.101000
     10 C15         6.0880    2.6010    2.5450 c2        1 230      0.329000
     11 C17         8.4010    1.8220    1.7100 c1        1 230     -0.039000
     12 C20        -2.9620    2.0960   -0.1180 c3        1 230     -0.201000
     13 C21        -2.4230    1.0120    0.4180 c3        1 230      0.006000
     14 C22        -3.9710    0.5010   -1.4790 c3        1 230     -0.048000
     15 C24        -5.9130    3.2320   -1.7420 c3        1 230     -0.076000
     16 C1          4.0290    1.5820    1.5900 c2        1 230      0.047000
     17 C2          3.4650    0.6610    2.4640 c2        1 230     -0.145000
     18 C3          2.0890    0.4540    2.4660 c2        1 230     -0.133000
     19 F1          1.0460    2.7740   -0.1330 f         1 230     -0.083000
     20 O1         -0.3940    1.4120   -0.6480 o         1 230     -0.331000
     21 C9         -2.5960   -5.9510   -0.6230 c1        1 230     -0.117000
     22 C11        -2.6360   -3.7890   -1.6370 c1        1 230      0.069000
     23 C12        -1.9930   -4.3070   -2.7520 c1        1 230     -0.170000
     24 CL1        -1.6630   -8.1870   -1.8510 cl        1 230     -0.012000
     25 N2         -3.0540   -2.4310   -1.6270 n         1 230     -0.307000
     26 C14         6.2300    0.9650    0.6110 c2        1 230      0.013000
     27 C16         7.5930    2.6080    2.6560 c2        1 230     -0.235000
     28 C18         7.7380    0.9680    0.7160 c1        1 230     -0.249000
     29 O2          5.4020    3.2660    3.3470 o         1 230     -0.350000
     30 C19        -4.2670    1.6240   -0.9170 c3        1 230      0.022000
     31 N4         -2.9120   -0.1270   -0.6070 n         1 230     -0.303000
     32 O3         -4.6230    2.6240   -1.9430 os        1 230     -0.267000
     33 C23        -2.4360   -1.4750   -0.6760 c2        1 230      0.390000
     34 O4         -1.5650   -1.8560    0.0990 o         1 230     -0.406000
     35 HN1        -0.6160    0.8360    2.3930 hn        1 230      0.264000
     36 H6          3.6040    2.9460    0.1000 ha        1 230      0.179000
     37 H10        -3.3790   -4.2500    0.1880 ha        1 230      0.163000
     38 H13        -1.2070   -6.0060   -3.5740 ha        1 230      0.149000
     39 H17         9.3590    1.8240    1.7780 ha        1 230      0.141000
     40 H201       -2.3260    2.5180   -0.7340 hc        1 230      0.126000
     41 H202       -3.2110    2.7250    0.5860 hc        1 230      0.126000
     42 H21        -2.5780    0.8560    1.3720 h1        1 230      0.127000
     43 H221       -4.7700   -0.0830   -1.5200 h1        1 230      0.106500
     44 H222       -3.6150    0.6590   -2.3860 h1        1 230      0.106500
     45 H241       -6.6100    2.6280   -2.0570 h1        1 230      0.078333
     46 H242       -5.9580    4.0640   -2.2380 h1        1 230      0.078333
     47 H243       -6.0460    3.4130   -0.7800 h1        1 230      0.078333
     48 H2          4.0430    0.1510    3.0880 ha        1 230      0.141000
     49 H3          1.6930   -0.1920    3.0800 ha        1 230      0.145000
     50 H9         -2.8050   -6.5190    0.1120 ha        1 230      0.163000
     51 H12        -1.7820   -3.7330   -3.4970 ha        1 230      0.136000
     52 HN2        -3.6170   -2.1210   -2.2850 hn        1 230      0.233000
     53 H14         5.7940    0.4050   -0.0430 h4        1 230      0.158000
     54 H16         8.0290    3.1740    3.3170 ha        1 230      0.164000
     55 H18         8.2710    0.4460    0.0900 ha        1 230      0.152000
     56 H19        -4.9990    1.5040   -0.3070 h1        1 230      0.090000
@<TRIPOS>BOND
     1    1    3 1   
     2    1    6 1   
     3    1   35 1   
     4    2   10 1   
     5    2   16 1   
     6    2   26 1   
     7    3    4 1   
     8    3   18 1   
     9    4   19 1   
    10    5   16 1   
    11    5   36 1   
    12    6   13 1   
    13    6   20 1   
    14    7    9 1   
    15    7   24 1   
    16    8   21 1   
    17    8   37 1   
    18    9   38 1   
    19   10   27 1   
    20   10   29 1   
    21   11   27 1   
    22   11   39 1   
    23   12   13 1   
    24   12   30 1   
    25   12   40 1   
    26   12   41 1   
    27   13   31 1   
    28   13   42 1   
    29   14   30 1   
    30   14   31 1   
    31   14   43 1   
    32   14   44 1   
    33   15   32 1   
    34   15   45 1   
    35   15   46 1   
    36   15   47 1   
    37   16   17 1   
    38   17   18 1   
    39   17   48 1   
    40   18   49 1   
    41   21   50 1   
    42   22   23 1   
    43   22   25 1   
    44   23   51 1   
    45   25   33 1   
    46   25   52 1   
    47   26   28 1   
    48   26   53 1   
    49   27   54 1   
    50   28   55 1   
    51   30   32 1   
    52   30   56 1   
    53   31   33 1   
    54   33   34 1   
@<TRIPOS>SUBSTRUCTURE
     1 230         1 TEMP              0 ****  ****    0 ROOT
