@<TRIPOS>MOLECULE
230
   56    59     1     0     0
SMALL
bcc


@<TRIPOS>ATOM
      1 N1         -0.5410    1.3410   -0.5390 n         1 230     -0.458100
      2 N3         -5.5910   -0.9080    0.7460 n         1 230     -0.256200
      3 C4         -1.7970    0.8170   -0.2050 ca        1 230      0.044600
      4 C5         -2.1500   -0.4930   -0.6590 ca        1 230      0.081900
      5 C6         -3.3900   -1.0630   -0.3420 ca        1 230     -0.119000
      6 C7         -0.1250    2.6500   -0.3710 c         1 230      0.672100
      7 C8          4.9300   -3.7230   -0.9970 ca        1 230     -0.002600
      8 C10         4.7080   -1.9110    0.5810 ca        1 230     -0.149000
      9 C13         4.3320   -2.9410   -1.9880 ca        1 230     -0.101000
     10 C15        -5.7230   -2.2620    1.1630 c         1 230      0.689700
     11 C17        -8.1460   -1.8820    1.4220 cc        1 230     -0.039000
     12 C20         1.6640    4.4460   -0.5940 c3        1 230     -0.091400
     13 C21         1.3250    2.9600   -0.8270 c3        1 230      0.025700
     14 C22         3.2590    3.0010    0.6020 c3        1 230      0.037000
     15 C1         -4.3170   -0.3480    0.4350 ca        1 230      0.023600
     16 C2         -3.9690    0.9350    0.9000 ca        1 230     -0.134000
     17 C3         -2.7420    1.5020    0.5840 ca        1 230     -0.133000
     18 F1         -1.2800   -1.2150   -1.4110 f         1 230     -0.135900
     19 O1         -0.8580    3.5510    0.0730 o         1 230     -0.591100
     20 C9          5.1170   -3.2060    0.2880 ca        1 230     -0.101000
     21 C11         4.1080   -1.1030   -0.4150 ca        1 230      0.058600
     22 C12         3.9250   -1.6410   -1.7060 ca        1 230     -0.149000
     23 N2          3.7790    0.2290   -0.0920 n         1 230     -0.449100
     24 C14        -6.7090   -0.0960    0.6590 cd        1 230      0.016600
     25 C16        -7.0760   -2.7100    1.5110 cd        1 230     -0.255200
     26 C18        -7.9670   -0.5360    0.9780 cc        1 230     -0.250000
     27 O2         -4.7230   -3.0020    1.2150 o         1 230     -0.628500
     28 C19         2.9280    4.4780    0.2700 c3        1 230      0.130100
     29 N4          2.3080    2.1550   -0.0980 n         1 230     -0.441800
     30 O3          2.6170    5.2080    1.4500 os        1 230     -0.401600
     31 C23         2.7150    0.9290   -0.6840 c         1 230      0.758100
     32 O4          2.0970    0.4920   -1.6860 o         1 230     -0.636100
     33 HN1         0.0830    0.7050   -0.9990 hn        1 230      0.355500
     34 H6         -3.6080   -2.0880   -0.6880 ha        1 230      0.178000
     35 H10         4.8600   -1.5260    1.6010 ha        1 230      0.154500
     36 H13         4.1780   -3.3480   -3.0000 ha        1 230      0.151000
     37 H17        -9.1590   -2.2230    1.6830 ha        1 230      0.141000
     38 H201        1.8460    4.9510   -1.5730 hc        1 230      0.092200
     39 H202        0.8260    4.9780   -0.0690 hc        1 230      0.092200
     40 H21         1.3690    2.7270   -1.9350 h1        1 230      0.091700
     41 H221        4.3210    2.7820    0.3050 h1        1 230      0.061200
     42 H222        3.1460    2.8230    1.7080 h1        1 230      0.061200
     43 H2         -4.6650    1.5080    1.5340 ha        1 230      0.143000
     44 H3         -2.5130    2.5110    0.9690 ha        1 230      0.180000
     45 H9          5.5830   -3.8210    1.0730 ha        1 230      0.151000
     46 H12         3.4470   -1.0430   -2.5000 ha        1 230      0.154500
     47 HN2         4.0640    0.5190    0.8200 hn        1 230      0.317500
     48 H14        -6.5300    0.9370    0.3040 h4        1 230      0.159000
     49 H16        -7.1460   -3.7550    1.8450 ha        1 230      0.164000
     50 H18        -8.8300    0.1340    0.8900 ha        1 230      0.152000
     51 H19         3.7880    4.9610   -0.2670 h1        1 230      0.052700
     52 C24         3.7620    5.6170    2.1810 c3        1 230      0.110700
     53 CL1         5.4300   -5.3080   -1.3520 cl        1 230     -0.090400
     54 H241        4.3580    4.7300    2.5090 h1        1 230      0.037033
     55 H242        4.4000    6.3000    1.5670 h1        1 230      0.037033
     56 H243        3.3440    6.1590    3.0660 h1        1 230      0.037033
@<TRIPOS>BOND
     1    1    3 1   
     2    1    6 1   
     3    1   33 1   
     4    2   10 1   
     5    2   15 1   
     6    2   24 1   
     7    3    4 ar  
     8    3   17 ar  
     9    4    5 ar  
    10    4   18 1   
    11    5   15 ar  
    12    5   34 1   
    13    6   13 1   
    14    6   19 2   
    15    7    9 ar  
    16    7   20 ar  
    17    7   53 1   
    18    8   20 ar  
    19    8   21 ar  
    20    8   35 1   
    21    9   22 ar  
    22    9   36 1   
    23   10   25 1   
    24   10   27 2   
    25   11   25 2   
    26   11   26 1   
    27   11   37 1   
    28   12   13 1   
    29   12   28 1   
    30   12   38 1   
    31   12   39 1   
    32   13   29 1   
    33   13   40 1   
    34   14   28 1   
    35   14   29 1   
    36   14   41 1   
    37   14   42 1   
    38   15   16 ar  
    39   16   17 ar  
    40   16   43 1   
    41   17   44 1   
    42   20   45 1   
    43   21   22 ar  
    44   21   23 1   
    45   22   46 1   
    46   23   31 1   
    47   23   47 1   
    48   24   26 2   
    49   24   48 1   
    50   25   49 1   
    51   26   50 1   
    52   28   30 1   
    53   28   51 1   
    54   29   31 1   
    55   30   52 1   
    56   31   32 2   
    57   52   54 1   
    58   52   55 1   
    59   52   56 1   
@<TRIPOS>SUBSTRUCTURE
     1 230         1 TEMP              0 ****  ****    0 ROOT
