@<TRIPOS>MOLECULE
230
   58    56     1     0     0
SMALL
bcc


@<TRIPOS>ATOM
      1 N1          0.1130    0.2990   -2.2340 n4        1 230     -0.012000
      2 N3          4.7590   -0.8130    0.8720 n         1 230     -0.250000
      3 C4          1.2820   -0.0380   -1.4360 ca        1 230     -0.231000
      4 C5          1.1890   -0.1930   -0.0270 ca        1 230      0.155000
      5 C6          2.3250   -0.4600    0.7410 ca        1 230     -0.199000
      6 C7         -0.6680   -0.9020   -2.7280 c2        1 230      0.284000
      7 C8         -0.2690   -5.7110   -3.6630 c2        1 230     -0.039000
      8 C10        -1.7090   -3.9860   -4.9850 c3        1 230     -0.195000
      9 C13        -1.5160   -6.2790   -3.0510 c2        1 230     -0.081000
     10 C15         4.8580   -0.7490    2.2810 c2        1 230      0.274000
     11 C17         7.4030    0.6930    1.0360 c2        1 230     -0.512000
     12 C20        -2.1790    2.5070   -1.4240 c1        1 230     -0.231000
     13 C21        -1.4750   -1.5670   -1.8050 c2        1 230     -0.447000
     14 C22        -5.4850   -1.5240   -2.7440 c1        1 230     -0.066000
     15 C1          3.6000   -0.5680    0.1330 ca        1 230      0.175000
     16 C2          3.6720   -0.4230   -1.2840 ca        1 230     -0.184000
     17 C3          2.5460   -0.1690   -2.0420 ca        1 230     -0.051000
     18 F1         -0.0140   -0.0740    0.5850 f         1 230     -0.095000
     19 O1         -0.5340   -1.1380   -3.9500 o         1 230     -0.411000
     20 C9         -0.6740   -4.8240   -4.5440 c1        1 230      0.239000
     21 C11        -3.0010   -4.5580   -4.2020 c3        1 230      0.093000
     22 C12        -2.7050   -5.6840   -3.2390 c2        1 230     -0.161000
     23 N2         -3.8110   -3.5020   -3.6480 n3        1 230     -0.262000
     24 C14         5.9480   -1.1250    0.1570 c2        1 230     -0.125000
     25 C16         8.5870    1.2460    1.2530 c1        1 230      0.324000
     26 C18         7.1260   -0.4730    0.2420 c2        1 230     -0.033000
     27 O2          3.9130   -0.4690    3.0210 o         1 230     -0.300000
     28 C19        -1.2920    3.2750   -1.6600 c1        1 230     -0.231000
     29 N4         -4.2230   -1.5380   -2.3010 n3        1 230     -0.200000
     30 O3         -4.9570    0.7770   -0.7310 o         1 230     -0.395000
     31 C23        -3.3840   -2.5660   -2.7610 c2        1 230      0.375000
     32 O4         -2.0910   -2.7020   -2.3120 os        1 230     -0.086000
     33 HN1         0.4250    0.8230   -3.0680 hn        1 230      0.262500
     34 H6          2.1900   -0.5660    1.8350 ha        1 230      0.216000
     35 H13        -1.3660   -7.1910   -2.4430 ha        1 230      0.234000
     36 H17         6.5390    1.2110    1.5110 ha        1 230      0.195000
     37 H201       -1.5580   -1.4200   -0.7290 h4        1 230      0.205000
     38 H202        1.4730    0.7250   -4.9560 ha        1 230      0.002500
     39 H21         0.9640    0.3710   -5.2290 ha        1 230      0.002500
     40 H221       -6.1180   -0.7050   -2.3460 ha        1 230      0.133000
     41 H222       -3.7890   -0.8880   -1.6560 hn        1 230      0.272000
     42 H2          4.6460   -0.4880   -1.7990 ha        1 230      0.174000
     43 H3          2.6510   -0.0530   -3.1360 ha        1 230      0.160000
     44 H9         -1.5040   -2.8960   -4.7130 hc        1 230      0.216500
     45 H12        -3.5940   -6.0610   -2.6890 ha        1 230      0.214000
     46 HN2        -3.6270   -5.0200   -5.0410 h1        1 230      0.190000
     47 H14         5.8430   -2.0120   -0.4980 h4        1 230      0.152000
     48 H16         5.8890   -0.9810    2.6420 h5        1 230      0.178000
     49 H18         7.9730   -0.8750   -0.3470 ha        1 230      0.159000
     50 H19        -0.5260    3.9870   -1.8580 ha        1 230      0.236000
     51 C24        -5.6060    1.5640   -0.0320 c2        1 230      0.191000
     52 CL1         1.2280   -6.2360   -3.2210 cl        1 230      0.233000
     53 H241       -5.1540    2.4970    0.3640 h4        1 230      0.105000
     54 H242       -6.6690    1.3730    0.2280 h4        1 230      0.105000
     55 H243       -3.0000    1.8660   -1.2000 ha        1 230      0.236000
     56 H121       -0.5130    0.8990   -1.6720 hn        1 230      0.262500
     57 H22        -4.7850   -3.4490   -3.9400 hn        1 230      0.327000
     58 H10        -1.9090   -4.0320   -6.0930 hc        1 230      0.216500
@<TRIPOS>BOND
     1    1    3 1   
     2    1    6 1   
     3    1   33 1   
     4    1   56 1   
     5    2   10 1   
     6    2   15 1   
     7    2   24 1   
     8    3    4 1   
     9    3   17 1   
    10    4    5 1   
    11    4   18 1   
    12    5   15 1   
    13    5   34 1   
    14    6   13 1   
    15    6   19 1   
    16    7    9 1   
    17    7   20 1   
    18    7   52 1   
    19    8   20 1   
    20    8   21 1   
    21    8   44 1   
    22    8   58 1   
    23    9   22 1   
    24    9   35 1   
    25   10   27 1   
    26   10   48 1   
    27   11   25 1   
    28   11   26 1   
    29   11   36 1   
    30   12   28 1   
    31   12   55 1   
    32   13   32 1   
    33   13   37 1   
    34   14   29 1   
    35   14   40 1   
    36   15   16 1   
    37   16   17 1   
    38   16   42 1   
    39   17   43 1   
    40   21   22 1   
    41   21   23 1   
    42   21   46 1   
    43   22   45 1   
    44   23   31 1   
    45   23   57 1   
    46   24   26 1   
    47   24   47 1   
    48   26   49 1   
    49   28   50 1   
    50   29   31 1   
    51   29   41 1   
    52   30   51 1   
    53   31   32 1   
    54   38   39 1   
    55   51   53 1   
    56   51   54 1   
@<TRIPOS>SUBSTRUCTURE
     1 230         1 TEMP              0 ****  ****    0 ROOT
