@<TRIPOS>MOLECULE
230
   56    57     1     0     0
SMALL
bcc


@<TRIPOS>ATOM
      1 N1          0.9000   -1.0610   -0.1760 nu        1 230     -0.218000
      2 N3          6.4710    0.0270   -0.0750 n         1 230     -0.348000
      3 C4          2.2990   -0.8730   -0.1820 ca        1 230      0.020000
      4 C5          3.0280   -0.8670    1.0460 ca        1 230      0.050000
      5 C6          4.3950   -0.5660    1.0780 ca        1 230     -0.134000
      6 C7          0.2620   -1.9290   -1.0820 c2        1 230      0.124000
      7 C8         -3.6170   -6.1730   -5.4090 cx        1 230     -0.100000
      8 C10        -2.6570   -5.2180   -4.6870 cu        1 230     -0.184000
      9 C13        -3.9030   -7.1660   -4.3270 c2        1 230     -0.130000
     10 C15         7.4040   -0.9010    0.3790 c2        1 230      0.261000
     11 C17         6.6630    2.6110    1.4430 c2        1 230     -0.520000
     12 C20        -3.0870    3.1700   -3.1530 c3        1 230     -0.308000
     13 C21        -0.8880   -2.6040   -0.7820 c2        1 230     -0.187000
     14 C22        -3.3960   -0.7700   -2.7070 c1        1 230     -0.196000
     15 C1          5.0840   -0.2810   -0.1140 ca        1 230      0.042000
     16 C2          4.3730   -0.3020   -1.3310 ca        1 230     -0.140000
     17 C3          3.0140   -0.5810   -1.3600 ca        1 230     -0.104000
     18 F1          2.3920   -1.1430    2.2140 f         1 230     -0.109000
     19 O1          0.8730   -2.0400   -2.3180 oh        1 230     -0.262000
     20 C9         -2.2330   -5.7750   -5.8080 cu        1 230     -0.084000
     21 C11        -2.7480   -5.3340   -3.2050 c3        1 230      0.104000
     22 C12        -3.4960   -6.6920   -3.1280 c2        1 230     -0.173000
     23 N2         -3.4220   -4.2900   -2.4790 n7        1 230     -0.282000
     24 C14         6.9170    1.2590   -0.7020 c3        1 230     -0.086000
     25 C16         6.1250    1.7100    2.2510 c1        1 230      0.324000
     26 C18         7.0120    2.4890    0.0790 c1        1 230     -0.019000
     27 O2          7.1030   -1.9890    0.8850 o         1 230     -0.328000
     28 C19        -4.3560    3.3080   -2.4010 c1        1 230     -0.006000
     29 N4         -2.9510   -1.8560   -2.7370 n2        1 230     -0.003000
     30 O3         -4.8670    2.1270   -2.0740 os        1 230     -0.226000
     31 C23        -2.7800   -3.1350   -2.0390 c2        1 230      0.042000
     32 O4         -1.4140   -3.4210   -1.7780 os        1 230     -0.221000
     33 HN1         0.5270   -1.1610    0.7510 hn        1 230      0.221000
     34 H6          4.9230   -0.5760    2.0470 ha        1 230      0.174000
     35 H10        -1.7080   -5.4570   -2.7750 h1        1 230      0.149000
     36 H13        -4.4230   -8.1020   -4.5300 ha        1 230      0.159000
     37 H17         6.8640    3.6280    1.8610 ha        1 230      0.213000
     38 H201       -1.4350   -2.5730    0.1630 h4        1 230      0.165000
     39 H202       -3.2190    3.6920   -4.1350 hc        1 230      0.106000
     40 H21        -2.7490    2.1210   -3.3420 hc        1 230      0.106000
     41 H221       -3.8430    0.1930   -2.5640 ha        1 230      0.279000
     42 H222       -5.9110    1.6510   -0.3760 h1        1 230      0.096333
     43 H2          4.8900   -0.1020   -2.2830 ha        1 230      0.139000
     44 H3          2.4910   -0.5820   -2.3320 ha        1 230      0.168000
     45 H9         -1.5090   -5.8750   -6.5910 ha        1 230      0.201000
     46 H12        -3.6190   -7.1610   -2.1510 ha        1 230      0.160000
     47 HN2        -4.3770   -4.1610   -2.7370 hn        1 230      0.216000
     48 H14         7.9450    1.1030   -1.1550 h1        1 230      0.146500
     49 H16         8.4600   -0.5580    0.2650 h5        1 230      0.125000
     50 H18         6.2240    1.5160   -1.5660 h1        1 230      0.146500
     51 H19        -2.2940    3.7100   -2.5760 hc        1 230      0.106000
     52 C24        -6.1040    2.1860   -1.3380 c3        1 230     -0.065000
     53 Cl1        -4.9580   -5.7450   -6.3850 cl        1 230     -0.051000
     54 H241        0.2500   -2.5100   -2.8990 ho        1 230      0.247000
     55 H242       -6.8550    1.6400   -1.9580 h1        1 230      0.096333
     56 H243       -6.4170    3.2420   -1.1590 h1        1 230      0.096333
@<TRIPOS>BOND
     1    1    3 1   
     2    1    6 1   
     3    1   33 1   
     4    2   10 1   
     5    2   15 1   
     6    2   24 1   
     7    3    4 1   
     8    3   17 1   
     9    4    5 1   
    10    4   18 1   
    11    5   15 1   
    12    5   34 1   
    13    6   13 1   
    14    6   19 1   
    15    7    8 1   
    16    7    9 1   
    17    7   20 1   
    18    7   53 1   
    19    8   20 1   
    20    8   21 1   
    21    9   22 1   
    22    9   36 1   
    23   10   27 1   
    24   10   49 1   
    25   11   25 1   
    26   11   26 1   
    27   11   37 1   
    28   12   28 1   
    29   12   39 1   
    30   12   40 1   
    31   12   51 1   
    32   13   32 1   
    33   13   38 1   
    34   14   29 1   
    35   14   41 1   
    36   15   16 1   
    37   16   17 1   
    38   16   43 1   
    39   17   44 1   
    40   19   54 1   
    41   20   45 1   
    42   21   22 1   
    43   21   23 1   
    44   21   35 1   
    45   22   46 1   
    46   23   31 1   
    47   23   47 1   
    48   24   26 1   
    49   24   48 1   
    50   24   50 1   
    51   28   30 1   
    52   29   31 1   
    53   30   52 1   
    54   31   32 1   
    55   42   52 1   
    56   52   55 1   
    57   52   56 1   
@<TRIPOS>SUBSTRUCTURE
     1 230         1 TEMP              0 ****  ****    0 ROOT
