@<TRIPOS>MOLECULE
233
   52    52     1     0     0
SMALL
bcc


@<TRIPOS>ATOM
      1 C1          0.4320   -0.8130    0.0300 c3        1 233      0.344300
      2 C2          1.7160   -0.0290    0.4000 c3        1 233      0.107100
      3 C3          1.3970    0.8510    1.6220 c3        1 233      0.075100
      4 C4          0.2270    1.7900    1.2660 c3        1 233      0.088100
      5 C5         -0.9780    0.9690    0.7930 c3        1 233      0.124100
      6 C6         -2.0780    1.8520    0.1860 c3        1 233      0.137400
      7 O2          2.7010   -1.0030    0.6610 oh        1 233     -0.617800
      8 O3          2.5720    1.6070    1.8460 oh        1 233     -0.591800
      9 O4          0.5900    2.6660    0.2160 oh        1 233     -0.589800
     10 O5         -0.6300    0.0730   -0.2810 os        1 233     -0.435600
     11 O6         -3.1700    1.0560   -0.2180 oh        1 233     -0.604800
     12 N1          0.6470   -1.6220   -1.2300 n4        1 233     -0.685800
     13 O7         -0.6810   -3.5170   -1.2570 o         1 233     -0.409100
     14 C7         -0.6090   -2.3630   -1.6460 c         1 233      0.560100
     15 C8         -1.5980   -1.5850   -2.4640 c3        1 233     -0.154400
     16 C9         -2.6750   -2.5080   -3.0050 c3        1 233     -0.080400
     17 C10        -3.6930   -1.7200   -3.8050 c3        1 233     -0.078400
     18 C11        -4.7570   -2.6480   -4.3640 c3        1 233     -0.108400
     19 C12        -5.7490   -1.8350   -5.1860 c3        1 233      0.108800
     20 N13        -6.8160   -2.6850   -5.8040 n4        1 233     -0.640800
     21 C14        -7.6550   -1.8940   -6.7670 c         1 233      0.611100
     22 O15        -7.1730   -1.1030   -7.5630 o         1 233     -0.402000
     23 O16        -8.9560   -2.1980   -6.6110 os        1 233     -0.392900
     24 C17        -9.8770   -1.5320   -7.5180 c3        1 233      0.132700
     25 H1          0.1380   -1.5340    0.8510 hx        1 233      0.118700
     26 H2          2.0400    0.6430   -0.4470 h1        1 233      0.097700
     27 H3          1.1420    0.2170    2.5130 h1        1 233      0.076700
     28 H4         -0.0670    2.3860    2.1760 h1        1 233      0.080700
     29 H5         -1.3710    0.3530    1.6480 h1        1 233      0.065700
     30 H9         -2.3710    2.6300    0.9380 h1        1 233      0.091200
     31 H10        -1.6970    2.3450   -0.7500 h1        1 233      0.091200
     32 H6          3.4440   -0.5570    1.0990 ho        1 233      0.470000
     33 H7          2.5550    1.9150    2.7630 ho        1 233      0.442000
     34 H8          1.3910    3.1340    0.5000 ho        1 233      0.441000
     35 H11        -3.7270    0.9070    0.5560 ho        1 233      0.412000
     36 H12         0.9370   -0.9890   -1.9820 hn        1 233      0.476300
     37 H13        -1.0760   -1.0600   -3.3090 hc        1 233      0.122700
     38 H14        -2.0560   -0.7880   -1.8000 hc        1 233      0.122700
     39 H15        -2.2060   -3.2970   -3.6530 hc        1 233      0.073200
     40 H16        -3.1800   -3.0360   -2.1530 hc        1 233      0.073200
     41 H17        -4.1710   -0.9440   -3.1490 hc        1 233      0.067700
     42 H18        -3.1810   -1.1820   -4.6460 hc        1 233      0.067700
     43 H19        -4.2690   -3.4340   -5.0010 hc        1 233      0.074200
     44 H20        -5.2810   -3.1700   -3.5180 hc        1 233      0.074200
     45 H21        -5.2150   -1.2970   -6.0260 hx        1 233      0.122200
     46 H22        -6.2610   -1.0660   -4.5380 hx        1 233      0.122200
     47 H23        -7.4230   -3.0850   -5.0750 hn        1 233      0.476300
     48 H24       -10.8620   -1.9500   -7.1830 h1        1 233      0.097033
     49 H25        -9.8100   -0.4290   -7.3660 h1        1 233      0.097033
     50 H26        -9.6300   -1.8180   -8.5680 h1        1 233      0.097033
     51 H121        1.4120   -2.2850   -1.0260 hn        1 233      0.476300
     52 H132       -6.3830   -3.4590   -6.3270 hn        1 233      0.476300
@<TRIPOS>BOND
     1    1    2 1   
     2    1   10 1   
     3    1   12 1   
     4    1   25 1   
     5    2    3 1   
     6    2    7 1   
     7    2   26 1   
     8    3    4 1   
     9    3    8 1   
    10    3   27 1   
    11    4    5 1   
    12    4    9 1   
    13    4   28 1   
    14    5    6 1   
    15    5   10 1   
    16    5   29 1   
    17    6   11 1   
    18    6   30 1   
    19    6   31 1   
    20    7   32 1   
    21    8   33 1   
    22    9   34 1   
    23   11   35 1   
    24   12   14 1   
    25   12   36 1   
    26   12   51 1   
    27   13   14 2   
    28   14   15 1   
    29   15   16 1   
    30   15   37 1   
    31   15   38 1   
    32   16   17 1   
    33   16   39 1   
    34   16   40 1   
    35   17   18 1   
    36   17   41 1   
    37   17   42 1   
    38   18   19 1   
    39   18   43 1   
    40   18   44 1   
    41   19   20 1   
    42   19   45 1   
    43   19   46 1   
    44   20   21 1   
    45   20   47 1   
    46   20   52 1   
    47   21   22 2   
    48   21   23 1   
    49   23   24 1   
    50   24   48 1   
    51   24   49 1   
    52   24   50 1   
@<TRIPOS>SUBSTRUCTURE
     1 233         1 TEMP              0 ****  ****    0 ROOT
