@<TRIPOS>MOLECULE
233
   52    52     1     0     0
SMALL
bcc


@<TRIPOS>ATOM
      1 C1          0.4660   -0.7980   -0.0170 c3        1 233      0.344300
      2 C2          1.7410    0.0030    0.3480 c3        1 233      0.107100
      3 C3          1.4240    0.8540    1.5910 c3        1 233      0.075100
      4 C4          0.2330    1.7780    1.2710 c3        1 233      0.088100
      5 C5         -0.9640    0.9430    0.8000 c3        1 233      0.124100
      6 C6         -2.0900    1.8170    0.2260 c3        1 233      0.137400
      7 O2          2.7480   -0.9580    0.5770 oh        1 233     -0.617800
      8 O3          2.5890    1.6270    1.8120 oh        1 233     -0.591800
      9 O4          0.5640    2.6780    0.2310 oh        1 233     -0.589800
     10 O5         -0.6160    0.0740   -0.2950 os        1 233     -0.435600
     11 O6         -3.1720    1.0080   -0.1770 oh        1 233     -0.604800
     12 N1          0.6760   -1.5800   -1.2950 ny        1 233     -0.685800
     13 O7         -0.6180   -3.4990   -1.3360 o         1 233     -0.409100
     14 C7         -0.5720   -2.3360   -1.7050 c         1 233      0.560100
     15 C8         -1.5870   -1.5620   -2.4940 c3        1 233     -0.154400
     16 C9         -2.6550   -2.4950   -3.0360 c3        1 233     -0.080400
     17 C10        -3.7000   -1.7110   -3.8060 c3        1 233     -0.078400
     18 C11        -4.7550   -2.6480   -4.3670 c3        1 233     -0.108400
     19 C12        -5.7740   -1.8380   -5.1590 c3        1 233      0.108800
     20 N13        -6.8340   -2.6970   -5.7770 ny        1 233     -0.640800
     21 C14        -7.7010   -1.9040   -6.7120 c         1 233      0.611100
     22 O15        -7.2470   -1.0890   -7.4990 o         1 233     -0.402000
     23 O16        -8.9940   -2.2360   -6.5440 os        1 233     -0.392900
     24 C17        -9.9400   -1.5710   -7.4250 c3        1 233      0.132700
     25 H1          0.1980   -1.5400    0.7950 hx        1 233      0.118700
     26 H2          2.0400    0.6950   -0.4910 h1        1 233      0.097700
     27 H3          1.1950    0.1990    2.4740 h1        1 233      0.076700
     28 H4         -0.0580    2.3520    2.1960 h1        1 233      0.080700
     29 H5         -1.3320    0.3040    1.6500 h1        1 233      0.065700
     30 H9         -2.3850    2.5740    0.9970 h1        1 233      0.091200
     31 H10        -1.7310    2.3330   -0.7060 h1        1 233      0.091200
     32 H6          3.4890   -0.5060    1.0120 ho        1 233      0.470000
     33 H7          2.5800    1.9180    2.7350 ho        1 233      0.442000
     34 H8          1.3600    3.1560    0.5120 ho        1 233      0.441000
     35 H11        -3.7150    0.8340    0.6030 ho        1 233      0.412000
     36 H12         1.4560   -2.2320   -1.1140 hn        1 233      0.476300
     37 H13        -1.0870   -1.0120   -3.3370 hc        1 233      0.122700
     38 H14        -2.0490   -0.7860   -1.8090 hc        1 233      0.122700
     39 H15        -3.1380   -3.0470   -2.1860 hc        1 233      0.073200
     40 H16        -2.1820   -3.2630   -3.7050 hc        1 233      0.073200
     41 H17        -4.1810   -0.9560   -3.1280 hc        1 233      0.067700
     42 H18        -3.2100   -1.1480   -4.6440 hc        1 233      0.067700
     43 H19        -4.2620   -3.4130   -5.0260 hc        1 233      0.074200
     44 H20        -5.2560   -3.1950   -3.5240 hc        1 233      0.074200
     45 H21        -5.2620   -1.2750   -5.9960 hx        1 233      0.122200
     46 H22        -6.2900   -1.0920   -4.4880 hx        1 233      0.122200
     47 H23        -6.3950   -3.4530   -6.3200 hn        1 233      0.476300
     48 H24       -10.9120   -2.0140   -7.0840 h1        1 233      0.097033
     49 H25        -9.8920   -0.4700   -7.2530 h1        1 233      0.097033
     50 H26        -9.7040   -1.8320   -8.4840 h1        1 233      0.097033
     51 H121        0.9430   -0.9280   -2.0390 hn        1 233      0.476300
     52 H132       -7.4220   -3.1220   -5.0470 hn        1 233      0.476300
@<TRIPOS>BOND
     1    1    2 1   
     2    1   10 1   
     3    1   12 1   
     4    1   25 1   
     5    2    3 1   
     6    2    7 1   
     7    2   26 1   
     8    3    4 1   
     9    3    8 1   
    10    3   27 1   
    11    4    5 1   
    12    4    9 1   
    13    4   28 1   
    14    5    6 1   
    15    5   10 1   
    16    5   29 1   
    17    6   11 1   
    18    6   30 1   
    19    6   31 1   
    20    7   32 1   
    21    8   33 1   
    22    9   34 1   
    23   11   35 1   
    24   12   14 1   
    25   12   36 1   
    26   12   51 1   
    27   13   14 2   
    28   14   15 1   
    29   15   16 1   
    30   15   37 1   
    31   15   38 1   
    32   16   17 1   
    33   16   39 1   
    34   16   40 1   
    35   17   18 1   
    36   17   41 1   
    37   17   42 1   
    38   18   19 1   
    39   18   43 1   
    40   18   44 1   
    41   19   20 1   
    42   19   45 1   
    43   19   46 1   
    44   20   21 1   
    45   20   47 1   
    46   20   52 1   
    47   21   22 2   
    48   21   23 1   
    49   23   24 1   
    50   24   48 1   
    51   24   49 1   
    52   24   50 1   
@<TRIPOS>SUBSTRUCTURE
     1 233         1 TEMP              0 ****  ****    0 ROOT
