@<TRIPOS>MOLECULE
233
   50    50     1     0     0
SMALL
bcc


@<TRIPOS>ATOM
      1 C1          0.3680    0.3380   -3.0150 c3        1 233      0.253500
      2 C2          1.5800    0.2030   -3.9780 c3        1 233      0.084100
      3 C3          1.2410    0.8990   -5.3070 c3        1 233      0.112100
      4 C4         -0.0420    0.3010   -5.9060 c3        1 233      0.122100
      5 C5         -1.1620    0.3440   -4.8570 c3        1 233      0.112100
      6 C6         -2.3970   -0.4270   -5.3380 c3        1 233      0.142400
      7 O2          2.7230    0.8720   -3.4790 oh        1 233     -0.603800
      8 O3          2.2690    0.6840   -6.2580 oh        1 233     -0.608800
      9 O4          0.1470   -1.0440   -6.3050 oh        1 233     -0.593800
     10 O5         -0.7810   -0.2800   -3.6330 os        1 233     -0.449600
     11 O6         -3.4900   -0.2260   -4.4700 oh        1 233     -0.597800
     12 N1          0.5830   -0.3480   -1.7640 n         1 233     -0.552900
     13 O7         -0.1930    1.4100   -0.4970 o         1 233     -0.580100
     14 C7          0.1140    0.2080   -0.5670 c         1 233      0.650100
     15 C8          0.0770   -0.7170    0.6350 c3        1 233     -0.152400
     16 C9         -0.1900    0.0590    1.9070 c3        1 233     -0.075400
     17 C10        -0.2890   -0.8730    3.0960 c3        1 233     -0.076400
     18 C11        -0.5210   -0.0950    4.3730 c3        1 233     -0.113400
     19 C12        -0.6440   -1.0580    5.5550 c3        1 233      0.078000
     20 N13        -0.8890   -0.4350    6.8310 n         1 233     -0.512900
     21 C14         0.1860   -0.1190    7.6470 c         1 233      0.719100
     22 O15         1.3310   -0.6010    7.6380 o         1 233     -0.581000
     23 O16        -0.1330    0.8060    8.6230 os        1 233     -0.446900
     24 C17         0.8820    1.0310    9.6030 c3        1 233      0.138700
     25 H1          0.1550    1.4320   -2.8210 h2        1 233      0.098700
     26 H2          1.8110   -0.8810   -4.1710 h1        1 233      0.068700
     27 H3          1.1110    2.0030   -5.1330 h1        1 233      0.061700
     28 H4         -0.3460    0.9120   -6.8020 h1        1 233      0.058700
     29 H5         -1.4250    1.4200   -4.6540 h1        1 233      0.060700
     30 H9         -2.7280   -0.0240   -6.3320 h1        1 233      0.066700
     31 H10        -2.1490   -1.5180   -5.4260 h1        1 233      0.066700
     32 H6          2.9390    0.4820   -2.6230 ho        1 233      0.423000
     33 H7          3.0970    0.9530   -5.8380 ho        1 233      0.431000
     34 H8          0.9470   -1.0620   -6.8500 ho        1 233      0.425000
     35 H11        -3.2230   -0.5470   -3.5990 ho        1 233      0.411000
     36 H12         0.5630   -1.3430   -1.8280 hn        1 233      0.305500
     37 H13         1.0500   -1.2670    0.7230 hc        1 233      0.067700
     38 H14        -0.7340   -1.4760    0.4720 hc        1 233      0.067700
     39 H15        -1.1410    0.6450    1.7950 hc        1 233      0.061700
     40 H16         0.6330    0.8040    2.0700 hc        1 233      0.061700
     41 H17         0.6550   -1.4720    3.1870 hc        1 233      0.042700
     42 H18        -1.1300   -1.5990    2.9370 hc        1 233      0.042700
     43 H19        -1.4540    0.5210    4.2750 hc        1 233      0.050700
     44 H20         0.3320    0.6130    4.5420 hc        1 233      0.050700
     45 H21         0.2980   -1.6730    5.6310 h1        1 233      0.069700
     46 H22        -1.5100   -1.7570    5.3670 h1        1 233      0.069700
     47 H23        -1.6690    0.1830    6.8830 hn        1 233      0.312500
     48 H24         0.4180    1.7850   10.2860 h1        1 233      0.052367
     49 H25         1.1140    0.0790   10.1390 h1        1 233      0.052367
     50 H26         1.8030    1.4300    9.1140 h1        1 233      0.052367
@<TRIPOS>BOND
     1    1    2 1   
     2    1   10 1   
     3    1   12 1   
     4    1   25 1   
     5    2    3 1   
     6    2    7 1   
     7    2   26 1   
     8    3    4 1   
     9    3    8 1   
    10    3   27 1   
    11    4    5 1   
    12    4    9 1   
    13    4   28 1   
    14    5    6 1   
    15    5   10 1   
    16    5   29 1   
    17    6   11 1   
    18    6   30 1   
    19    6   31 1   
    20    7   32 1   
    21    8   33 1   
    22    9   34 1   
    23   11   35 1   
    24   12   14 1   
    25   12   36 1   
    26   13   14 2   
    27   14   15 1   
    28   15   16 1   
    29   15   37 1   
    30   15   38 1   
    31   16   17 1   
    32   16   39 1   
    33   16   40 1   
    34   17   18 1   
    35   17   41 1   
    36   17   42 1   
    37   18   19 1   
    38   18   43 1   
    39   18   44 1   
    40   19   20 1   
    41   19   45 1   
    42   19   46 1   
    43   20   21 1   
    44   20   47 1   
    45   21   22 2   
    46   21   23 1   
    47   23   24 1   
    48   24   48 1   
    49   24   49 1   
    50   24   50 1   
@<TRIPOS>SUBSTRUCTURE
     1 233         1 TEMP              0 ****  ****    0 ROOT
