@<TRIPOS>MOLECULE
233
   52    52     1     0     0
SMALL
bcc


@<TRIPOS>ATOM
      1 C1          0.3650   -0.8300    0.1170 c3        1 233      0.344300
      2 C2          1.6890   -0.1030    0.4640 c3        1 233      0.107100
      3 C3          1.3980    0.8910    1.6030 c3        1 233      0.075100
      4 C4          0.3030    1.8730    1.1390 c3        1 233      0.088100
      5 C5         -0.9410    1.0950    0.6950 c3        1 233      0.124100
      6 C6         -1.9640    1.9960   -0.0120 c3        1 233      0.137400
      7 O2          2.6000   -1.1150    0.8300 oh        1 233     -0.617800
      8 O3          2.6150    1.5840    1.8030 oh        1 233     -0.591800
      9 O4          0.7510    2.6350    0.0350 oh        1 233     -0.589800
     10 O5         -0.6270    0.0960   -0.2940 os        1 233     -0.435600
     11 O6         -3.0960    1.2420   -0.3860 oh        1 233     -0.604800
     12 N1          0.5570   -1.7490   -1.0690 n4        1 233     -0.685800
     13 O7         -0.8940   -3.5500   -0.9880 o         1 233     -0.409100
     14 C7         -0.7350   -2.4380   -1.4630 c         1 233      0.560100
     15 C8         -1.6490   -1.6650   -2.3680 c3        1 233     -0.154400
     16 C9         -2.7700   -2.5570   -2.8690 c3        1 233     -0.080400
     17 C10        -3.7150   -1.7710   -3.7570 c3        1 233     -0.078400
     18 C11        -4.8230   -2.6710   -4.2760 c3        1 233     -0.108400
     19 C12        -5.7390   -1.8620   -5.1860 c3        1 233      0.108800
     20 N13        -6.8430   -2.6890   -5.7690 n4        1 233     -0.640800
     21 C14        -7.6050   -1.9230   -6.8130 c         1 233      0.611100
     22 O15        -7.0550   -1.2260   -7.6500 o         1 233     -0.402000
     23 O16        -8.9270   -2.1330   -6.6730 os        1 233     -0.392900
     24 C17        -9.7800   -1.4820   -7.6540 c3        1 233      0.132700
     25 H1          0.0030   -1.4620    0.9830 hx        1 233      0.118700
     26 H2          2.0790    0.4760   -0.4230 h1        1 233      0.097700
     27 H3          1.0800    0.3470    2.5330 h1        1 233      0.076700
     28 H4          0.0270    2.5570    1.9910 h1        1 233      0.080700
     29 H5         -1.3960    0.5760    1.5840 h1        1 233      0.065700
     30 H9         -1.5280    2.3860   -0.9720 h1        1 233      0.091200
     31 H10        -2.2240    2.8490    0.6670 h1        1 233      0.091200
     32 H6          3.3600   -0.6840    1.2540 ho        1 233      0.470000
     33 H7          2.5960    1.9660    2.6920 ho        1 233      0.442000
     34 H8          1.5730    3.0710    0.3060 ho        1 233      0.441000
     35 H11        -3.6820    1.1920    0.3800 ho        1 233      0.412000
     36 H12         1.2700   -2.4410   -0.7900 hn        1 233      0.476300
     37 H13        -2.0690   -0.7900   -1.7830 hc        1 233      0.122700
     38 H14        -1.0720   -1.2430   -3.2360 hc        1 233      0.122700
     39 H15        -2.3390   -3.4230   -3.4400 hc        1 233      0.073200
     40 H16        -3.3310   -2.9830   -1.9940 hc        1 233      0.073200
     41 H17        -3.1470   -1.3330   -4.6210 hc        1 233      0.067700
     42 H18        -4.1570   -0.9170   -3.1770 hc        1 233      0.067700
     43 H19        -4.3710   -3.5320   -4.8370 hc        1 233      0.074200
     44 H20        -5.4000   -3.0910   -3.4090 hc        1 233      0.074200
     45 H21        -6.2160   -1.0150   -4.6120 hx        1 233      0.122200
     46 H22        -5.1510   -1.4250   -6.0470 hx        1 233      0.122200
     47 H23        -7.4920   -2.9930   -5.0310 hn        1 233      0.476300
     48 H24        -9.6470   -0.3770   -7.5830 h1        1 233      0.097033
     49 H25        -9.5260   -1.8610   -8.6730 h1        1 233      0.097033
     50 H26       -10.7980   -1.8120   -7.3190 h1        1 233      0.097033
     51 H121        0.9070   -1.1980   -1.8590 hn        1 233      0.476300
     52 H132       -6.4490   -3.5260   -6.2200 hn        1 233      0.476300
@<TRIPOS>BOND
     1    1    2 1   
     2    1   10 1   
     3    1   12 1   
     4    1   25 1   
     5    2    3 1   
     6    2    7 1   
     7    2   26 1   
     8    3    4 1   
     9    3    8 1   
    10    3   27 1   
    11    4    5 1   
    12    4    9 1   
    13    4   28 1   
    14    5    6 1   
    15    5   10 1   
    16    5   29 1   
    17    6   11 1   
    18    6   30 1   
    19    6   31 1   
    20    7   32 1   
    21    8   33 1   
    22    9   34 1   
    23   11   35 1   
    24   12   14 1   
    25   12   36 1   
    26   12   51 1   
    27   13   14 2   
    28   14   15 1   
    29   15   16 1   
    30   15   37 1   
    31   15   38 1   
    32   16   17 1   
    33   16   39 1   
    34   16   40 1   
    35   17   18 1   
    36   17   41 1   
    37   17   42 1   
    38   18   19 1   
    39   18   43 1   
    40   18   44 1   
    41   19   20 1   
    42   19   45 1   
    43   19   46 1   
    44   20   21 1   
    45   20   47 1   
    46   20   52 1   
    47   21   22 2   
    48   21   23 1   
    49   23   24 1   
    50   24   48 1   
    51   24   49 1   
    52   24   50 1   
@<TRIPOS>SUBSTRUCTURE
     1 233         1 TEMP              0 ****  ****    0 ROOT
