@<TRIPOS>MOLECULE
233
   50    50     1     0     0
SMALL
bcc


@<TRIPOS>ATOM
      1 C1          1.1490   -1.8730    2.4270 c3        1 233      0.262500
      2 C2          0.0980   -2.4910    3.2970 c3        1 233      0.080100
      3 C3          0.6240   -2.8570    4.6580 c3        1 233      0.081100
      4 C4          1.8540   -3.6800    4.5810 c3        1 233      0.079100
      5 C5          2.9180   -3.0530    3.6810 c3        1 233      0.111100
      6 C6          4.0310   -4.0120    3.5120 c3        1 233      0.130400
      7 O2         -0.9610   -1.5750    3.4490 oh        1 233     -0.564800
      8 O3         -0.3950   -3.6030    5.3680 oh        1 233     -0.574800
      9 O4          1.5110   -4.9840    4.0640 oh        1 233     -0.593800
     10 O5          2.3970   -2.7000    2.3590 os        1 233     -0.455600
     11 O6          5.2300   -3.3020    3.2540 oh        1 233     -0.602800
     12 N1          0.6290   -1.7170    1.1270 n         1 233     -0.552900
     13 O7          1.1340    0.5380    1.0740 o         1 233     -0.597100
     14 C7          0.6580   -0.4210    0.4880 c         1 233      0.666100
     15 C8          0.1630   -0.2690   -0.9790 c3        1 233     -0.149400
     16 C9         -0.1740    1.2230   -1.2650 c3        1 233     -0.074400
     17 C10        -1.0110    1.3220   -2.5530 c3        1 233     -0.076400
     18 C11        -0.9230    2.7210   -3.1040 c3        1 233     -0.113400
     19 C12        -2.1170    2.9790   -4.0550 c3        1 233      0.078000
     20 N13        -1.9370    4.2140   -4.7130 n         1 233     -0.512900
     21 C14        -3.0240    4.7950   -5.4620 c         1 233      0.719100
     22 O15        -4.0190    4.1640   -5.6520 o         1 233     -0.580000
     23 O16        -2.9400    6.1490   -5.9140 os        1 233     -0.447900
     24 C17        -4.0680    6.5720   -6.7110 c3        1 233      0.138700
     25 H1          1.3790   -0.9760    2.7920 h2        1 233      0.091700
     26 H2         -0.2500   -3.3200    2.8480 h1        1 233      0.082700
     27 H3          0.8270   -2.0190    5.1640 h1        1 233      0.084700
     28 H4          2.2200   -3.7830    5.4760 h1        1 233      0.109700
     29 H5          3.2570   -2.2510    4.1080 h1        1 233      0.079700
     30 H9          4.1340   -4.5460    4.3380 h1        1 233      0.048200
     31 H10         3.8420   -4.5930    2.7780 h1        1 233      0.048200
     32 H6         -0.9720   -1.2750    4.2770 ho        1 233      0.408000
     33 H7         -0.4040   -3.3550    6.2230 ho        1 233      0.417000
     34 H8          1.5960   -5.5640    4.6780 ho        1 233      0.409000
     35 H11         5.9320   -3.8290    3.4290 ho        1 233      0.410000
     36 H12         0.2980   -2.4190    0.6930 hn        1 233      0.313500
     37 H13         0.8660   -0.5680   -1.5940 hc        1 233      0.067200
     38 H14        -0.6410   -0.8170   -1.1110 hc        1 233      0.067200
     39 H15        -0.6810    1.5920   -0.5190 hc        1 233      0.062200
     40 H16         0.6270    1.7090   -1.3730 hc        1 233      0.062200
     41 H17        -1.9040    1.1190   -2.3620 hc        1 233      0.042700
     42 H18        -0.6680    0.6920   -3.2120 hc        1 233      0.042700
     43 H19        -0.9490    3.3530   -2.3790 hc        1 233      0.050200
     44 H20        -0.0720    2.8260   -3.6040 hc        1 233      0.050200
     45 H21        -2.1690    2.2560   -4.7230 h1        1 233      0.069200
     46 H22        -2.9410    3.0040   -3.5400 h1        1 233      0.069200
     47 H23        -1.1850    4.6410   -4.6380 hn        1 233      0.312500
     48 H24        -4.0050    7.5230   -6.8790 h1        1 233      0.052367
     49 H25        -4.0650    6.0820   -7.5740 h1        1 233      0.052367
     50 H26        -4.9000    6.3800   -6.2280 h1        1 233      0.052367
@<TRIPOS>BOND
     1    1    2 1   
     2    1   10 1   
     3    1   12 1   
     4    1   25 1   
     5    2    3 1   
     6    2    7 1   
     7    2   26 1   
     8    3    4 1   
     9    3    8 1   
    10    3   27 1   
    11    4    5 1   
    12    4    9 1   
    13    4   28 1   
    14    5    6 1   
    15    5   10 1   
    16    5   29 1   
    17    6   11 1   
    18    6   30 1   
    19    6   31 1   
    20    7   32 1   
    21    8   33 1   
    22    9   34 1   
    23   11   35 1   
    24   12   14 1   
    25   12   36 1   
    26   13   14 2   
    27   14   15 1   
    28   15   16 1   
    29   15   37 1   
    30   15   38 1   
    31   16   17 1   
    32   16   39 1   
    33   16   40 1   
    34   17   18 1   
    35   17   41 1   
    36   17   42 1   
    37   18   19 1   
    38   18   43 1   
    39   18   44 1   
    40   19   20 1   
    41   19   45 1   
    42   19   46 1   
    43   20   21 1   
    44   20   47 1   
    45   21   22 2   
    46   21   23 1   
    47   23   24 1   
    48   24   48 1   
    49   24   49 1   
    50   24   50 1   
@<TRIPOS>SUBSTRUCTURE
     1 233         1 TEMP              0 ****  ****    0 ROOT
