@<TRIPOS>MOLECULE
234
   45    47     1     0     0
SMALL
bcc


@<TRIPOS>ATOM
      1 C1          1.0690    1.0060    0.1620 ca        1 234      0.138900
      2 C2          1.7430   -0.1730    0.5670 ca        1 234     -0.111500
      3 C3          1.4400   -0.7110    1.8260 ca        1 234     -0.081000
      4 C4          0.5160   -0.1010    2.6820 ca        1 234     -0.096800
      5 C5         -0.1430    1.0620    2.2610 ca        1 234     -0.111000
      6 C6          0.1260    1.6110    1.0150 ca        1 234     -0.174000
      7 C7          2.7150   -0.8180   -0.2720 cc        1 234      0.225200
      8 O12         3.3350   -1.9920    0.2460 os        1 234     -0.168100
      9 N13         4.2060   -2.4610   -0.6390 nc        1 234     -0.374300
     10 C14         4.2150   -1.6770   -1.7260 cd        1 234      0.301800
     11 C15         3.2510   -0.5880   -1.5250 cd        1 234     -0.277600
     12 C16         5.0680   -1.8400   -2.9880 c         1 234      0.837100
     13 O1          6.1980   -1.2900   -2.9780 o         1 234     -0.799300
     14 O2          4.5500   -2.4790   -3.9370 o         1 234     -0.799300
     15 C8          0.2520   -0.7110    3.9760 ce        1 234     -0.081200
     16 C32         1.8440    1.6590    6.9900 ca        1 234      0.202100
     17 C33         2.8200    1.1080    6.1480 ca        1 234     -0.234000
     18 C34         4.1480    1.0710    6.5640 ca        1 234     -0.034000
     19 C35         4.5200    1.5700    7.8090 ca        1 234     -0.257000
     20 C36         3.5400    2.1140    8.6530 ca        1 234      0.190100
     21 C37         2.1930    2.1740    8.2570 ca        1 234     -0.180600
     22 C38         1.1750    2.7720    9.1360 c         1 234      0.683700
     23 O11         0.8000    3.9430    9.2010 o         1 234     -0.533000
     24 O4          0.5930    1.8630    9.9820 os        1 234     -0.426900
     25 C39        -0.4110    2.3660   10.8620 c3        1 234      0.126700
     26 O14         3.8450    2.6130    9.8970 oh        1 234     -0.492100
     27 O3          0.5070    1.7450    6.6750 os        1 234     -0.323900
     28 C40         0.1230    1.3930    5.3380 c3        1 234      0.160600
     29 C41         0.0900   -0.0780    5.1440 c2        1 234     -0.218200
     30 F1          1.3110    1.5730   -1.0430 f         1 234     -0.129900
     31 H3          1.9560   -1.6350    2.1410 ha        1 234      0.163000
     32 H5         -0.8900    1.5370    2.9140 ha        1 234      0.128000
     33 H6         -0.3920    2.5200    0.6790 ha        1 234      0.143000
     34 H15         3.0340    0.2050   -2.2320 ha        1 234      0.175000
     35 H8          0.2110   -1.8170    3.9540 ha        1 234      0.135000
     36 H33         2.5410    0.6920    5.1680 ha        1 234      0.163000
     37 H34         4.9120    0.6400    5.8980 ha        1 234      0.147000
     38 H35         5.5690    1.5390    8.1320 ha        1 234      0.138000
     39 H391        0.0250    3.1440   11.5340 h1        1 234      0.045700
     40 H392       -0.7370    1.4650   11.4360 h1        1 234      0.045700
     41 H393       -1.2540    2.8010   10.2720 h1        1 234      0.045700
     42 H14         4.8020    2.5350   10.0220 ho        1 234      0.424000
     43 H401       -0.9190    1.8210    5.2770 h1        1 234      0.072200
     44 H402        0.7850    1.9090    4.5930 h1        1 234      0.072200
     45 H41        -0.0890   -0.6540    6.0680 ha        1 234      0.140000
@<TRIPOS>BOND
     1    1    2 ar  
     2    1    6 ar  
     3    1   30 1   
     4    2    3 ar  
     5    2    7 1   
     6    3    4 ar  
     7    3   31 1   
     8    4    5 ar  
     9    4   15 1   
    10    5    6 ar  
    11    5   32 1   
    12    6   33 1   
    13    7    8 1   
    14    7   11 2   
    15    8    9 1   
    16    9   10 2   
    17   10   11 1   
    18   10   12 1   
    19   11   34 1   
    20   12   13 1   
    21   12   14 1   
    22   15   29 2   
    23   15   35 1   
    24   16   17 ar  
    25   16   21 ar  
    26   16   27 1   
    27   17   18 ar  
    28   17   36 1   
    29   18   19 ar  
    30   18   37 1   
    31   19   20 ar  
    32   19   38 1   
    33   20   21 ar  
    34   20   26 1   
    35   21   22 1   
    36   22   23 2   
    37   22   24 1   
    38   24   25 1   
    39   25   39 1   
    40   25   40 1   
    41   25   41 1   
    42   26   42 1   
    43   27   28 1   
    44   28   29 1   
    45   28   43 1   
    46   28   44 1   
    47   29   45 1   
@<TRIPOS>SUBSTRUCTURE
     1 234         1 TEMP              0 ****  ****    0 ROOT
