@<TRIPOS>MOLECULE
234
   45    47     1     0     0
SMALL
bcc


@<TRIPOS>ATOM
      1 C1          1.2510    1.1190    0.1390 ca        1 234      0.138900
      2 C2          1.7740   -0.1310    0.5560 ca        1 234     -0.111500
      3 C3          1.3680   -0.6380    1.7990 ca        1 234     -0.081000
      4 C4          0.4870    0.0670    2.6270 ca        1 234     -0.096800
      5 C5         -0.0220    1.2990    2.1950 ca        1 234     -0.111000
      6 C6          0.3510    1.8210    0.9640 ca        1 234     -0.174000
      7 C7          2.6980   -0.8750   -0.2540 cc        1 234      0.225200
      8 O12         3.1640   -2.1140    0.2740 os        1 234     -0.168100
      9 N13         4.0080   -2.6730   -0.5840 nc        1 234     -0.374300
     10 C14         4.1440   -1.8890   -1.6620 cd        1 234      0.301800
     11 C15         3.3000   -0.7000   -1.4850 cd        1 234     -0.277600
     12 C16         5.0180   -2.1390   -2.8950 c         1 234      0.837100
     13 O1          6.2000   -1.7210   -2.8400 o         1 234     -0.798800
     14 O2          4.4660   -2.7110   -3.8680 o         1 234     -0.798800
     15 C8          0.1110   -0.5160    3.9060 ce        1 234     -0.081200
     16 C32         1.8510    1.6440    6.9940 ca        1 234      0.202100
     17 C33         2.7880    0.9910    6.1810 ca        1 234     -0.234000
     18 C34         4.0880    0.8040    6.6410 ca        1 234     -0.034000
     19 C35         4.4710    1.2510    7.9020 ca        1 234     -0.257000
     20 C36         3.5290    1.8970    8.7170 ca        1 234      0.190100
     21 C37         2.2110    2.1100    8.2770 ca        1 234     -0.180600
     22 C38         1.2370    2.8140    9.1260 c         1 234      0.683700
     23 O11         0.9920    4.0200    9.1880 o         1 234     -0.533000
     24 O4          0.5280    1.9720    9.9450 os        1 234     -0.426900
     25 C39        -0.4430    2.5800   10.7940 c3        1 234      0.126700
     26 O14         3.8440    2.3530    9.9760 oh        1 234     -0.492100
     27 O3          0.5440    1.8810    6.6340 os        1 234     -0.323900
     28 C40         0.1710    1.5820    5.2820 c3        1 234      0.160600
     29 C41        -0.0210    0.1240    5.0730 c2        1 234     -0.218200
     30 F1          1.5970    1.6620   -1.0510 f         1 234     -0.129900
     31 H3          1.7650   -1.6160    2.1230 ha        1 234      0.163000
     32 H5         -0.7340    1.8510    2.8260 ha        1 234      0.128000
     33 H6         -0.0500    2.7840    0.6180 ha        1 234      0.143000
     34 H15         3.1990    0.1160   -2.1930 ha        1 234      0.175000
     35 H8         -0.0530   -1.6110    3.8730 ha        1 234      0.135000
     36 H33         2.4980    0.6150    5.1880 ha        1 234      0.163000
     37 H34         4.8220    0.2930    5.9980 ha        1 234      0.147000
     38 H35         5.4980    1.1010    8.2610 ha        1 234      0.138000
     39 H391        0.0530    3.3010   11.4870 h1        1 234      0.045700
     40 H392       -0.8860    1.7180   11.3500 h1        1 234      0.045700
     41 H393       -1.2110    3.1080   10.1800 h1        1 234      0.045700
     42 H14         4.7820    2.1670   10.1330 ho        1 234      0.424000
     43 H401       -0.8140    2.1240    5.1900 h1        1 234      0.072200
     44 H402        0.9120    2.0240    4.5650 h1        1 234      0.072200
     45 H41        -0.2950   -0.4330    5.9850 ha        1 234      0.140000
@<TRIPOS>BOND
     1    1    2 ar  
     2    1    6 ar  
     3    1   30 1   
     4    2    3 ar  
     5    2    7 1   
     6    3    4 ar  
     7    3   31 1   
     8    4    5 ar  
     9    4   15 1   
    10    5    6 ar  
    11    5   32 1   
    12    6   33 1   
    13    7    8 1   
    14    7   11 2   
    15    8    9 1   
    16    9   10 2   
    17   10   11 1   
    18   10   12 1   
    19   11   34 1   
    20   12   13 1   
    21   12   14 1   
    22   15   29 2   
    23   15   35 1   
    24   16   17 ar  
    25   16   21 ar  
    26   16   27 1   
    27   17   18 ar  
    28   17   36 1   
    29   18   19 ar  
    30   18   37 1   
    31   19   20 ar  
    32   19   38 1   
    33   20   21 ar  
    34   20   26 1   
    35   21   22 1   
    36   22   23 2   
    37   22   24 1   
    38   24   25 1   
    39   25   39 1   
    40   25   40 1   
    41   25   41 1   
    42   26   42 1   
    43   27   28 1   
    44   28   29 1   
    45   28   43 1   
    46   28   44 1   
    47   29   45 1   
@<TRIPOS>SUBSTRUCTURE
     1 234         1 TEMP              0 ****  ****    0 ROOT
