@<TRIPOS>MOLECULE
234
   45    47     1     0     0
SMALL
bcc


@<TRIPOS>ATOM
      1 C1          1.8490    0.4000    3.5220 ca        1 234      0.139900
      2 C2          0.5160   -0.0680    3.6360 ca        1 234     -0.116500
      3 C3         -0.2560   -0.1640    2.4700 ca        1 234     -0.079000
      4 C4          0.2580    0.1860    1.2140 ca        1 234     -0.085800
      5 C5          1.5790    0.6500    1.1240 ca        1 234     -0.101000
      6 C6          2.3660    0.7570    2.2610 ca        1 234     -0.177000
      7 C7         -0.0510   -0.4390    4.9030 cc        1 234      0.229200
      8 O12        -1.4020   -0.8920    4.8970 os        1 234     -0.168100
      9 N13        -1.7760   -1.1920    6.1340 nc        1 234     -0.376300
     10 C14        -0.7610   -0.9710    6.9810 cd        1 234      0.302800
     11 C15         0.3890   -0.4770    6.2130 cd        1 234     -0.281600
     12 C16        -0.7480   -1.1810    8.4980 c         1 234      0.837100
     13 O1         -1.0890   -0.2000    9.2050 o         1 234     -0.800300
     14 O2         -0.3660   -2.3050    8.9070 o         1 234     -0.800300
     15 C8         -0.6020    0.0600    0.0510 ce        1 234     -0.081200
     16 C32        -1.0660   -0.1200   -4.7300 ca        1 234      0.223100
     17 C33        -2.4610   -0.1960   -4.8220 ca        1 234     -0.260000
     18 C34        -3.0630   -0.3030   -6.0750 ca        1 234     -0.033000
     19 C35        -2.3030   -0.3450   -7.2340 ca        1 234     -0.217000
     20 C36        -0.8980   -0.2730   -7.1440 ca        1 234      0.219100
     21 C37        -0.2590   -0.1410   -5.8980 ca        1 234     -0.246600
     22 C38         1.1940   -0.0070   -5.7580 c         1 234      0.659700
     23 O11         1.8470    0.7350   -5.0270 o         1 234     -0.509000
     24 O4          1.9050   -0.8390   -6.5980 os        1 234     -0.469900
     25 C39         3.3270   -0.7930   -6.4900 c3        1 234      0.129700
     26 O14        -0.2440   -0.3090   -8.3450 oh        1 234     -0.499100
     27 O3         -0.3730   -0.0440   -3.5490 os        1 234     -0.308900
     28 C40        -1.1670    0.0330   -2.3490 c3        1 234      0.165600
     29 C41        -0.2030    0.1610   -1.2240 c2        1 234     -0.191200
     30 F1          2.6480    0.5160    4.6070 f         1 234     -0.131900
     31 H3         -1.2940   -0.5280    2.5590 ha        1 234      0.160000
     32 H5          1.9980    0.9390    0.1490 ha        1 234      0.133000
     33 H6          3.4020    1.1210    2.1940 ha        1 234      0.142000
     34 H15         1.3570   -0.2100    6.6220 ha        1 234      0.175000
     35 H8         -1.6650   -0.1410    0.2820 ha        1 234      0.125000
     36 H33        -3.0870   -0.1750   -3.9200 ha        1 234      0.148000
     37 H34        -4.1610   -0.3600   -6.1420 ha        1 234      0.138000
     38 H35        -2.7690   -0.4350   -8.2250 ha        1 234      0.154000
     39 H391        3.6740   -1.5610   -7.2240 h1        1 234      0.050700
     40 H392        3.6960    0.2270   -6.7570 h1        1 234      0.050700
     41 H393        3.6390   -1.0510   -5.4490 h1        1 234      0.050700
     42 H14         0.7140   -0.3440   -8.1980 ho        1 234      0.445000
     43 H401       -1.8370    0.9340   -2.4100 h1        1 234      0.050700
     44 H402       -1.7880   -0.8990   -2.2600 h1        1 234      0.050700
     45 H41         0.8430    0.3430   -1.5190 ha        1 234      0.153000
@<TRIPOS>BOND
     1    1    2 ar  
     2    1    6 ar  
     3    1   30 1   
     4    2    3 ar  
     5    2    7 1   
     6    3    4 ar  
     7    3   31 1   
     8    4    5 ar  
     9    4   15 1   
    10    5    6 ar  
    11    5   32 1   
    12    6   33 1   
    13    7    8 1   
    14    7   11 2   
    15    8    9 1   
    16    9   10 2   
    17   10   11 1   
    18   10   12 1   
    19   11   34 1   
    20   12   13 1   
    21   12   14 1   
    22   15   29 2   
    23   15   35 1   
    24   16   17 ar  
    25   16   21 ar  
    26   16   27 1   
    27   17   18 ar  
    28   17   36 1   
    29   18   19 ar  
    30   18   37 1   
    31   19   20 ar  
    32   19   38 1   
    33   20   21 ar  
    34   20   26 1   
    35   21   22 1   
    36   22   23 2   
    37   22   24 1   
    38   24   25 1   
    39   25   39 1   
    40   25   40 1   
    41   25   41 1   
    42   26   42 1   
    43   27   28 1   
    44   28   29 1   
    45   28   43 1   
    46   28   44 1   
    47   29   45 1   
@<TRIPOS>SUBSTRUCTURE
     1 234         1 TEMP              0 ****  ****    0 ROOT
