@<TRIPOS>MOLECULE
234
   45    38     1     0     0
SMALL
bcc


@<TRIPOS>ATOM
      1 C1          0.0640    1.4870   -4.4040 c1        1 234      0.111100
      2 C2          0.7140    0.3680   -3.9090 c1        1 234     -0.015000
      3 C3          1.3240    0.4150   -2.6650 c1        1 234     -0.041500
      4 C4          1.2830    1.5800   -1.9150 cg        1 234     -0.100300
      5 C5          0.6330    2.6990   -2.4110 c1        1 234     -0.049500
      6 C6          0.0230    2.6530   -3.6550 c1        1 234     -0.119500
      7 C7          0.8240   -0.7730   -4.6930 c1        1 234     -0.041400
      8 O12         1.8280   -1.0480   -5.5610 os        1 234     -0.110600
      9 N13         1.5830   -2.3000   -6.1180 n1        1 234     -0.337800
     10 C14         0.4370   -2.7770   -5.5880 cg        1 234      0.185800
     11 C15        -0.0460   -1.8360   -4.7000 cg        1 234     -0.174000
     12 C16        -0.2130   -4.1020   -5.9200 c1        1 234      0.864000
     13 O1          0.1950   -5.1590   -5.3690 o         1 234     -0.778500
     14 O2         -1.1550   -4.1490   -6.7550 o         1 234     -0.778500
     15 C8          2.0500    1.6670   -0.6090 ce        1 234     -0.090700
     16 C32        -0.8490    0.0120    2.4520 c1        1 234      0.164600
     17 C33        -1.3110   -1.0060    1.6320 c1        1 234     -0.075000
     18 C34        -1.5400   -2.2690    2.1560 c1        1 234     -0.075000
     19 C35        -1.3060   -2.5150    3.5000 c1        1 234     -0.132500
     20 C36        -0.8440   -1.4970    4.3210 c1        1 234      0.177600
     21 C37        -0.6160   -0.2340    3.7970 cg        1 234     -0.195200
     22 C38        -0.2120    0.9030    4.7140 c         1 234      0.620300
     23 O11         0.9500    1.2620    4.7630 o         1 234     -0.540000
     24 O4         -1.1760    1.5230    5.5320 os        1 234     -0.465900
     25 C39        -0.6330    2.1910    6.6490 c3        1 234      0.130700
     26 O14        -0.5660   -1.7590    5.6760 oh        1 234     -0.485600
     27 O3         -0.5600    1.2770    1.9080 os        1 234     -0.324400
     28 C40        -0.0860    1.2330    0.5780 c3        1 234      0.161600
     29 C41         1.4040    1.5030    0.5650 c2        1 234     -0.186200
     30 F1         -0.4670    1.4640   -5.6330 f         1 234     -0.090100
     31 H3          1.7810   -0.3730   -2.3160 ha        1 234      0.096500
     32 H5          0.6040    3.5190   -1.8840 ha        1 234      0.072500
     33 H6         -0.4040    3.4520   -4.0190 ha        1 234      0.082500
     34 H15        -0.8510   -1.9210   -4.1570 DU        1 234      0.177000
     35 H8          3.0120    1.8410   -0.6180 ha        1 234      0.125000
     36 H33        -1.5130   -0.8230    0.6950 ha        1 234      0.135000
     37 H34        -1.8870   -2.9800    1.5830 ha        1 234      0.135000
     38 H35        -1.4910   -3.3960    3.8730 ha        1 234      0.105500
     39 H391       -1.3540    2.6370    7.1470 h1        1 234      0.046033
     40 H392       -0.1870    1.5430    7.2320 h1        1 234      0.046033
     41 H393        0.0170    2.8590    6.3460 h1        1 234      0.046033
     42 H14        -0.5490   -0.9920    6.1290 ho        1 234      0.434000
     43 H401       -0.2600    0.3470    0.1990 h1        1 234      0.065700
     44 H402       -0.5470    1.9150    0.0440 h1        1 234      0.065700
     45 H41         1.8980    1.5590    1.4060 ha        1 234      0.159000
@<TRIPOS>BOND
     1    1    6 3   
     2    1   30 1   
     3    2    3 3   
     4    3   31 1   
     5    4    5 3   
     6    4   15 1   
     7    5   32 1   
     8    6   33 1   
     9    7    8 1   
    10    7   11 3   
    11    8    9 1   
    12    9   10 3   
    13   10   11 1   
    14   12   13 2   
    15   12   14 2   
    16   15   29 2   
    17   15   35 1   
    18   16   21 3   
    19   16   27 1   
    20   17   18 3   
    21   17   36 1   
    22   18   37 1   
    23   19   20 3   
    24   19   38 1   
    25   20   26 1   
    26   21   22 1   
    27   22   23 2   
    28   22   24 1   
    29   24   25 1   
    30   25   39 1   
    31   25   40 1   
    32   25   41 1   
    33   26   42 1   
    34   27   28 1   
    35   28   29 1   
    36   28   43 1   
    37   28   44 1   
    38   29   45 1   
@<TRIPOS>SUBSTRUCTURE
     1 234         1 TEMP              0 ****  ****    0 ROOT
