@<TRIPOS>MOLECULE
235
   56    57     1     0     0
SMALL
bcc


@<TRIPOS>ATOM
      1 C35         2.7950    2.7120   -0.1100 ca        1 235     -0.011000
      2 C36         2.4490    4.0070   -0.5040 ca        1 235     -0.165000
      3 C37         2.8340    4.4840   -1.7540 ca        1 235     -0.079000
      4 C38         3.5640    3.6630   -2.6160 ca        1 235     -0.165000
      5 C39         3.9060    2.3740   -2.2200 ca        1 235     -0.011000
      6 C34         3.5330    1.8810   -0.9600 ca        1 235     -0.374500
      7 S32         4.0530    0.3290   -0.5120 sy        1 235      1.516200
      8 O33         4.4270   -0.3450   -1.6980 o         1 235     -0.668800
      9 O32         5.0850    0.4440    0.4510 o         1 235     -0.668800
     10 N31         2.7740   -0.3330    0.1960 n3        1 235     -0.887100
     11 C27         1.5490   -0.6950   -0.4550 c3        1 235     -0.032700
     12 C28         1.4240   -2.1680   -0.8860 c3        1 235     -0.087700
     13 C30         1.6330   -2.2960   -2.3820 c3        1 235     -0.088600
     14 C29         2.3650   -3.1160   -0.1680 c3        1 235     -0.088600
     15 P24         0.2520   -0.2680    0.5660 p5        1 235      1.489100
     16 O25         0.4580    1.0440    1.1890 o         1 235     -0.877300
     17 O26         0.2750   -1.3890    1.7010 oh        1 235     -0.816400
     18 C15        -1.0800   -0.3650   -0.3900 c3        1 235     -0.435600
     19 C1         -2.2150   -1.1390    0.2640 c3        1 235     -0.144400
     20 C2         -2.1470   -2.6390   -0.1850 c         1 235      0.913600
     21 O14        -1.4680   -3.3950    0.5740 o         1 235     -0.819300
     22 O13        -2.6780   -3.0030   -1.2620 o         1 235     -0.819300
     23 C3         -3.5330   -0.5010   -0.0150 ca        1 235     -0.034300
     24 C8         -4.1870    0.2110    0.9990 ca        1 235     -0.132000
     25 C4         -4.1310   -0.5850   -1.2800 ca        1 235     -0.095000
     26 C5         -5.3510    0.0410   -1.5220 ca        1 235     -0.146000
     27 C6         -5.9890    0.7600   -0.5120 ca        1 235     -0.137000
     28 C7         -5.4090    0.8440    0.7550 ca        1 235     -0.147300
     29 C9         -6.0960    1.5970    1.8590 c3        1 235      0.198100
     30 N10        -5.3660    2.7010    2.4350 n3        1 235     -0.904800
     31 H35         2.4450    2.3490    0.8770 ha        1 235      0.171000
     32 H36         1.8590    4.6390    0.1760 ha        1 235      0.135000
     33 H37         2.5610    5.5030   -2.0660 ha        1 235      0.124000
     34 H38         3.8650    4.0320   -3.6070 ha        1 235      0.135000
     35 H39         4.4740    1.7200   -2.9050 ha        1 235      0.171000
     36 HN31        2.7850   -0.5820    1.1610 hn        1 235      0.463800
     37 H27         1.4850   -0.0730   -1.4000 h1        1 235      0.082700
     38 H28         0.3680   -2.5080   -0.6470 hc        1 235      0.088700
     39 H301        2.6480   -1.9200   -2.6660 hc        1 235      0.039033
     40 H302        1.5450   -3.3650   -2.6900 hc        1 235      0.039033
     41 H303        0.8610   -1.7090   -2.9370 hc        1 235      0.039033
     42 H291        2.2530   -3.0330    0.9400 hc        1 235      0.039033
     43 H292        2.1200   -4.1660   -0.4630 hc        1 235      0.039033
     44 H293        3.4280   -2.9130   -0.4450 hc        1 235      0.039033
     45 HO26       -0.1780   -2.2330    1.5580 ho        1 235      0.521000
     46 H151       -1.4440    0.6740   -0.6220 hc        1 235      0.111700
     47 H152       -0.9040   -0.8310   -1.3980 hc        1 235      0.111700
     48 H1         -2.0540   -1.1310    1.3810 hc        1 235      0.050700
     49 H8         -3.7380    0.2660    2.0030 ha        1 235      0.126000
     50 H4         -3.6380   -1.1910   -2.0610 ha        1 235      0.178000
     51 H5         -5.8170   -0.0390   -2.5140 ha        1 235      0.118000
     52 H6         -6.9510    1.2550   -0.7120 ha        1 235      0.113000
     53 H91        -7.0770    2.0030    1.4780 h1        1 235      0.048700
     54 H92        -6.3300    0.8710    2.6900 h1        1 235      0.048700
     55 H101       -4.5070    2.3780    2.8400 hn        1 235      0.343800
     56 H102       -5.1400    3.3780    1.7310 hn        1 235      0.343800
@<TRIPOS>BOND
     1    1    2 ar  
     2    1    6 ar  
     3    1   31 1   
     4    2    3 ar  
     5    2   32 1   
     6    3    4 ar  
     7    3   33 1   
     8    4    5 ar  
     9    4   34 1   
    10    5    6 ar  
    11    5   35 1   
    12    6    7 1   
    13    7    8 2   
    14    7    9 2   
    15    7   10 1   
    16   10   11 1   
    17   10   36 1   
    18   11   12 1   
    19   11   15 1   
    20   11   37 1   
    21   12   13 1   
    22   12   14 1   
    23   12   38 1   
    24   13   39 1   
    25   13   40 1   
    26   13   41 1   
    27   14   42 1   
    28   14   43 1   
    29   14   44 1   
    30   15   16 2   
    31   15   17 1   
    32   15   18 1   
    33   17   45 1   
    34   18   19 1   
    35   18   46 1   
    36   18   47 1   
    37   19   20 1   
    38   19   23 1   
    39   19   48 1   
    40   20   21 1   
    41   20   22 1   
    42   23   24 ar  
    43   23   25 ar  
    44   24   28 ar  
    45   24   49 1   
    46   25   26 ar  
    47   25   50 1   
    48   26   27 ar  
    49   26   51 1   
    50   27   28 ar  
    51   27   52 1   
    52   28   29 1   
    53   29   30 1   
    54   29   53 1   
    55   29   54 1   
    56   30   55 1   
    57   30   56 1   
@<TRIPOS>SUBSTRUCTURE
     1 235         1 TEMP              0 ****  ****    0 ROOT
