@<TRIPOS>MOLECULE
235
   56    51     1     0     0
SMALL
bcc


@<TRIPOS>ATOM
      1 C35        -0.1670    4.4200   -0.4240 c1        1 235     -0.028000
      2 C36        -0.1250    5.2070   -1.5840 c1        1 235     -0.111167
      3 C37         1.0940    5.6960   -2.0490 c1        1 235     -0.111167
      4 C38         2.2520    5.4050   -1.3720 c1        1 235     -0.111167
      5 C39         2.2110    4.6190   -0.2140 c1        1 235     -0.111167
      6 C34         0.9980    4.1310    0.2530 c1        1 235     -0.829000
      7 S32         0.9220    3.2670    1.8340 s4        1 235      2.073800
      8 O33         2.1800    3.3050    2.5050 o         1 235     -0.558900
      9 O32         0.1030    3.9540    2.7530 o         1 235     -0.558900
     10 N31         0.3990    1.6900    1.6150 n2        1 235     -0.860000
     11 C27         0.5020    0.7650    2.6700 c3        1 235     -0.647000
     12 C28        -0.8900    0.4930    3.2570 c3        1 235     -0.120000
     13 C30        -0.9590    1.0300    4.6920 c3        1 235     -0.209000
     14 C29        -1.9830    1.2070    2.3810 c3        1 235     -0.209000
     15 P24         1.2280   -0.8150    2.0370 p5        1 235      2.812000
     16 O25         1.2520   -1.8300    3.1280 o         1 235     -1.144000
     17 O26         2.7250   -0.5470    1.5200 oh        1 235     -0.862000
     18 C15         0.2030   -1.4440    0.6440 c3        1 235     -0.913000
     19 C1          0.8080   -2.7370    0.1110 c3        1 235     -0.144000
     20 C2          2.1160   -2.4410   -0.5790 c2        1 235      0.336000
     21 O14         2.2200   -1.4200   -1.3440 o         1 235     -0.558000
     22 O13         3.1180   -3.1920   -0.3850 o         1 235     -0.558000
     23 C3         -0.1470   -3.3780   -0.8790 c2        1 235     -0.027000
     24 C8         -0.0710   -3.0590   -2.2200 c2        1 235     -0.103000
     25 C4         -1.1010   -4.3140   -0.4310 c1        1 235     -0.129000
     26 C5         -1.9570   -4.9120   -1.3290 c1        1 235     -0.111167
     27 C6         -1.8810   -4.5910   -2.6880 c1        1 235     -0.111167
     28 C7         -0.9400   -3.6660   -3.1330 c1        1 235     -0.140000
     29 C9         -0.8160   -3.3590   -4.6300 c3        1 235     -0.042000
     30 N10        -2.0330   -2.8270   -5.1050 n3        1 235     -0.339000
     31 H35        -1.0180    4.0770   -0.0960 ha        1 235      0.152000
     32 H36        -0.9930    5.4240   -2.0900 ha        1 235      0.136333
     33 H37         1.1290    6.2770   -2.9060 ha        1 235      0.136333
     34 H38         3.0590    5.7290   -1.6800 ha        1 235      0.136333
     35 H39         2.9830    4.4270    0.2350 ha        1 235      0.136333
     36 HN31        0.1410    1.4140    0.8030 hn        1 235      0.242000
     37 H27         1.0590    1.1160    3.3390 h1        1 235      0.168000
     38 H28        -1.0530   -0.4590    3.2630 hc        1 235      0.116000
     39 H301       -0.2860    1.7750    4.8100 hc        1 235      0.076333
     40 H302       -1.9220    1.3950    4.8800 hc        1 235      0.076333
     41 H303       -0.7580    0.3170    5.3100 hc        1 235      0.076333
     42 H291       -2.8150    1.1080    2.7820 hc        1 235      0.076333
     43 H292       -1.7700    2.1560    2.3060 hc        1 235      0.076333
     44 H293       -1.9990    0.7910    1.4660 hc        1 235      0.076333
     45 HO26        3.2870   -0.6340    2.1830 ho        1 235      0.318000
     46 H151        0.1750   -0.7850   -0.0570 hc        1 235      0.143500
     47 H152       -0.7380   -1.6270    0.9750 hc        1 235      0.143500
     48 H1          0.9610   -3.3450    0.8520 hc        1 235      0.096000
     49 H8          0.5820   -2.4150   -2.5270 ha        1 235      0.175000
     50 H4         -1.1980   -4.4970    0.5420 ha        1 235      0.137000
     51 H5         -2.6430   -5.5870   -1.0040 ha        1 235      0.136333
     52 H6         -2.4650   -4.9980   -3.2990 ha        1 235      0.136333
     53 H91        -0.1080   -2.7130   -4.7680 h1        1 235      0.081500
     54 H92        -0.6020   -4.2050   -5.1310 h1        1 235      0.081500
     55 H101       -1.8830   -2.0040   -5.4610 hn        1 235      0.147000
     56 H102       -2.3870   -3.3930   -5.7660 hn        1 235      0.147000
@<TRIPOS>BOND
     1    1    6 1   
     2    1   31 1   
     3    2    3 1   
     4    2   32 1   
     5    3   33 1   
     6    4    5 1   
     7    4   34 1   
     8    5   35 1   
     9    6    7 1   
    10    7    8 1   
    11    7    9 1   
    12   10   11 1   
    13   10   36 1   
    14   11   12 1   
    15   11   15 1   
    16   11   37 1   
    17   12   13 1   
    18   12   14 1   
    19   12   38 1   
    20   13   39 1   
    21   13   40 1   
    22   13   41 1   
    23   14   42 1   
    24   14   43 1   
    25   14   44 1   
    26   15   16 1   
    27   15   17 1   
    28   15   18 1   
    29   17   45 1   
    30   18   19 1   
    31   18   46 1   
    32   18   47 1   
    33   19   20 1   
    34   19   23 1   
    35   19   48 1   
    36   20   21 1   
    37   20   22 1   
    38   23   24 1   
    39   23   25 1   
    40   24   28 1   
    41   24   49 1   
    42   25   50 1   
    43   26   27 1   
    44   26   51 1   
    45   27   52 1   
    46   28   29 1   
    47   29   30 1   
    48   29   53 1   
    49   29   54 1   
    50   30   55 1   
    51   30   56 1   
@<TRIPOS>SUBSTRUCTURE
     1 235         1 TEMP              0 ****  ****    0 ROOT
