@<TRIPOS>MOLECULE
235
   57    58     1     0     0
SMALL
bcc


@<TRIPOS>ATOM
      1 C35         0.5330    1.0170    2.9810 ca        1 235      0.003000
      2 C36         0.3930    2.0530    2.0640 ca        1 235     -0.158000
      3 C37         0.7630    1.8580    0.7320 ca        1 235     -0.050000
      4 C38         1.2740    0.6250    0.3250 ca        1 235     -0.158000
      5 C39         1.4110   -0.4070    1.2480 ca        1 235      0.003000
      6 C34         1.0480   -0.2300    2.5910 ca        1 235     -0.432500
      7 S32         1.2160   -1.4420    3.6980 sy        1 235      1.811800
      8 O33         2.3210   -2.2460    3.4140 o         1 235     -0.711300
      9 O32         1.0470   -0.9930    4.9860 o         1 235     -0.711300
     10 N31        -1.6130   -2.4690    0.8400 n8        1 235     -0.879800
     11 C27        -2.1790   -3.0740    2.0300 c3        1 235     -0.183700
     12 C28        -3.3170   -4.0910    1.8230 c3        1 235     -0.118700
     13 C30        -4.6600   -3.4040    1.9900 c3        1 235     -0.087600
     14 C29        -3.2900   -4.7900    0.4770 c3        1 235     -0.087600
     15 P24        -0.9430   -3.7110    2.9260 p5        1 235      1.706100
     16 O25         0.1020   -4.4560    2.2010 o         1 235     -0.944300
     17 O26        -0.0280   -2.4250    3.4260 os        1 235     -0.804100
     18 C15        -1.4990   -4.3140    4.3190 c3        1 235     -0.497600
     19 C1         -1.4670   -5.8470    4.3530 c3        1 235     -0.144400
     20 C2         -2.7900   -6.3480    5.0220 c         1 235      0.931600
     21 O14        -2.7380   -7.0080    6.0860 o         1 235     -0.808800
     22 O13        -3.8370   -6.0090    4.4020 o         1 235     -0.808800
     23 C3         -0.1940   -6.3330    4.9620 ca        1 235     -0.031300
     24 C8          0.8830   -6.5230    4.0880 ca        1 235     -0.130000
     25 C4          0.0290   -6.4510    6.3390 ca        1 235     -0.058000
     26 C5          1.3310   -6.6220    6.8170 ca        1 235     -0.142000
     27 C6          2.4240   -6.5860    5.9490 ca        1 235     -0.110000
     28 C7          2.1940   -6.5110    4.5730 ca        1 235     -0.193300
     29 C9          3.2720   -6.2530    3.5760 c3        1 235      0.188100
     30 N10         2.9680   -4.9840    2.8360 nz        1 235     -0.863600
     31 H35         0.2430    1.1720    4.0370 ha        1 235      0.153500
     32 H36        -0.0110    3.0240    2.3880 ha        1 235      0.146500
     33 H37         0.6490    2.6750    0.0030 ha        1 235      0.142000
     34 H38         1.5630    0.4670   -0.7250 ha        1 235      0.146500
     35 H39         1.8110   -1.3840    0.9240 ha        1 235      0.153500
     36 HN31       -1.2400   -3.1960    0.2550 hn        1 235      0.357300
     37 H27        -2.6420   -2.2110    2.6070 h1        1 235      0.111700
     38 H28        -3.2550   -4.8860    2.6350 hc        1 235      0.128700
     39 H301       -5.4850   -4.1390    1.8230 hc        1 235      0.039033
     40 H302       -4.7640   -3.0000    3.0260 hc        1 235      0.039033
     41 H303       -4.7690   -2.5670    1.2600 hc        1 235      0.039033
     42 H291       -4.0780   -5.5840    0.4690 hc        1 235      0.039033
     43 H292       -2.3080   -5.2830    0.2760 hc        1 235      0.039033
     44 H293       -3.5100   -4.0770   -0.3530 hc        1 235      0.039033
     45 H151       -2.5730   -4.0280    4.5420 hc        1 235      0.141700
     46 H152       -0.9440   -3.9350    5.2200 hc        1 235      0.141700
     47 H1         -1.5170   -6.2170    3.2880 hc        1 235      0.046700
     48 H8          0.6940   -6.6080    3.0030 ha        1 235      0.151000
     49 H4         -0.8420   -6.4190    7.0230 ha        1 235      0.204000
     50 H5          1.5000   -6.7450    7.8980 ha        1 235      0.140000
     51 H6          3.4490   -6.6100    6.3440 ha        1 235      0.125000
     52 H91         4.2750   -6.1390    4.0740 hx        1 235      0.084700
     53 H92         3.3250   -7.0830    2.8150 hx        1 235      0.084700
     54 H101        3.6610   -4.8120    2.1130 hn        1 235      0.473467
     55 H102        2.0190   -5.0310    2.4040 hn        1 235      0.473467
     56 H312       -2.3200   -1.9780    0.3240 hn        1 235      0.357300
     57 H103        2.9570   -4.1830    3.4850 hn        1 235      0.473467
@<TRIPOS>BOND
     1    1    2 ar  
     2    1    6 ar  
     3    1   31 1   
     4    2    3 ar  
     5    2   32 1   
     6    3    4 ar  
     7    3   33 1   
     8    4    5 ar  
     9    4   34 1   
    10    5    6 ar  
    11    5   35 1   
    12    6    7 1   
    13    7    8 2   
    14    7    9 2   
    15    7   17 1   
    16   10   11 1   
    17   10   36 1   
    18   10   56 1   
    19   11   12 1   
    20   11   15 1   
    21   11   37 1   
    22   12   13 1   
    23   12   14 1   
    24   12   38 1   
    25   13   39 1   
    26   13   40 1   
    27   13   41 1   
    28   14   42 1   
    29   14   43 1   
    30   14   44 1   
    31   15   16 2   
    32   15   17 1   
    33   15   18 1   
    34   18   19 1   
    35   18   45 1   
    36   18   46 1   
    37   19   20 1   
    38   19   23 1   
    39   19   47 1   
    40   20   21 1   
    41   20   22 1   
    42   23   24 ar  
    43   23   25 ar  
    44   24   28 ar  
    45   24   48 1   
    46   25   26 ar  
    47   25   49 1   
    48   26   27 ar  
    49   26   50 1   
    50   27   28 ar  
    51   27   51 1   
    52   28   29 1   
    53   29   30 1   
    54   29   52 1   
    55   29   53 1   
    56   30   54 1   
    57   30   55 1   
    58   30   57 1   
@<TRIPOS>SUBSTRUCTURE
     1 235         1 TEMP              0 ****  ****    0 ROOT
