@<TRIPOS>MOLECULE
235
   58    59     1     0     0
SMALL
bcc


@<TRIPOS>ATOM
      1 C35        -1.8870    2.0410    0.9850 ca        1 235      0.025000
      2 C36        -1.0270    2.8650    0.2830 ca        1 235     -0.158000
      3 C37         0.3590    2.7490    0.4660 ca        1 235     -0.003000
      4 C38         0.8660    1.8030    1.3540 ca        1 235     -0.158000
      5 C39         0.0010    0.9730    2.0620 ca        1 235      0.025000
      6 C34        -1.3970    1.0730    1.8970 ca        1 235     -0.541500
      7 S32        -2.4220    0.1900    2.7520 sy        1 235      1.489200
      8 O33        -2.0150   -0.2070    4.0100 o         1 235     -0.586300
      9 O32        -3.7530    0.5290    2.5560 o         1 235     -0.586300
     10 N31        -2.3610   -1.4160    1.7120 n4        1 235     -0.651900
     11 C27        -2.1960   -2.6580    2.4820 c3        1 235     -0.152700
     12 C28        -3.1030   -3.8260    2.0630 c3        1 235     -0.091700
     13 C30        -4.3210   -3.8950    2.9650 c3        1 235     -0.106600
     14 C29        -3.5560   -3.8090    0.6150 c3        1 235     -0.106600
     15 P24        -0.5450   -3.1630    2.4620 p5        1 235      1.510100
     16 O25         0.2330   -1.9220    2.4060 o         1 235     -0.881300
     17 O26        -0.4100   -3.9370    1.0810 oh        1 235     -0.805400
     18 C15        -0.3720   -4.1820    3.7190 c3        1 235     -0.454600
     19 C1          0.6430   -5.2740    3.4460 c3        1 235     -0.139400
     20 C2          0.0040   -6.5980    2.8480 c         1 235      0.945600
     21 O14        -1.1110   -6.5070    2.2730 o         1 235     -0.834800
     22 O13         0.6630   -7.6730    2.9280 o         1 235     -0.834800
     23 C3          1.4400   -5.6900    4.6350 ca        1 235     -0.049300
     24 C8          2.4630   -6.6090    4.3530 ca        1 235     -0.069000
     25 C4          1.1380   -5.4230    5.9730 ca        1 235     -0.092000
     26 C5          1.7940   -6.1170    6.9960 ca        1 235     -0.125000
     27 C6          2.6570   -7.1700    6.7000 ca        1 235     -0.098000
     28 C7          2.9540   -7.4430    5.3610 ca        1 235     -0.181300
     29 C9          3.5900   -8.7160    4.9180 c3        1 235      0.185100
     30 N10         2.5870   -9.4730    4.0890 n4        1 235     -0.855600
     31 H35        -2.9810    2.1440    0.8480 ha        1 235      0.188500
     32 H36        -1.4280    3.6160   -0.4170 ha        1 235      0.168000
     33 H37         1.0430    3.4080   -0.0950 ha        1 235      0.162000
     34 H38         1.9540    1.7020    1.5000 ha        1 235      0.168000
     35 H39         0.4220    0.2090    2.7510 ha        1 235      0.188500
     36 HN31       -1.5900   -1.3580    1.0390 hn        1 235      0.453300
     37 H27        -2.4760   -2.4080    3.5550 hx        1 235      0.132700
     38 H28        -2.5070   -4.7820    2.2150 hc        1 235      0.116700
     39 H301       -4.0180   -4.0350    4.0310 hc        1 235      0.053033
     40 H302       -4.9310   -2.9640    2.8840 hc        1 235      0.053033
     41 H303       -4.9600   -4.7630    2.6690 hc        1 235      0.053033
     42 H291       -2.7040   -3.6450   -0.0890 hc        1 235      0.053033
     43 H292       -4.0060   -4.8050    0.3730 hc        1 235      0.053033
     44 H293       -4.3430   -3.0360    0.4360 hc        1 235      0.053033
     45 HO26       -0.5950   -4.8850    1.0370 ho        1 235      0.524000
     46 H151       -1.3240   -4.7020    4.0270 hc        1 235      0.131700
     47 H152       -0.0480   -3.6040    4.6300 hc        1 235      0.131700
     48 H1          1.3520   -4.9050    2.6480 hc        1 235      0.061700
     49 H8          2.7900   -6.7400    3.3080 ha        1 235      0.146000
     50 H4          0.3620   -4.6920    6.2450 ha        1 235      0.140000
     51 H5          1.5820   -5.8640    8.0470 ha        1 235      0.150000
     52 H6          3.0840   -7.7830    7.5070 ha        1 235      0.142000
     53 H91         3.8890   -9.3610    5.7900 hx        1 235      0.098700
     54 H92         4.4910   -8.5240    4.2680 hx        1 235      0.098700
     55 H101        2.2420   -8.8670    3.3130 hn        1 235      0.470133
     56 H102        1.7650   -9.7000    4.6560 hn        1 235      0.470133
     57 H312       -3.2350   -1.4630    1.1810 hn        1 235      0.453300
     58 H103        2.9950  -10.3260    3.7120 hn        1 235      0.470133
@<TRIPOS>BOND
     1    1    2 ar  
     2    1    6 ar  
     3    1   31 1   
     4    2    3 ar  
     5    2   32 1   
     6    3    4 ar  
     7    3   33 1   
     8    4    5 ar  
     9    4   34 1   
    10    5    6 ar  
    11    5   35 1   
    12    6    7 1   
    13    7    8 2   
    14    7    9 2   
    15    7   10 1   
    16   10   11 1   
    17   10   36 1   
    18   10   57 1   
    19   11   12 1   
    20   11   15 1   
    21   11   37 1   
    22   12   13 1   
    23   12   14 1   
    24   12   38 1   
    25   13   39 1   
    26   13   40 1   
    27   13   41 1   
    28   14   42 1   
    29   14   43 1   
    30   14   44 1   
    31   15   16 2   
    32   15   17 1   
    33   15   18 1   
    34   17   45 1   
    35   18   19 1   
    36   18   46 1   
    37   18   47 1   
    38   19   20 1   
    39   19   23 1   
    40   19   48 1   
    41   20   21 1   
    42   20   22 1   
    43   23   24 ar  
    44   23   25 ar  
    45   24   28 ar  
    46   24   49 1   
    47   25   26 ar  
    48   25   50 1   
    49   26   27 ar  
    50   26   51 1   
    51   27   28 ar  
    52   27   52 1   
    53   28   29 1   
    54   29   30 1   
    55   29   53 1   
    56   29   54 1   
    57   30   55 1   
    58   30   56 1   
    59   30   58 1   
@<TRIPOS>SUBSTRUCTURE
     1 235         1 TEMP              0 ****  ****    0 ROOT
