@<TRIPOS>MOLECULE
235
   57    58     1     0     0
SMALL
bcc


@<TRIPOS>ATOM
      1 C35         0.5920    1.0070    3.0960 ca        1 235      0.002500
      2 C36         0.4450    2.0710    2.2120 ca        1 235     -0.158000
      3 C37         0.7810    1.9090    0.8670 ca        1 235     -0.050000
      4 C38         1.2660    0.6810    0.4130 ca        1 235     -0.158000
      5 C39         1.4100   -0.3790    1.3040 ca        1 235      0.002500
      6 C34         1.0800   -0.2350    2.6590 ca        1 235     -0.432500
      7 S32         1.2560   -1.4800    3.7280 sy        1 235      1.811800
      8 O33         2.3450   -2.2890    3.3970 o         1 235     -0.711300
      9 O32         1.1190   -1.0660    5.0310 o         1 235     -0.711300
     10 N31        -1.6430   -2.3920    0.9010 n3        1 235     -0.879800
     11 C27        -2.1920   -3.0240    2.0850 c3        1 235     -0.183700
     12 C28        -3.3460   -4.0220    1.8730 c3        1 235     -0.118700
     13 C30        -4.6770   -3.3240    2.0870 c3        1 235     -0.087600
     14 C29        -3.3560   -4.6820    0.5080 c3        1 235     -0.087600
     15 P24        -0.9450   -3.7010    2.9360 p5        1 235      1.706100
     16 O25         0.0750   -4.4370    2.1690 o         1 235     -0.944300
     17 O26        -0.0050   -2.4410    3.4530 os        1 235     -0.804100
     18 C15        -1.4810   -4.3370    4.3230 c3        1 235     -0.497600
     19 C1         -1.4660   -5.8710    4.3120 c3        1 235     -0.144400
     20 C2         -2.7810   -6.3760    4.9950 c         1 235      0.931600
     21 O14        -2.7150   -7.0670    6.0370 o         1 235     -0.808800
     22 O13        -3.8370   -6.0070    4.4060 o         1 235     -0.808800
     23 C3         -0.1870   -6.3890    4.8800 ca        1 235     -0.031300
     24 C8          0.8700   -6.5660    3.9790 ca        1 235     -0.130000
     25 C4          0.0630   -6.5490    6.2490 ca        1 235     -0.058000
     26 C5          1.3730   -6.7500    6.6940 ca        1 235     -0.142000
     27 C6          2.4470   -6.7000    5.8040 ca        1 235     -0.110000
     28 C7          2.1910   -6.5830    4.4360 ca        1 235     -0.193300
     29 C9          3.2510   -6.3090    3.4250 c3        1 235      0.188100
     30 N10         2.9470   -5.0150    2.7280 n4        1 235     -0.863600
     31 H35         0.3280    1.1360    4.1620 ha        1 235      0.154000
     32 H36         0.0620    3.0380    2.5730 ha        1 235      0.146500
     33 H37         0.6630    2.7480    0.1640 ha        1 235      0.142000
     34 H38         1.5300    0.5490   -0.6470 ha        1 235      0.146500
     35 H39         1.7890   -1.3510    0.9430 ha        1 235      0.154000
     36 HN31       -2.3540   -1.8780    0.4140 hn        1 235      0.357300
     37 H27        -2.6320   -2.1730    2.6960 h1        1 235      0.111700
     38 H28        -3.2780   -4.8410    2.6600 hc        1 235      0.128700
     39 H301       -4.7910   -2.4650    1.3840 hc        1 235      0.039033
     40 H302       -5.5140   -4.0440    1.9170 hc        1 235      0.039033
     41 H303       -4.7550   -2.9480    3.1360 hc        1 235      0.039033
     42 H291       -3.5840   -3.9430   -0.2980 hc        1 235      0.039033
     43 H292       -2.3850   -5.1800    0.2710 hc        1 235      0.039033
     44 H293       -4.1540   -5.4660    0.4940 hc        1 235      0.039033
     45 H151       -2.5460   -4.0450    4.5760 hc        1 235      0.141700
     46 H152       -0.9020   -3.9900    5.2230 hc        1 235      0.141700
     47 H1         -1.5430   -6.2100    3.2380 hc        1 235      0.046700
     48 H8          0.6580   -6.6180    2.8970 ha        1 235      0.151000
     49 H4         -0.7930   -6.5270    6.9510 ha        1 235      0.204000
     50 H5          1.5620   -6.9050    7.7670 ha        1 235      0.140000
     51 H6          3.4800   -6.7480    6.1780 ha        1 235      0.125000
     52 H91         4.2650   -6.2210    3.9050 hx        1 235      0.084700
     53 H92         3.2780   -7.1170    2.6400 hx        1 235      0.084700
     54 H101        1.9890   -5.0390    2.3140 hn        1 235      0.473467
     55 H102        3.6270   -4.8300    1.9960 hn        1 235      0.473467
     56 H312       -1.2920   -3.1070    0.2870 hn        1 235      0.357300
     57 H103        2.9590   -4.2340    3.4000 hn        1 235      0.473467
@<TRIPOS>BOND
     1    1    2 ar  
     2    1    6 ar  
     3    1   31 1   
     4    2    3 ar  
     5    2   32 1   
     6    3    4 ar  
     7    3   33 1   
     8    4    5 ar  
     9    4   34 1   
    10    5    6 ar  
    11    5   35 1   
    12    6    7 1   
    13    7    8 2   
    14    7    9 2   
    15    7   17 1   
    16   10   11 1   
    17   10   36 1   
    18   10   56 1   
    19   11   12 1   
    20   11   15 1   
    21   11   37 1   
    22   12   13 1   
    23   12   14 1   
    24   12   38 1   
    25   13   39 1   
    26   13   40 1   
    27   13   41 1   
    28   14   42 1   
    29   14   43 1   
    30   14   44 1   
    31   15   16 2   
    32   15   17 1   
    33   15   18 1   
    34   18   19 1   
    35   18   45 1   
    36   18   46 1   
    37   19   20 1   
    38   19   23 1   
    39   19   47 1   
    40   20   21 1   
    41   20   22 1   
    42   23   24 ar  
    43   23   25 ar  
    44   24   28 ar  
    45   24   48 1   
    46   25   26 ar  
    47   25   49 1   
    48   26   27 ar  
    49   26   50 1   
    50   27   28 ar  
    51   27   51 1   
    52   28   29 1   
    53   29   30 1   
    54   29   52 1   
    55   29   53 1   
    56   30   54 1   
    57   30   55 1   
    58   30   57 1   
@<TRIPOS>SUBSTRUCTURE
     1 235         1 TEMP              0 ****  ****    0 ROOT
