@<TRIPOS>MOLECULE
237
   64    66     1     0     0
SMALL
bcc


@<TRIPOS>ATOM
      1 N1       -133.9020  141.4120  -19.4710 n         1 237     -0.202000
      2 N3        531.0640 -551.5340   78.5230 n2        1 237     -0.004000
      3 C4        531.1940 -548.1540   77.2100 ca        1 237     -0.209000
      4 C5        529.8730 -547.6980   77.4570 ca        1 237      0.170000
      5 C6        528.9270 -548.5670   78.0830 ca        1 237     -0.209000
      6 C7        529.2800 -549.8300   78.4470 ca        1 237      0.055000
      7 C8       -131.7700  138.9690  -22.7500 c3        1 237      0.020000
      8 C10      -133.2940  140.6720  -21.8310 c3        1 237      0.023000
      9 C13      -133.2060  139.8330  -14.3660 c2        1 237     -0.061000
     10 C15      -137.7540  140.2260  -16.0950 c1        1 237      0.321000
     11 C17      -135.4420  140.2320  -15.1050 c2        1 237      0.143000
     12 C20      -134.1610  139.5590  -11.3390 c3        1 237     -0.968000
     13 C22      -132.3450  141.8470  -17.5690 c3        1 237     -0.149000
     14 C24      -134.8870  141.6620  -17.1960 c3        1 237      0.129000
     15 C26      -133.1980  140.6270  -15.6030 c2        1 237      0.010000
     16 C1       -132.9070  141.4150  -20.5360 c2        1 237      0.293000
     17 O1       -131.8810  142.0650  -20.3800 o         1 237     -0.215000
     18 C2        530.6390 -550.3500   78.2120 ca        1 237     -0.075000
     19 C3        531.5810 -549.4170   77.5630 ca        1 237      0.055000
     20 C9       -132.0380  140.4810  -22.7120 c3        1 237     -0.173000
     21 N2       -133.8760  139.3630  -21.6140 n         1 237     -0.346000
     22 C11      -133.0290  138.3020  -22.1360 c3        1 237     -0.068000
     23 C12      -135.2320  139.1800  -21.4080 c2        1 237      0.272000
     24 O2       -135.9550  140.1320  -21.0620 o         1 237     -0.375000
     25 O3       -130.6390  138.7250  -21.9260 os        1 237     -0.276000
     26 C14      -132.1380  139.2860  -13.7840 c2        1 237     -0.164000
     27 C16      -136.8610  140.1010  -15.1290 c2        1 237     -0.515000
     28 C18      -134.6460  139.6630  -13.9420 c3        1 237     -0.704000
     29 S1       -135.0760  140.4560  -12.4190 s6        1 237      2.812000
     30 C19      -129.9330  137.5370  -22.2590 c3        1 237     -0.081000
     31 O4       -136.4360  140.1930  -12.2210 o         1 237     -0.912500
     32 O5       -134.6540  141.7820  -12.4460 o         1 237     -0.912500
     33 C23      -133.6930  141.6070  -18.1840 c2        1 237      0.193000
     34 C25      -134.5990  140.8100  -16.0100 c2        1 237     -0.218000
     35 C27      -132.1590  141.1050  -16.2980 c2        1 237     -0.182000
     36 HN1      -134.8630  141.2400  -19.7840 hn        1 237      0.314000
     37 HN3      -135.5960  138.1340  -21.5250 h5        1 237      0.173000
     38 H6        527.9000 -548.1940   78.2670 ha        1 237      0.206000
     39 H7        528.5420 -550.4990   78.9320 ha        1 237      0.199500
     40 H8       -133.5790  137.7090  -22.9160 h1        1 237      0.113000
     41 H10      -134.0450  141.3560  -22.3370 h1        1 237      0.152000
     42 H15      -132.2040  138.6470  -12.8930 ha        1 237      0.137000
     43 H17      -134.8820  138.5650  -13.8650 h1        1 237      0.178000
     44 H201     -134.1170  138.4620  -11.5530 h1        1 237      0.173333
     45 H202     -134.5840  139.6340  -10.2990 h1        1 237      0.173333
     46 H203     -133.1010  139.9120  -11.2540 h1        1 237      0.173333
     47 H22      -131.1150  140.9830  -15.9710 ha        1 237      0.171000
     48 H3        532.6150 -549.7690   77.3680 ha        1 237      0.199500
     49 H91      -132.2500  140.8620  -23.7410 hc        1 237      0.141500
     50 H92      -131.1500  141.0270  -22.3030 hc        1 237      0.141500
     51 H111     -132.7310  137.6150  -21.2960 h1        1 237      0.113000
     52 H112     -131.5940  138.6040  -23.7950 h1        1 237      0.121000
     53 H14      -131.1210  139.4460  -14.1710 ha        1 237      0.137000
     54 H16      -137.3470  139.8250  -14.1460 ha        1 237      0.257000
     55 H191     -130.5910  136.6430  -22.1290 h1        1 237      0.087333
     56 H192     -129.5490  137.5870  -23.3070 h1        1 237      0.087333
     57 H193     -129.0840  137.5130  -21.5300 h1        1 237      0.087333
     58 H25      -134.9240  142.7520  -16.8560 h1        1 237      0.168000
     59 H27      -132.2560  142.9600  -17.3820 hc        1 237      0.166500
     60 CL1       529.4240 -546.1680   77.0220 cl        1 237      0.203000
     61 H12      -131.5050  141.5770  -18.2740 hc        1 237      0.166500
     62 H32       530.4150 -552.1590   78.9640 hn        1 237      0.202000
     63 F1       -136.0900  141.3700  -17.8130 f         1 237     -0.127000
     64 H4        531.9170 -547.4700   76.7230 ha        1 237      0.206000
@<TRIPOS>BOND
     1    1   16 1   
     2    1   33 1   
     3    1   36 1   
     4    2   18 1   
     5    2   62 1   
     6    3    4 1   
     7    3   19 1   
     8    3   64 1   
     9    4    5 1   
    10    4   60 1   
    11    5    6 1   
    12    5   38 1   
    13    6   18 1   
    14    6   39 1   
    15    7   20 1   
    16    7   22 1   
    17    7   25 1   
    18    7   52 1   
    19    8   16 1   
    20    8   20 1   
    21    8   21 1   
    22    8   41 1   
    23    9   15 1   
    24    9   26 1   
    25    9   28 1   
    26   10   27 1   
    27   11   27 1   
    28   11   28 1   
    29   11   34 1   
    30   12   29 1   
    31   12   44 1   
    32   12   45 1   
    33   12   46 1   
    34   13   33 1   
    35   13   35 1   
    36   13   59 1   
    37   13   61 1   
    38   14   33 1   
    39   14   34 1   
    40   14   58 1   
    41   14   63 1   
    42   15   34 1   
    43   15   35 1   
    44   16   17 1   
    45   18   19 1   
    46   19   48 1   
    47   20   49 1   
    48   20   50 1   
    49   21   22 1   
    50   21   23 1   
    51   22   40 1   
    52   22   51 1   
    53   23   24 1   
    54   23   37 1   
    55   25   30 1   
    56   26   42 1   
    57   26   53 1   
    58   27   54 1   
    59   28   29 1   
    60   28   43 1   
    61   29   31 1   
    62   29   32 1   
    63   30   55 1   
    64   30   56 1   
    65   30   57 1   
    66   35   47 1   
@<TRIPOS>SUBSTRUCTURE
     1 237         1 TEMP              0 ****  ****    0 ROOT
