@<TRIPOS>MOLECULE
237
   62    58     1     0     0
SMALL
bcc


@<TRIPOS>ATOM
      1 N1          1.4610   -1.5410    0.5680 ns        1 237     -0.213000
      2 N3          5.6190   -1.3190    0.0950 ns        1 237     -0.315000
      3 C4          2.5990   -4.4630    2.6360 c2        1 237     -0.438000
      4 C5          2.0520   -5.5320    3.4300 c2        1 237     -0.294000
      5 C6          0.7530   -5.6230    3.7300 c1        1 237      0.263000
      6 C7          7.4500   -2.5820    1.0330 c1        1 237     -0.059000
      7 C8          3.0210    1.9090   -2.6970 c1        1 237     -0.014000
      8 C10         2.3870    0.0800   -1.1310 c3        1 237     -0.045000
      9 C13        -1.0870    0.6430    5.2060 c2        1 237     -0.052000
     10 C15        -3.8230    0.5400    8.5500 c1        1 237      0.408000
     11 C17        -3.0100    1.5640    6.5450 c1        1 237     -0.032000
     12 C20        -1.7600    2.6230    3.0480 c3        1 237     -0.962000
     13 C22         0.0440   -1.3590    2.5340 c1        1 237     -0.164000
     14 C24        -4.1110   -1.2140    4.4390 c2        1 237      0.110000
     15 C26        -1.6130   -0.4280    4.3340 c2        1 237      0.088000
     16 C1          1.3720   -0.2390   -0.0070 c2        1 237      0.241000
     17 O1          0.5420    0.5890    0.3810 o         1 237     -0.276000
     18 C2          6.1840   -2.6310    0.3240 c3        1 237     -0.127000
     19 C3          3.8040   -4.2000    2.2040 c1        1 237      0.153000
     20 C9          1.9490    1.3840   -1.8030 c3        1 237     -0.258000
     21 N2          3.7600    0.1010   -0.6030 n         1 237     -0.166000
     22 C11         4.4600    1.1600   -0.2700 c1        1 237     -0.114000
     23 C12         4.4050   -1.2110   -0.5260 c2        1 237      0.399000
     24 O2          3.8100   -2.2030   -1.0230 o         1 237     -0.428000
     25 O3          2.5340    2.5440   -3.7440 oh        1 237     -0.224000
     26 C14         0.1540    0.5670    5.7050 c2        1 237     -0.189000
     27 C16        -2.8730    0.6790    7.6280 c2        1 237     -0.521000
     28 C18        -1.9850    1.7830    5.5300 c3        1 237     -0.744000
     29 S1         -2.9340    2.5600    4.2590 s6        1 237      2.846000
     30 C19         5.7320    3.1230   -4.5900 c3        1 237     -0.288000
     31 O4         -3.2030    3.8710    4.6630 o         1 237     -0.926000
     32 O5         -3.9910    1.7540    3.8240 o         1 237     -0.926000
     33 C23         0.9120   -2.0150    1.6680 c1        1 237      0.001000
     34 C25        -2.8410   -0.8820    4.4360 c1        1 237     -0.213000
     35 C27        -0.7170   -0.9330    3.3670 c1        1 237     -0.035000
     36 HN1         2.0460   -2.1930    0.0650 hn        1 237      0.286000
     37 HN3         6.1010   -0.5120    0.4390 hn        1 237      0.285000
     38 H4          1.8360   -3.6690    2.3040 ha        1 237      0.273000
     39 H6          7.9410   -3.5550    1.1740 ha        1 237      0.065000
     40 H7          5.4430   -3.2510    0.9460 h1        1 237      0.157500
     41 H8          6.8430    3.1380   -4.5730 hc        1 237      0.072500
     42 H10         2.3190   -0.7480   -1.9040 h1        1 237      0.155000
     43 H15         0.5770    1.3410    6.3590 ha        1 237      0.127000
     44 H17        -1.3450    2.6110    5.9860 h1        1 237      0.196000
     45 H201       -1.3280    1.6260    2.7770 h1        1 237      0.160667
     46 H202       -0.8950    3.2810    3.3070 h1        1 237      0.160667
     47 H203       -2.1840    3.0340    2.0950 h1        1 237      0.160667
     48 H22        -0.0060    2.8780    1.0720 ha        1 237      0.000500
     49 H3          6.2720   -3.1650   -0.6740 h1        1 237      0.157500
     50 H91         0.9720    1.1900   -2.3240 hc        1 237      0.133500
     51 H92         1.7430    2.1770   -1.0250 hc        1 237      0.133500
     52 H111        3.9810    2.1530   -0.3580 ha        1 237      0.077000
     53 H112        5.3580    2.5690   -3.6980 hc        1 237      0.072500
     54 H14         0.8230   -0.2770    5.4840 ha        1 237      0.127000
     55 H16        -1.9540    0.0540    7.7330 ha        1 237      0.186000
     56 H191        5.3510    4.1670   -4.5690 hc        1 237      0.072500
     57 H192        3.2900    2.8820   -4.2640 ho        1 237      0.267000
     58 H193        5.3850    2.6180   -5.5180 hc        1 237      0.072500
     59 H25        -4.8540   -0.6420    3.8410 h4        1 237      0.198000
     60 H27         0.4360    3.0530    0.5880 ha        1 237      0.000500
     61 F1         -4.6310   -2.2210    5.1680 f         1 237     -0.100000
     62 Cl1         3.1100   -6.7400    4.0150 cl        1 237      0.016000
@<TRIPOS>BOND
     1    1   16 1   
     2    1   33 1   
     3    1   36 1   
     4    2   18 1   
     5    2   23 1   
     6    2   37 1   
     7    3    4 1   
     8    3   19 1   
     9    3   38 1   
    10    4    5 1   
    11    4   62 1   
    12    6   18 1   
    13    6   39 1   
    14    7   20 1   
    15    7   25 1   
    16    8   16 1   
    17    8   20 1   
    18    8   21 1   
    19    8   42 1   
    20    9   15 1   
    21    9   26 1   
    22    9   28 1   
    23   10   27 1   
    24   11   27 1   
    25   11   28 1   
    26   12   29 1   
    27   12   45 1   
    28   12   46 1   
    29   12   47 1   
    30   13   33 1   
    31   13   35 1   
    32   14   34 1   
    33   14   59 1   
    34   14   61 1   
    35   15   34 1   
    36   15   35 1   
    37   16   17 1   
    38   18   40 1   
    39   18   49 1   
    40   20   50 1   
    41   20   51 1   
    42   21   22 1   
    43   21   23 1   
    44   22   52 1   
    45   23   24 1   
    46   25   57 1   
    47   26   43 1   
    48   26   54 1   
    49   27   55 1   
    50   28   29 1   
    51   28   44 1   
    52   29   31 1   
    53   29   32 1   
    54   30   41 1   
    55   30   53 1   
    56   30   56 1   
    57   30   58 1   
    58   48   60 1   
@<TRIPOS>SUBSTRUCTURE
     1 237         1 TEMP              0 ****  ****    0 ROOT
