@<TRIPOS>MOLECULE
237
   62    56     1     0     0
SMALL
bcc


@<TRIPOS>ATOM
      1 N1         -0.7820    0.5460   -1.2170 n         1 237     -0.311000
      2 N3          3.9600   -1.7980   -2.1520 n         1 237     -0.303000
      3 C4          4.6820   -4.8100   -0.1520 c1        1 237     -0.101000
      4 C5          4.4680   -5.8080   -1.0900 c1        1 237     -0.082000
      5 C6          4.0480   -5.4780   -2.3680 c1        1 237     -0.101000
      6 C7          3.8410   -4.1510   -2.7090 c1        1 237     -0.130000
      7 C8          3.1740    2.0390   -3.5440 c3        1 237      0.020000
      8 C10         1.2800    1.0710   -2.6210 c3        1 237      0.001000
      9 C13        -3.4760    0.8100    3.6290 c1        1 237     -0.006500
     10 C15        -3.0080    1.2060    5.9510 c1        1 237     -0.112250
     11 C17        -5.2480    0.7040    5.2460 c1        1 237     -0.038000
     12 C20        -7.6090    0.7500    3.1370 c3        1 237     -0.939000
     13 C22        -1.5200    1.7340    0.7710 c1        1 237     -0.112250
     14 C24        -2.2280   -0.5320    0.4150 c1        1 237      0.040000
     15 C26        -3.0360    0.6920    2.3170 c1        1 237     -0.006500
     16 C1          0.5570    1.0210   -1.2830 c2        1 237      0.318000
     17 O1          1.0990    1.4490   -0.2840 o         1 237     -0.354000
     18 C2          4.0560   -3.1520   -1.7710 c2        1 237      0.069000
     19 C3          4.4760   -3.4830   -0.4930 c2        1 237     -0.170000
     20 C9          1.7480    2.2200   -2.8070 c3        1 237     -0.201000
     21 N2          2.5970    0.2090   -2.5440 n         1 237     -0.303000
     22 C11         3.7100    1.0840   -3.0370 c3        1 237     -0.050000
     23 C12         2.7070   -1.1330   -2.0970 c2        1 237      0.385000
     24 O2          1.7180   -1.7310   -1.7220 o         1 237     -0.395000
     25 CL1         4.6660   -7.4810   -0.6420 cl        1 237     -0.014000
     26 O3          4.0250    3.2790   -3.3360 os        1 237     -0.267000
     27 C14        -2.5730    1.1100    4.6380 c1        1 237     -0.130000
     28 C16        -4.3460    1.0030    6.2550 c1        1 237     -0.112250
     29 C18        -4.8130    0.6080    3.9320 c1        1 237     -0.791000
     30 S1         -5.9770    0.2750    2.6340 s6        1 237      2.851000
     31 C19         4.4400    3.8950   -4.5360 c3        1 237     -0.076000
     32 O4         -5.9340   -1.1060    2.2380 o         1 237     -0.929500
     33 O5         -5.5970    0.9280    1.4130 o         1 237     -0.929500
     34 C23        -1.4860    0.5710    0.0190 c1        1 237      0.069000
     35 C25        -3.0030   -0.4710    1.5640 c1        1 237     -0.130000
     36 C27        -2.2950    1.7950    1.9210 c1        1 237     -0.112250
     37 F1         -2.2290   -1.6420   -0.3350 f         1 237     -0.101000
     38 HN1        -1.1830    0.2040   -1.9630 hn        1 237      0.269000
     39 HN3         4.6960   -1.3440   -2.3740 hn        1 237      0.232000
     40 H4          4.9790   -5.0420    0.7480 ha        1 237      0.148000
     41 H6          3.8970   -6.1810   -3.0280 ha        1 237      0.153000
     42 H7          3.5450   -3.9190   -3.6100 ha        1 237      0.176000
     43 H8          3.0400    1.8800   -4.5010 h1        1 237      0.091000
     44 H10         0.5750    0.7660   -3.2280 h1        1 237      0.132000
     45 H15        -2.3720    1.4170    6.6620 ha        1 237      0.150000
     46 H17        -6.1900    0.5620    5.4600 ha        1 237      0.134000
     47 H201       -7.5580    1.2700    3.9660 h1        1 237      0.153000
     48 H202       -8.1510   -0.0530    3.2880 h1        1 237      0.153000
     49 H203       -8.0220    1.2950    2.4350 h1        1 237      0.153000
     50 H22        -0.9980    2.5110    0.4930 ha        1 237      0.150000
     51 H3          4.6270   -2.7800    0.1680 ha        1 237      0.135000
     52 H91         1.8720    2.6740   -1.9470 hc        1 237      0.125000
     53 H92         1.1420    2.7400   -3.3750 hc        1 237      0.125000
     54 H111        4.2720    1.3700   -2.2870 h1        1 237      0.107000
     55 H112        4.2490    0.6050   -3.7020 h1        1 237      0.107000
     56 H14        -1.6310    1.2520    4.4240 ha        1 237      0.163500
     57 H16        -4.6520    1.0710    7.1800 ha        1 237      0.150000
     58 H191        5.0160    3.2790   -5.0380 h1        1 237      0.077667
     59 H192        4.9410    4.7140   -4.3270 h1        1 237      0.077667
     60 H193        3.6530    4.1220   -5.0770 h1        1 237      0.077667
     61 H25        -3.5250   -1.2480    1.8430 ha        1 237      0.163500
     62 H27        -2.3180    2.6150    2.4510 ha        1 237      0.150000
@<TRIPOS>BOND
     1    1   16 1   
     2    1   34 1   
     3    1   38 1   
     4    2   18 1   
     5    2   23 1   
     6    2   39 1   
     7    3   19 1   
     8    3   40 1   
     9    4    5 1   
    10    4   25 1   
    11    5   41 1   
    12    6   18 1   
    13    6   42 1   
    14    7   20 1   
    15    7   22 1   
    16    7   26 1   
    17    7   43 1   
    18    8   16 1   
    19    8   20 1   
    20    8   21 1   
    21    8   44 1   
    22    9   27 1   
    23   10   28 1   
    24   10   45 1   
    25   11   29 1   
    26   11   46 1   
    27   12   30 1   
    28   12   47 1   
    29   12   48 1   
    30   12   49 1   
    31   13   36 1   
    32   13   50 1   
    33   14   34 1   
    34   14   37 1   
    35   15   35 1   
    36   16   17 1   
    37   18   19 1   
    38   19   51 1   
    39   20   52 1   
    40   20   53 1   
    41   21   22 1   
    42   21   23 1   
    43   22   54 1   
    44   22   55 1   
    45   23   24 1   
    46   26   31 1   
    47   27   56 1   
    48   28   57 1   
    49   29   30 1   
    50   30   32 1   
    51   30   33 1   
    52   31   58 1   
    53   31   59 1   
    54   31   60 1   
    55   35   61 1   
    56   36   62 1   
@<TRIPOS>SUBSTRUCTURE
     1 237         1 TEMP              0 ****  ****    0 ROOT
