@<TRIPOS>MOLECULE
237
   62    65     1     0     0
SMALL
bcc


@<TRIPOS>ATOM
      1 N1         -0.2050    1.4240   -1.2210 n         1 237     -0.463100
      2 N3          5.0940    0.3810   -0.2050 n         1 237     -0.463100
      3 C4          7.1810   -2.5350    0.7150 ca        1 237     -0.098500
      4 C5          7.0910   -3.3210   -0.4360 ca        1 237     -0.010600
      5 C6          6.3160   -2.8950   -1.5170 ca        1 237     -0.098500
      6 C7          5.6340   -1.6840   -1.4590 ca        1 237     -0.157500
      7 C8          2.9640    4.2210    0.1970 c3        1 237      0.136100
      8 C10         2.0840    2.3660   -1.1680 c3        1 237      0.048700
      9 C13        -4.9340   -1.5430   -0.0400 cp        1 237      0.091000
     10 C15        -5.8670   -3.7830    0.0820 ca        1 237     -0.068000
     11 C17        -7.2290   -1.8730    0.6200 ca        1 237     -0.037000
     12 C20        -5.4350    1.0550    1.8070 c3        1 237     -0.363300
     13 C22        -1.4230   -0.2100    0.1860 ca        1 237     -0.149000
     14 C24        -2.5300    0.8580   -1.6950 ca        1 237      0.064900
     15 C26        -3.7430   -0.7320   -0.3250 cp        1 237     -0.112000
     16 C1          1.0040    1.4460   -0.5390 c         1 237      0.656100
     17 O1          1.2120    0.8120    0.5080 o         1 237     -0.577100
     18 C2          5.7140   -0.8770   -0.3040 ca        1 237      0.077600
     19 C3          6.4990   -1.3270    0.7860 ca        1 237     -0.157500
     20 C9          1.8060    3.8220   -0.7320 c3        1 237     -0.087400
     21 N2          3.4420    2.0620   -0.7470 n         1 237     -0.452800
     22 C11         3.8920    2.9780    0.2810 c3        1 237      0.047000
     23 C12         3.9520    0.7590   -0.9330 c         1 237      0.790100
     24 O2          3.4300    0.0310   -1.8070 o         1 237     -0.617100
     25 O3          2.3980    4.5250    1.4650 os        1 237     -0.408600
     26 C14        -4.7960   -2.9340   -0.1720 ca        1 237     -0.149000
     27 C16        -7.0930   -3.2490    0.4810 ca        1 237     -0.152000
     28 C18        -6.1630   -0.9920    0.3650 ca        1 237     -0.362500
     29 S1         -6.4940    0.6520    0.5530 sy        1 237      1.391300
     30 C19         3.2910    5.2040    2.3340 c3        1 237      0.112700
     31 O4         -7.8140    0.8110    1.0140 o         1 237     -0.660800
     32 O5         -6.1600    1.3680   -0.6050 o         1 237     -0.660800
     33 C23        -1.3530    0.6920   -0.8960 ca        1 237      0.061600
     34 C25        -3.7060    0.1540   -1.4030 ca        1 237     -0.093000
     35 C27        -2.5930   -0.9090    0.4560 ca        1 237     -0.101000
     36 HN1        -0.2640    1.9510   -2.0670 hn        1 237      0.329500
     37 HN3         5.3210    0.9020    0.6130 hn        1 237      0.316500
     38 H4          7.7880   -2.8690    1.5710 ha        1 237      0.148500
     39 H6          6.2400   -3.5140   -2.4250 ha        1 237      0.148500
     40 H7          5.0220   -1.3700   -2.3210 ha        1 237      0.154500
     41 H8          3.5270    5.1060   -0.2000 h1        1 237      0.057700
     42 H10         2.0530    2.2520   -2.2910 h1        1 237      0.095700
     43 H15        -5.7480   -4.8720   -0.0310 ha        1 237      0.140000
     44 H17        -8.2040   -1.4550    0.9380 ha        1 237      0.169000
     45 H201       -4.4070    0.6320    1.6820 h1        1 237      0.118700
     46 H202       -5.3060    2.1640    1.8830 h1        1 237      0.118700
     47 H203       -5.8020    0.7120    2.8060 h1        1 237      0.118700
     48 H22        -0.5410   -0.3760    0.8290 ha        1 237      0.183000
     49 H3          6.5810   -0.7250    1.7050 ha        1 237      0.154500
     50 H91         0.8310    3.9090   -0.1910 hc        1 237      0.079200
     51 H92         1.7820    4.4910   -1.6260 hc        1 237      0.079200
     52 H111        4.9580    3.2640    0.0750 h1        1 237      0.057200
     53 H112        3.8200    2.5310    1.3120 h1        1 237      0.057200
     54 H14        -3.8250   -3.3490   -0.4870 ha        1 237      0.147000
     55 H16        -7.9480   -3.9110    0.6840 ha        1 237      0.144000
     56 H191        3.5920    6.1890    1.8990 h1        1 237      0.037700
     57 H192        2.7010    5.3520    3.2730 h1        1 237      0.037700
     58 H193        4.1970    4.5810    2.5340 h1        1 237      0.037700
     59 H25        -4.6040    0.3340   -2.0220 ha        1 237      0.186000
     60 H27        -2.6120   -1.6170    1.3000 ha        1 237      0.143000
     61 F1         -2.5180    1.7050   -2.7570 f         1 237     -0.141900
     62 CL1         7.9240   -4.8010   -0.5180 cl        1 237     -0.096400
@<TRIPOS>BOND
     1    1   16 1   
     2    1   33 1   
     3    1   36 1   
     4    2   18 1   
     5    2   23 1   
     6    2   37 1   
     7    3    4 ar  
     8    3   19 ar  
     9    3   38 1   
    10    4    5 ar  
    11    4   62 1   
    12    5    6 ar  
    13    5   39 1   
    14    6   18 ar  
    15    6   40 1   
    16    7   20 1   
    17    7   22 1   
    18    7   25 1   
    19    7   41 1   
    20    8   16 1   
    21    8   20 1   
    22    8   21 1   
    23    8   42 1   
    24    9   15 1   
    25    9   26 ar  
    26    9   28 ar  
    27   10   26 ar  
    28   10   27 ar  
    29   10   43 1   
    30   11   27 ar  
    31   11   28 ar  
    32   11   44 1   
    33   12   29 1   
    34   12   45 1   
    35   12   46 1   
    36   12   47 1   
    37   13   33 ar  
    38   13   35 ar  
    39   13   48 1   
    40   14   33 ar  
    41   14   34 ar  
    42   14   61 1   
    43   15   34 ar  
    44   15   35 ar  
    45   16   17 2   
    46   18   19 ar  
    47   19   49 1   
    48   20   50 1   
    49   20   51 1   
    50   21   22 1   
    51   21   23 1   
    52   22   52 1   
    53   22   53 1   
    54   23   24 2   
    55   25   30 1   
    56   26   54 1   
    57   27   55 1   
    58   28   29 1   
    59   29   31 2   
    60   29   32 2   
    61   30   56 1   
    62   30   57 1   
    63   30   58 1   
    64   34   59 1   
    65   35   60 1   
@<TRIPOS>SUBSTRUCTURE
     1 237         1 TEMP              0 ****  ****    0 ROOT
