@<TRIPOS>MOLECULE
238
   42    45     1     0     0
SMALL
bcc


@<TRIPOS>ATOM
      1 F1          0.0880    0.3710    0.1940 f         1 238     -0.136900
      2 C19         1.4230    0.1640    0.0850 ca        1 238      0.130900
      3 C22         2.1940    0.1390    1.2640 ca        1 238     -0.172000
      4 C21         3.5670   -0.0650    1.1920 ca        1 238     -0.116000
      5 C20         4.1820   -0.2440   -0.0460 ca        1 238     -0.148000
      6 C18         3.4240   -0.2180   -1.2130 ca        1 238     -0.103000
      7 C17         2.0360   -0.0150   -1.1770 cp        1 238     -0.044000
      8 C16         1.2830    0.0050   -2.4290 cp        1 238     -0.063000
      9 C12         1.7960    0.6890   -3.5420 ca        1 238     -0.120000
     10 C13         0.0630   -0.6730   -2.5520 ca        1 238     -0.120000
     11 C9         -0.6240   -0.6790   -3.7630 ca        1 238     -0.109500
     12 C23        -0.1100    0.0060   -4.8700 cp        1 238     -0.102500
     13 C8          1.1060    0.6920   -4.7490 ca        1 238     -0.109500
     14 C3         -0.8280   -0.0140   -6.1650 cp        1 238      0.456800
     15 N1         -1.1030   -1.2160   -6.6830 nb        1 238     -0.691000
     16 C7         -1.7410   -1.2640   -7.8990 ca        1 238      0.384600
     17 C11        -2.0460   -2.5400   -8.4830 ca        1 238     -0.180300
     18 C15        -2.6610   -2.6190   -9.7040 ca        1 238     -0.129000
     19 C14        -2.9970   -1.4350  -10.4100 ca        1 238     -0.018600
     20 Cl1        -3.7450   -1.5910  -11.9380 cl        1 238     -0.132400
     21 C10        -2.7280   -0.1930   -9.8880 ca        1 238     -0.055000
     22 C6         -2.1070   -0.0820   -8.6130 ca        1 238     -0.123300
     23 C4         -1.8350    1.1850   -8.0200 ca        1 238     -0.053600
     24 C5         -2.2670    2.4610   -8.7480 c         1 238      0.908200
     25 O2         -3.1180    3.1970   -8.1810 o         1 238     -0.811300
     26 O1         -1.7540    2.6870   -9.8770 o         1 238     -0.811300
     27 C2         -1.1920    1.2270   -6.7920 ca        1 238     -0.179600
     28 C1         -0.9030    2.5200   -6.1330 c3        1 238     -0.058800
     29 H22         1.6950    0.2850    2.2330 ha        1 238      0.142000
     30 H21         4.1650   -0.0840    2.1150 ha        1 238      0.129000
     31 H20         5.2680   -0.4070   -0.1030 ha        1 238      0.130000
     32 H18         3.9130   -0.3640   -2.1890 ha        1 238      0.143000
     33 H12         2.7480    1.2340   -3.4560 ha        1 238      0.129000
     34 H13        -0.3550   -1.2040   -1.6830 ha        1 238      0.129000
     35 H9         -1.5750   -1.2260   -3.8540 ha        1 238      0.147000
     36 H8          1.5100    1.2370   -5.6170 ha        1 238      0.147000
     37 H11        -1.7770   -3.4550   -7.9340 ha        1 238      0.134000
     38 H15        -2.8950   -3.5970  -10.1500 ha        1 238      0.128000
     39 H10        -2.9570    0.7440  -10.4320 ha        1 238      0.196000
     40 H11A       -0.8960    2.4170   -5.0200 hc        1 238      0.051700
     41 H12A       -1.6790    3.2790   -6.4210 hc        1 238      0.051700
     42 H13A        0.0970    2.9010   -6.4590 hc        1 238      0.051700
@<TRIPOS>BOND
     1    1    2 1   
     2    2    3 ar  
     3    2    7 ar  
     4    3    4 ar  
     5    3   29 1   
     6    4    5 ar  
     7    4   30 1   
     8    5    6 ar  
     9    5   31 1   
    10    6    7 ar  
    11    6   32 1   
    12    7    8 1   
    13    8    9 ar  
    14    8   10 ar  
    15    9   13 ar  
    16    9   33 1   
    17   10   11 ar  
    18   10   34 1   
    19   11   12 ar  
    20   11   35 1   
    21   12   13 ar  
    22   12   14 1   
    23   13   36 1   
    24   14   15 ar  
    25   14   27 ar  
    26   15   16 ar  
    27   16   17 ar  
    28   16   22 ar  
    29   17   18 ar  
    30   17   37 1   
    31   18   19 ar  
    32   18   38 1   
    33   19   20 1   
    34   19   21 ar  
    35   21   22 ar  
    36   21   39 1   
    37   22   23 ar  
    38   23   24 1   
    39   23   27 ar  
    40   24   25 1   
    41   24   26 1   
    42   27   28 1   
    43   28   40 1   
    44   28   41 1   
    45   28   42 1   
@<TRIPOS>SUBSTRUCTURE
     1 238         1 TEMP              0 ****  ****    0 ROOT
