@<TRIPOS>MOLECULE
238
   42    45     1     0     0
SMALL
bcc


@<TRIPOS>ATOM
      1 F1          5.5080   -0.3060    2.1390 f         1 238     -0.136900
      2 C19         6.0340   -0.2790    0.8910 ca        1 238      0.130900
      3 C22         7.4360   -0.3270    0.7560 ca        1 238     -0.172000
      4 C21         8.0130   -0.2960   -0.5080 ca        1 238     -0.116000
      5 C20         7.2060   -0.2170   -1.6430 ca        1 238     -0.148000
      6 C18         5.8220   -0.1680   -1.5120 ca        1 238     -0.103000
      7 C17         5.2060   -0.1970   -0.2520 cp        1 238     -0.044000
      8 C16         3.7480   -0.1420   -0.1670 cp        1 238     -0.063000
      9 C12         3.0340    0.7500   -0.9820 ca        1 238     -0.120000
     10 C13         3.0400   -0.9870    0.6980 ca        1 238     -0.120000
     11 C9          1.6480   -0.9510    0.7400 ca        1 238     -0.109500
     12 C23         0.9400   -0.0590   -0.0740 cp        1 238     -0.102500
     13 C8          1.6450    0.7930   -0.9340 ca        1 238     -0.109500
     14 C3         -0.5400   -0.0330   -0.0460 cp        1 238      0.456800
     15 N1         -1.1680   -1.1880   -0.2860 nb        1 238     -0.691000
     16 C7         -2.5420   -1.1860   -0.2980 ca        1 238      0.384600
     17 C11        -3.2460   -2.4110   -0.5570 ca        1 238     -0.180300
     18 C15        -4.6140   -2.4340   -0.5980 ca        1 238     -0.129000
     19 C14        -5.3530   -1.2410   -0.3910 ca        1 238     -0.018600
     20 CL1        -7.0570   -1.3230   -0.4710 cl        1 238     -0.132400
     21 C10        -4.7220   -0.0470   -0.1360 ca        1 238     -0.055000
     22 C6         -3.3020    0.0010   -0.0690 ca        1 238     -0.123300
     23 C4         -2.6070    1.2110    0.2210 ca        1 238     -0.053600
     24 C5         -3.4080    2.4820    0.5190 c         1 238      0.908200
     25 O2         -3.2840    2.9950    1.6640 o         1 238     -0.811300
     26 O1         -4.1520    2.9280   -0.3960 o         1 238     -0.811300
     27 C2         -1.2210    1.2020    0.2330 ca        1 238     -0.179600
     28 C1         -0.4580    2.4320    0.5430 c3        1 238     -0.058800
     29 H22         8.0590   -0.3870    1.6600 ha        1 238      0.142000
     30 H21         9.1080   -0.3350   -0.6090 ha        1 238      0.129000
     31 H20         7.6640   -0.1950   -2.6420 ha        1 238      0.130000
     32 H18         5.1880   -0.1100   -2.4110 ha        1 238      0.143000
     33 H12         3.5780    1.4260   -1.6580 ha        1 238      0.129000
     34 H13         3.5900   -1.6830    1.3490 ha        1 238      0.129000
     35 H9          1.1010   -1.6290    1.4120 ha        1 238      0.147000
     36 H8          1.0910    1.5010   -1.5700 ha        1 238      0.147000
     37 H11        -2.6660   -3.3320   -0.7240 ha        1 238      0.134000
     38 H15        -5.1510   -3.3730   -0.7950 ha        1 238      0.128000
     39 H10        -5.2770    0.9010    0.0030 ha        1 238      0.196000
     40 H11A       -0.2600    3.0080   -0.3960 hc        1 238      0.051700
     41 H12A       -1.0520    3.0860    1.2360 hc        1 238      0.051700
     42 H13A        0.5220    2.1930    1.0240 hc        1 238      0.051700
@<TRIPOS>BOND
     1    1    2 1   
     2    2    3 ar  
     3    2    7 ar  
     4    3    4 ar  
     5    3   29 1   
     6    4    5 ar  
     7    4   30 1   
     8    5    6 ar  
     9    5   31 1   
    10    6    7 ar  
    11    6   32 1   
    12    7    8 1   
    13    8    9 ar  
    14    8   10 ar  
    15    9   13 ar  
    16    9   33 1   
    17   10   11 ar  
    18   10   34 1   
    19   11   12 ar  
    20   11   35 1   
    21   12   13 ar  
    22   12   14 1   
    23   13   36 1   
    24   14   15 ar  
    25   14   27 ar  
    26   15   16 ar  
    27   16   17 ar  
    28   16   22 ar  
    29   17   18 ar  
    30   17   37 1   
    31   18   19 ar  
    32   18   38 1   
    33   19   20 1   
    34   19   21 ar  
    35   21   22 ar  
    36   21   39 1   
    37   22   23 ar  
    38   23   24 1   
    39   23   27 ar  
    40   24   25 1   
    41   24   26 1   
    42   27   28 1   
    43   28   40 1   
    44   28   41 1   
    45   28   42 1   
@<TRIPOS>SUBSTRUCTURE
     1 238         1 TEMP              0 ****  ****    0 ROOT
