@<TRIPOS>MOLECULE
238
   42    33     1     0     0
SMALL
bcc


@<TRIPOS>ATOM
      1 F1          3.6390   -1.4020    2.7740 f         1 238     -0.101000
      2 C19         3.2130   -0.6850    3.8220 c2        1 238      0.097000
      3 C22         3.9220   -0.7090    5.0120 c2        1 238     -0.172000
      4 C21         3.4620    0.0040    6.1090 c1        1 238     -0.116000
      5 C20         2.2920    0.7400    6.0140 c1        1 238     -0.119000
      6 C18         1.5820    0.7650    4.8240 c1        1 238     -0.119000
      7 C17         2.0420    0.0520    3.7280 c1        1 238     -0.045000
      8 C16         1.3220    0.0620    2.5410 c1        1 238     -0.027500
      9 C12         1.6860    0.9220    1.5170 c1        1 238     -0.119000
     10 C13         0.2650   -0.8170    2.3650 c1        1 238     -0.116500
     11 C9         -0.4290   -0.8350    1.1650 c1        1 238     -0.116500
     12 C23        -0.0650    0.0250    0.1410 c1        1 238     -0.027500
     13 C8          0.9930    0.9040    0.3170 c1        1 238     -0.119000
     14 C3         -0.7370   -0.0170   -1.0720 c1        1 238      0.017000
     15 N1         -1.7950    0.8420   -1.1620 n1        1 238     -0.163000
     16 C7         -2.4810    0.9760   -2.3580 c1        1 238     -0.011000
     17 C11        -3.5730    1.8600   -2.4490 c2        1 238     -0.115000
     18 C15        -4.2610    1.9930   -3.6480 c1        1 238     -0.129000
     19 C14        -3.8720    1.2520   -4.7600 c1        1 238     -0.097000
     20 CL1        -4.9220    1.3810   -6.1460 cl        1 238     -0.055000
     21 C10        -2.7950    0.3790   -4.6710 c1        1 238     -0.055000
     22 C6         -2.0960    0.2440   -3.4560 c1        1 238     -0.058000
     23 C4         -1.0210   -0.6280   -3.3650 c1        1 238     -0.033000
     24 C5         -0.8890   -1.5050   -4.5940 c1        1 238      0.357000
     25 O2         -1.6920   -2.4580   -4.7780 o         1 238     -0.546000
     26 O1          0.0360   -1.2920   -5.4230 o         1 238     -0.546000
     27 C2         -0.3460   -0.7590   -2.1830 c2        1 238     -0.106000
     28 C1          0.8030   -1.7410   -2.1040 c3        1 238     -0.181000
     29 H22         4.7470   -1.2280    5.0790 ha        1 238      0.142000
     30 H21         3.9560   -0.0220    6.9500 ha        1 238      0.129000
     31 H20         1.9670    1.2420    6.7860 ha        1 238      0.138250
     32 H18         0.7580    1.2840    4.7570 ha        1 238      0.138250
     33 H12         2.4310    1.5410    1.6410 ha        1 238      0.138250
     34 H13         0.0080   -1.4220    3.0860 ha        1 238      0.134500
     35 H9         -1.1740   -1.4540    1.0410 ha        1 238      0.134500
     36 H8          1.2490    1.5100   -0.4050 ha        1 238      0.138250
     37 H11        -3.8470    2.3800   -1.6690 ha        1 238      0.134000
     38 H15        -5.0220    2.6020   -3.7090 ha        1 238      0.127000
     39 H10        -2.5110   -0.1260   -5.4570 ha        1 238      0.197000
     40 H11A        1.1630   -1.8960   -3.0030 hc        1 238      0.090333
     41 H12A        0.4830   -2.5890   -1.7290 hc        1 238      0.090333
     42 H13A        1.5070   -1.3750   -1.5280 hc        1 238      0.090333
@<TRIPOS>BOND
     1    1    2 1   
     2    2    3 1   
     3    2    7 1   
     4    3    4 1   
     5    3   29 1   
     6    4   30 1   
     7    5    6 1   
     8    5   31 1   
     9    6   32 1   
    10    8   10 1   
    11    9   13 1   
    12    9   33 1   
    13   10   34 1   
    14   11   12 1   
    15   11   35 1   
    16   13   36 1   
    17   14   27 1   
    18   15   16 1   
    19   16   17 1   
    20   17   18 1   
    21   17   37 1   
    22   18   38 1   
    23   19   20 1   
    24   19   21 1   
    25   21   39 1   
    26   22   23 1   
    27   23   27 1   
    28   24   25 1   
    29   24   26 1   
    30   27   28 1   
    31   28   40 1   
    32   28   41 1   
    33   28   42 1   
@<TRIPOS>SUBSTRUCTURE
     1 238         1 TEMP              0 ****  ****    0 ROOT
