@<TRIPOS>MOLECULE
238
   42    45     1     0     0
SMALL
bcc


@<TRIPOS>ATOM
      1 F1          0.0910    0.3970    0.1930 f         1 238     -0.136900
      2 C19         1.4240    0.1780    0.0850 ca        1 238      0.130900
      3 C22         2.1950    0.1520    1.2640 ca        1 238     -0.172000
      4 C21         3.5660   -0.0650    1.1930 ca        1 238     -0.116000
      5 C20         4.1790   -0.2560   -0.0450 ca        1 238     -0.148000
      6 C18         3.4210   -0.2290   -1.2110 ca        1 238     -0.103000
      7 C17         2.0350   -0.0140   -1.1770 cp        1 238     -0.044000
      8 C16         1.2820    0.0060   -2.4280 cp        1 238     -0.063000
      9 C12         1.8010    0.6790   -3.5450 ca        1 238     -0.120000
     10 C13         0.0560   -0.6610   -2.5470 ca        1 238     -0.120000
     11 C9         -0.6310   -0.6670   -3.7590 ca        1 238     -0.109500
     12 C23        -0.1110    0.0070   -4.8700 cp        1 238     -0.102500
     13 C8          1.1110    0.6820   -4.7530 ca        1 238     -0.109500
     14 C3         -0.8300   -0.0140   -6.1650 cp        1 238      0.456800
     15 N1         -1.1160   -1.2160   -6.6750 nb        1 238     -0.691000
     16 C7         -1.7540   -1.2650   -7.8910 ca        1 238      0.384600
     17 C11        -2.0710   -2.5420   -8.4680 ca        1 238     -0.180300
     18 C15        -2.6860   -2.6220   -9.6880 ca        1 238     -0.129000
     19 C14        -3.0110   -1.4380  -10.4010 ca        1 238     -0.018600
     20 CL1        -3.7610   -1.5960  -11.9280 cl        1 238     -0.132400
     21 C10        -2.7310   -0.1960   -9.8860 ca        1 238     -0.055000
     22 C6         -2.1090   -0.0840   -8.6110 ca        1 238     -0.123300
     23 C4         -1.8250    1.1840   -8.0260 ca        1 238     -0.053600
     24 C5         -2.2460    2.4600   -8.7610 c         1 238      0.908200
     25 O2         -3.0900    3.2070   -8.1980 o         1 238     -0.811300
     26 O1         -1.7300    2.6750   -9.8910 o         1 238     -0.811300
     27 C2         -1.1820    1.2270   -6.7980 ca        1 238     -0.179600
     28 C1         -0.8810    2.5210   -6.1460 c3        1 238     -0.058800
     29 H22         1.6980    0.3080    2.2320 ha        1 238      0.142000
     30 H21         4.1640   -0.0850    2.1150 ha        1 238      0.129000
     31 H20         5.2640   -0.4290   -0.1010 ha        1 238      0.130000
     32 H18         3.9090   -0.3860   -2.1870 ha        1 238      0.143000
     33 H12         2.7580    1.2160   -3.4620 ha        1 238      0.129000
     34 H13        -0.3660   -1.1830   -1.6760 ha        1 238      0.129000
     35 H9         -1.5870   -1.2060   -3.8460 ha        1 238      0.147000
     36 H8          1.5200    1.2190   -5.6230 ha        1 238      0.147000
     37 H11        -1.8100   -3.4550   -7.9140 ha        1 238      0.134000
     38 H15        -2.9300   -3.5990  -10.1290 ha        1 238      0.128000
     39 H10        -2.9510    0.7400  -10.4350 ha        1 238      0.196000
     40 H11A       -0.8740    2.4240   -5.0330 hc        1 238      0.051700
     41 H12A       -1.6500    3.2850   -6.4390 hc        1 238      0.051700
     42 H13A        0.1230    2.8920   -6.4750 hc        1 238      0.051700
@<TRIPOS>BOND
     1    1    2 1   
     2    2    3 ar  
     3    2    7 ar  
     4    3    4 ar  
     5    3   29 1   
     6    4    5 ar  
     7    4   30 1   
     8    5    6 ar  
     9    5   31 1   
    10    6    7 ar  
    11    6   32 1   
    12    7    8 1   
    13    8    9 ar  
    14    8   10 ar  
    15    9   13 ar  
    16    9   33 1   
    17   10   11 ar  
    18   10   34 1   
    19   11   12 ar  
    20   11   35 1   
    21   12   13 ar  
    22   12   14 1   
    23   13   36 1   
    24   14   15 ar  
    25   14   27 ar  
    26   15   16 ar  
    27   16   17 ar  
    28   16   22 ar  
    29   17   18 ar  
    30   17   37 1   
    31   18   19 ar  
    32   18   38 1   
    33   19   20 1   
    34   19   21 ar  
    35   21   22 ar  
    36   21   39 1   
    37   22   23 ar  
    38   23   24 1   
    39   23   27 ar  
    40   24   25 1   
    41   24   26 1   
    42   27   28 1   
    43   28   40 1   
    44   28   41 1   
    45   28   42 1   
@<TRIPOS>SUBSTRUCTURE
     1 238         1 TEMP              0 ****  ****    0 ROOT
