@<TRIPOS>MOLECULE
239
   45    47     1     0     0
SMALL
bcc


@<TRIPOS>ATOM
      1 N18         0.0750    0.9990    0.1060 n2        1 239     -0.651100
      2 C17         1.1940    0.4110    0.0460 ce        1 239      0.604800
      3 N19         1.9130   -0.2600    1.2120 n4        1 239     -0.881600
      4 C12         1.9750    0.2960   -1.2180 ca        1 239     -0.159900
      5 C13         1.3820   -0.2700   -2.3290 ca        1 239     -0.042000
      6 C3          2.0820   -0.3000   -3.5670 ca        1 239     -0.007000
      7 C4          1.4970   -0.8620   -4.7380 ca        1 239     -0.067000
      8 C5          2.1700   -0.8570   -5.9340 ca        1 239     -0.123000
      9 C6          3.4720   -0.2900   -6.0200 ca        1 239     -0.188600
     10 C1          4.0710    0.2480   -4.8890 ca        1 239      0.011000
     11 C2          3.3840    0.2560   -3.6450 ca        1 239     -0.040000
     12 C10         3.9690    0.8290   -2.4800 ca        1 239     -0.067000
     13 C11         3.2790    0.8530   -1.2920 ca        1 239     -0.116000
     14 C23         4.2560   -0.2480   -7.2580 c         1 239      0.569700
     15 O35         5.4330    0.0460   -7.3960 o         1 239     -0.400100
     16 N24         3.5010   -0.6070   -8.5440 n4        1 239     -0.557200
     17 C25         4.2590   -0.4130   -9.7850 ca        1 239      0.003600
     18 C30         4.1620    0.8060  -10.4800 ca        1 239     -0.085000
     19 C29         4.8390    0.9610  -11.6910 ca        1 239     -0.073500
     20 C28         5.6120   -0.0840  -12.2120 ca        1 239     -0.128300
     21 C27         5.7220   -1.2850  -11.5030 ca        1 239     -0.073500
     22 C26         5.0530   -1.4580  -10.2910 ca        1 239     -0.085000
     23 C37         6.2260    0.0460  -13.5710 c3        1 239      0.151100
     24 N38         7.6520    0.4920  -13.5400 n4        1 239     -0.839600
     25 H18        -0.4770    1.1010    0.9320 hn        1 239      0.485400
     26 H191        1.8690   -1.2780    1.0920 hn        1 239      0.467800
     27 H192        1.4970   -0.0170    2.1180 hn        1 239      0.467800
     28 H13         0.3590   -0.6840   -2.2870 ha        1 239      0.177000
     29 H4          0.4860   -1.3010   -4.6680 ha        1 239      0.179000
     30 H5          1.6810   -1.3120   -6.8080 ha        1 239      0.137000
     31 H1          5.0880    0.6810   -4.9400 ha        1 239      0.182000
     32 H10         4.9810    1.2670   -2.5470 ha        1 239      0.177000
     33 H11         3.7280    1.3420   -0.4120 ha        1 239      0.157000
     34 H24         3.2220   -1.5960   -8.4800 hn        1 239      0.473300
     35 H30         3.5530    1.6450  -10.1000 ha        1 239      0.179500
     36 H29         4.7340    1.9130  -12.2400 ha        1 239      0.178000
     37 H27         6.3190   -2.1240  -11.9040 ha        1 239      0.178000
     38 H26         5.1550   -2.4190   -9.7570 ha        1 239      0.179500
     39 H371        6.1920   -0.9530  -14.1060 hx        1 239      0.135200
     40 H372        5.6470    0.7960  -14.1910 hx        1 239      0.135200
     41 H381        8.2270   -0.1710  -13.0090 hn        1 239      0.472133
     42 H382        7.7320    1.4170  -13.1020 hn        1 239      0.472133
     43 H193        2.8980    0.0270    1.2150 hn        1 239      0.467800
     44 H242        2.6470   -0.0320   -8.5810 hn        1 239      0.473300
     45 H383        8.0150    0.5490  -14.5020 hn        1 239      0.472133
@<TRIPOS>BOND
     1    1    2 2   
     2    1   25 1   
     3    2    3 1   
     4    2    4 1   
     5    3   26 1   
     6    3   27 1   
     7    3   43 1   
     8    4    5 ar  
     9    4   13 ar  
    10    5    6 ar  
    11    5   28 1   
    12    6    7 ar  
    13    6   11 ar  
    14    7    8 ar  
    15    7   29 1   
    16    8    9 ar  
    17    8   30 1   
    18    9   10 ar  
    19    9   14 1   
    20   10   11 ar  
    21   10   31 1   
    22   11   12 ar  
    23   12   13 ar  
    24   12   32 1   
    25   13   33 1   
    26   14   15 2   
    27   14   16 1   
    28   16   17 1   
    29   16   34 1   
    30   16   44 1   
    31   17   18 ar  
    32   17   22 ar  
    33   18   19 ar  
    34   18   35 1   
    35   19   20 ar  
    36   19   36 1   
    37   20   21 ar  
    38   20   23 1   
    39   21   22 ar  
    40   21   37 1   
    41   22   38 1   
    42   23   24 1   
    43   23   39 1   
    44   23   40 1   
    45   24   41 1   
    46   24   42 1   
    47   24   45 1   
@<TRIPOS>SUBSTRUCTURE
     1 239         1 TEMP              0 ****  ****    0 ROOT
