@<TRIPOS>MOLECULE
239
   44    46     1     0     0
SMALL
bcc


@<TRIPOS>ATOM
      1 N18         0.0830    1.1930    0.1060 n2        1 239     -0.669100
      2 C17         1.0810    0.4240   -0.0030 ce        1 239      0.626800
      3 N19         1.6130   -0.5010    1.0980 n4        1 239     -0.888600
      4 C12         1.9040    0.2850   -1.2300 ca        1 239     -0.203900
      5 C13         1.3020   -0.0820   -2.4150 ca        1 239     -0.029000
      6 C3          2.0790   -0.1800   -3.6030 ca        1 239     -0.034000
      7 C4          1.4940   -0.5680   -4.8390 ca        1 239     -0.101000
      8 C5          2.2590   -0.6520   -5.9780 ca        1 239     -0.097000
      9 C6          3.6440   -0.3530   -5.9290 ca        1 239     -0.125600
     10 C1          4.2400    0.0150   -4.7390 ca        1 239     -0.054000
     11 C2          3.4650    0.1150   -3.5530 ca        1 239     -0.024000
     12 C10         4.0510    0.5090   -2.3160 ca        1 239     -0.071000
     13 C11         3.2900    0.5960   -1.1770 ca        1 239     -0.139000
     14 C23         4.5110   -0.4860   -7.1400 c         1 239      0.682700
     15 O35         5.6510   -0.9690   -7.0610 o         1 239     -0.549100
     16 N24         3.9710   -0.0190   -8.3410 n         1 239     -0.467100
     17 C25         4.5510   -0.0970   -9.6070 ca        1 239      0.133600
     18 C30         3.9170    0.5780  -10.6860 ca        1 239     -0.172500
     19 C29         4.4380    0.5080  -11.9690 ca        1 239     -0.059000
     20 C28         5.6010   -0.2290  -12.2260 ca        1 239     -0.240300
     21 C27         6.2350   -0.8960  -11.1700 ca        1 239     -0.059000
     22 C26         5.7290   -0.8340   -9.8800 ca        1 239     -0.172500
     23 C37         6.1180   -0.3580  -13.6110 c3        1 239      0.183100
     24 N38         7.1930    0.6560  -13.8900 n4        1 239     -0.846600
     25 H18        -0.4780    1.2830    0.9240 hn        1 239      0.470400
     26 H191        1.1800   -0.3250    2.0070 hn        1 239      0.460800
     27 H192        1.4340   -1.4720    0.8250 hn        1 239      0.460800
     28 H13         0.2210   -0.2940   -2.4700 ha        1 239      0.162000
     29 H4          0.4170   -0.8020   -4.8700 ha        1 239      0.158000
     30 H5          1.7980   -0.9760   -6.9250 ha        1 239      0.155000
     31 H1          5.3230    0.2230   -4.6980 ha        1 239      0.172000
     32 H10         5.1270    0.7530   -2.2920 ha        1 239      0.166000
     33 H11         3.7460    0.9450   -0.2380 ha        1 239      0.139000
     34 H24         3.0900    0.4490   -8.2910 hn        1 239      0.333500
     35 H30         2.9960    1.1610  -10.5180 ha        1 239      0.175000
     36 H29         3.9160    1.0260  -12.7900 ha        1 239      0.143500
     37 H27         7.1390   -1.4980  -11.3590 ha        1 239      0.143500
     38 H26         6.2560   -1.3760   -9.0730 ha        1 239      0.175000
     39 H371        5.2980   -0.1940  -14.3700 hx        1 239      0.113200
     40 H372        6.5730   -1.3790  -13.7780 hx        1 239      0.113200
     41 H381        7.5510    0.5430  -14.8420 hn        1 239      0.457800
     42 H382        6.8170    1.6030  -13.7800 hn        1 239      0.457800
     43 H193        2.6270   -0.3690    1.1790 hn        1 239      0.460800
     44 H383        7.9630    0.5380  -13.2230 hn        1 239      0.457800
@<TRIPOS>BOND
     1    1    2 2   
     2    1   25 1   
     3    2    3 1   
     4    2    4 1   
     5    3   26 1   
     6    3   27 1   
     7    3   43 1   
     8    4    5 ar  
     9    4   13 ar  
    10    5    6 ar  
    11    5   28 1   
    12    6    7 ar  
    13    6   11 ar  
    14    7    8 ar  
    15    7   29 1   
    16    8    9 ar  
    17    8   30 1   
    18    9   10 ar  
    19    9   14 1   
    20   10   11 ar  
    21   10   31 1   
    22   11   12 ar  
    23   12   13 ar  
    24   12   32 1   
    25   13   33 1   
    26   14   15 2   
    27   14   16 1   
    28   16   17 1   
    29   16   34 1   
    30   17   18 ar  
    31   17   22 ar  
    32   18   19 ar  
    33   18   35 1   
    34   19   20 ar  
    35   19   36 1   
    36   20   21 ar  
    37   20   23 1   
    38   21   22 ar  
    39   21   37 1   
    40   22   38 1   
    41   23   24 1   
    42   23   39 1   
    43   23   40 1   
    44   24   41 1   
    45   24   42 1   
    46   24   44 1   
@<TRIPOS>SUBSTRUCTURE
     1 239         1 TEMP              0 ****  ****    0 ROOT
