@<TRIPOS>MOLECULE
239
   42    37     1     0     0
SMALL
bcc


@<TRIPOS>ATOM
      1 N18        -2.8760    1.1130    7.1380 n1        1 239     -0.295000
      2 C17        -2.4030   -0.0240    6.7000 c1        1 239      0.129000
      3 N19        -2.6100   -1.2120    7.4460 n2        1 239     -0.400000
      4 C12        -1.6350   -0.0720    5.4000 c2        1 239     -0.042000
      5 C13        -2.3810   -0.1120    4.2290 c1        1 239     -0.070000
      6 C3         -1.7330   -0.0890    2.9800 c1        1 239     -0.029000
      7 C4         -2.4890   -0.1020    1.7930 c2        1 239     -0.112000
      8 C5         -1.8490   -0.0520    0.5600 c1        1 239     -0.115000
      9 C6         -0.4600    0.0090    0.4990 c1        1 239     -0.125000
     10 C1          0.2870    0.0210    1.6700 c1        1 239     -0.057000
     11 C2         -0.3600   -0.0290    2.9200 c1        1 239     -0.042000
     12 C10         0.3940    0.0110    4.1070 c2        1 239     -0.109000
     13 C11        -0.2470   -0.0110    5.3390 c2        1 239     -0.122000
     14 C23         0.3580    0.0310   -0.7770 c2        1 239      0.354000
     15 O35         1.5700    0.0860   -0.7210 o         1 239     -0.344000
     16 N24        -0.2950    0.0230   -2.0400 n         1 239     -0.321000
     17 C25         0.4700    0.0800   -3.2370 c2        1 239      0.079000
     18 C30         1.0540   -1.0720   -3.7420 c2        1 239     -0.154000
     19 C29         1.7760   -1.0220   -4.9260 c1        1 239     -0.104000
     20 C28         1.9140    0.1800   -5.6040 c1        1 239     -0.109000
     21 C27         1.3310    1.3320   -5.0980 c1        1 239     -0.084000
     22 C26         0.6090    1.2820   -3.9150 c1        1 239     -0.185000
     23 C37         2.7430    0.2430   -6.8700 c3        1 239     -0.036000
     24 N38         4.1290    0.2420   -6.5320 n3        1 239     -0.345000
     25 H18        -3.3410    1.1420    7.9230 DU        1 239      0.140000
     26 H191       -2.1440   -1.9700    7.2370 hn        1 239      0.198000
     27 H192       -3.2120   -1.2200    8.1330 hn        1 239      0.198000
     28 H13        -3.3560   -0.1530    4.2720 ha        1 239      0.155000
     29 H4         -3.4630   -0.1450    1.8350 ha        1 239      0.142000
     30 H5         -2.3740   -0.0610   -0.2630 ha        1 239      0.139000
     31 H1          1.2610    0.0640    1.6270 ha        1 239      0.156000
     32 H10         1.3680    0.0540    4.0640 ha        1 239      0.141000
     33 H11         0.2760    0.0350    6.1620 ha        1 239      0.133000
     34 H24        -1.2050   -0.0420   -2.0820 hn        1 239      0.234000
     35 H30         0.9560   -1.9170   -3.2660 ha        1 239      0.173000
     36 H29         2.1860   -1.8330   -5.2810 ha        1 239      0.131000
     37 H27         1.4280    2.1780   -5.5750 ha        1 239      0.137000
     38 H26         0.1990    2.0930   -3.5590 ha        1 239      0.130000
     39 H371        2.5270    1.0640   -7.3600 h1        1 239      0.072000
     40 H372        2.5420   -0.5350   -7.4310 h1        1 239      0.072000
     41 H381        4.5070   -0.5490   -6.7970 hn        1 239      0.145500
     42 H382        4.5470    0.9380   -6.9560 hn        1 239      0.145500
@<TRIPOS>BOND
     1    1    2 1   
     2    2    4 1   
     3    3   26 1   
     4    3   27 1   
     5    4    5 1   
     6    4   13 1   
     7    5   28 1   
     8    6    7 1   
     9    6   11 1   
    10    7    8 1   
    11    7   29 1   
    12    8   30 1   
    13    9   10 1   
    14    9   14 1   
    15   10   31 1   
    16   11   12 1   
    17   12   13 1   
    18   12   32 1   
    19   13   33 1   
    20   14   15 1   
    21   14   16 1   
    22   16   17 1   
    23   16   34 1   
    24   17   18 1   
    25   17   22 1   
    26   18   19 1   
    27   18   35 1   
    28   19   36 1   
    29   20   21 1   
    30   20   23 1   
    31   21   37 1   
    32   22   38 1   
    33   23   24 1   
    34   23   39 1   
    35   23   40 1   
    36   24   41 1   
    37   24   42 1   
@<TRIPOS>SUBSTRUCTURE
     1 239         1 TEMP              0 ****  ****    0 ROOT
