@<TRIPOS>MOLECULE
239
   42    44     1     0     0
SMALL
bcc


@<TRIPOS>ATOM
      1 N18        -0.8930    0.7950   -7.3990 n2        1 239     -0.824100
      2 C17        -0.2110   -0.1580   -6.8380 ce        1 239      0.649800
      3 N19         0.3390   -1.3000   -7.4620 nh        1 239     -0.959800
      4 C12         0.1140   -0.0350   -5.3800 ca        1 239     -0.130900
      5 C13        -0.8770    0.2680   -4.4730 ca        1 239     -0.078000
      6 C3         -0.5710    0.3800   -3.0890 ca        1 239     -0.031000
      7 C4         -1.5720    0.6960   -2.1300 ca        1 239     -0.113000
      8 C5         -1.2600    0.7900   -0.7960 ca        1 239     -0.116000
      9 C6          0.0730    0.5740   -0.3600 ca        1 239     -0.145600
     10 C1          1.0670    0.2880   -1.2710 ca        1 239     -0.057000
     11 C2          0.7640    0.1800   -2.6550 ca        1 239     -0.041000
     12 C10         1.7690   -0.1150   -3.6160 ca        1 239     -0.115000
     13 C11         1.4540   -0.2200   -4.9480 ca        1 239     -0.112000
     14 C23         0.4400    0.6850    1.0850 c         1 239      0.679700
     15 O35         1.4930    1.2480    1.4370 o         1 239     -0.581100
     16 N24        -0.4510    0.1070    1.9800 n         1 239     -0.468100
     17 C25        -0.3430    0.0570    3.3790 ca        1 239      0.071600
     18 C30        -1.2670   -0.7460    4.0940 ca        1 239     -0.173000
     19 C29        -1.2100   -0.8190    5.4800 ca        1 239     -0.092000
     20 C28        -0.2470   -0.1040    6.1960 ca        1 239     -0.123300
     21 C27         0.6650    0.6900    5.4960 ca        1 239     -0.092000
     22 C26         0.6270    0.7760    4.1080 ca        1 239     -0.173000
     23 C37        -0.2230   -0.1660    7.6940 c3        1 239      0.209100
     24 N38         1.0920   -0.3870    8.2520 n3        1 239     -0.916800
     25 H18        -1.0940    0.6880   -8.3710 hn        1 239      0.384400
     26 H191       -0.0820   -1.5910   -8.3130 hn        1 239      0.400300
     27 H192        0.5910   -2.0420   -6.8520 hn        1 239      0.400300
     28 H13        -1.9140    0.4400   -4.8030 ha        1 239      0.152000
     29 H4         -2.6010    0.8710   -2.4800 ha        1 239      0.141000
     30 H5         -2.0380    1.0580   -0.0660 ha        1 239      0.139000
     31 H1          2.1080    0.1510   -0.9340 ha        1 239      0.157000
     32 H10         2.8060   -0.2500   -3.2710 ha        1 239      0.141000
     33 H11         2.2380   -0.4310   -5.6910 ha        1 239      0.148000
     34 H24        -1.2290   -0.3800    1.5910 hn        1 239      0.318500
     35 H30        -2.0390   -1.3210    3.5600 ha        1 239      0.150000
     36 H29        -1.9380   -1.4500    6.0140 ha        1 239      0.141000
     37 H27         1.4290    1.2620    6.0500 ha        1 239      0.141000
     38 H26         1.3650    1.4100    3.5890 ha        1 239      0.150000
     39 H371       -0.5890    0.8250    8.0950 h1        1 239      0.032200
     40 H372       -0.9680   -0.9500    8.0320 h1        1 239      0.032200
     41 H381        1.0180   -0.6680    9.2090 hn        1 239      0.351800
     42 H382        1.5920   -1.0860    7.7400 hn        1 239      0.351800
@<TRIPOS>BOND
     1    1    2 2   
     2    1   25 1   
     3    2    3 1   
     4    2    4 1   
     5    3   26 1   
     6    3   27 1   
     7    4    5 ar  
     8    4   13 ar  
     9    5    6 ar  
    10    5   28 1   
    11    6    7 ar  
    12    6   11 ar  
    13    7    8 ar  
    14    7   29 1   
    15    8    9 ar  
    16    8   30 1   
    17    9   10 ar  
    18    9   14 1   
    19   10   11 ar  
    20   10   31 1   
    21   11   12 ar  
    22   12   13 ar  
    23   12   32 1   
    24   13   33 1   
    25   14   15 2   
    26   14   16 1   
    27   16   17 1   
    28   16   34 1   
    29   17   18 ar  
    30   17   22 ar  
    31   18   19 ar  
    32   18   35 1   
    33   19   20 ar  
    34   19   36 1   
    35   20   21 ar  
    36   20   23 1   
    37   21   22 ar  
    38   21   37 1   
    39   22   38 1   
    40   23   24 1   
    41   23   39 1   
    42   23   40 1   
    43   24   41 1   
    44   24   42 1   
@<TRIPOS>SUBSTRUCTURE
     1 239         1 TEMP              0 ****  ****    0 ROOT
