@<TRIPOS>MOLECULE
239
   44    46     1     0     0
SMALL
bcc


@<TRIPOS>ATOM
      1 N18         0.0950    1.1780    0.1140 n2        1 239     -0.669100
      2 C17         1.0920    0.4080    0.0020 ce        1 239      0.626800
      3 N19         1.6230   -0.5220    1.1000 nz        1 239     -0.888600
      4 C12         1.9120    0.2710   -1.2270 ca        1 239     -0.203900
      5 C13         1.3080   -0.0920   -2.4120 ca        1 239     -0.029000
      6 C3          2.0820   -0.1890   -3.6010 ca        1 239     -0.034000
      7 C4          1.4950   -0.5720   -4.8370 ca        1 239     -0.101000
      8 C5          2.2580   -0.6550   -5.9780 ca        1 239     -0.097000
      9 C6          3.6440   -0.3590   -5.9290 ca        1 239     -0.125600
     10 C1          4.2430    0.0050   -4.7400 ca        1 239     -0.054000
     11 C2          3.4700    0.1030   -3.5520 ca        1 239     -0.024000
     12 C10         4.0580    0.4930   -2.3150 ca        1 239     -0.071000
     13 C11         3.2990    0.5780   -1.1750 ca        1 239     -0.139000
     14 C23         4.5090   -0.4910   -7.1420 c         1 239      0.682700
     15 O35         5.6480   -0.9780   -7.0660 o         1 239     -0.549100
     16 N24         3.9690   -0.0200   -8.3410 ns        1 239     -0.467100
     17 C25         4.5470   -0.0960   -9.6090 ca        1 239      0.133600
     18 C30         3.9130    0.5830  -10.6850 ca        1 239     -0.172500
     19 C29         4.4320    0.5140  -11.9680 ca        1 239     -0.059000
     20 C28         5.5930   -0.2240  -12.2290 ca        1 239     -0.240300
     21 C27         6.2270   -0.8950  -11.1760 ca        1 239     -0.059000
     22 C26         5.7230   -0.8350   -9.8840 ca        1 239     -0.172500
     23 C37         6.1080   -0.3520  -13.6150 c3        1 239      0.183100
     24 N38         7.1840    0.6620  -13.8930 nz        1 239     -0.846600
     25 H18        -0.4650    1.2670    0.9340 hn        1 239      0.470400
     26 H191        2.6370   -0.3910    1.1800 hn        1 239      0.460800
     27 H192        1.4430   -1.4920    0.8230 hn        1 239      0.460800
     28 H13         0.2260   -0.3020   -2.4650 ha        1 239      0.162000
     29 H4          0.4180   -0.8040   -4.8670 ha        1 239      0.158000
     30 H5          1.7950   -0.9760   -6.9250 ha        1 239      0.155000
     31 H1          5.3270    0.2100   -4.6990 ha        1 239      0.172000
     32 H10         5.1340    0.7340   -2.2920 ha        1 239      0.166000
     33 H11         3.7570    0.9230   -0.2360 ha        1 239      0.139000
     34 H24         3.0890    0.4490   -8.2890 hn        1 239      0.333500
     35 H30         2.9930    1.1660  -10.5140 ha        1 239      0.175000
     36 H29         3.9090    1.0340  -12.7870 ha        1 239      0.143500
     37 H27         7.1300   -1.4990  -11.3670 ha        1 239      0.143500
     38 H26         6.2500   -1.3810   -9.0800 ha        1 239      0.175000
     39 H371        5.2870   -0.1860  -14.3720 hx        1 239      0.113200
     40 H372        6.5620   -1.3720  -13.7850 hx        1 239      0.113200
     41 H381        6.8080    1.6090  -13.7820 hn        1 239      0.457800
     42 H382        7.5400    0.5510  -14.8470 hn        1 239      0.457800
     43 H193        1.1910   -0.3480    2.0100 hn        1 239      0.460800
     44 H383        7.9540    0.5420  -13.2290 hn        1 239      0.457800
@<TRIPOS>BOND
     1    1    2 2   
     2    1   25 1   
     3    2    3 1   
     4    2    4 1   
     5    3   26 1   
     6    3   27 1   
     7    3   43 1   
     8    4    5 ar  
     9    4   13 ar  
    10    5    6 ar  
    11    5   28 1   
    12    6    7 ar  
    13    6   11 ar  
    14    7    8 ar  
    15    7   29 1   
    16    8    9 ar  
    17    8   30 1   
    18    9   10 ar  
    19    9   14 1   
    20   10   11 ar  
    21   10   31 1   
    22   11   12 ar  
    23   12   13 ar  
    24   12   32 1   
    25   13   33 1   
    26   14   15 2   
    27   14   16 1   
    28   16   17 1   
    29   16   34 1   
    30   17   18 ar  
    31   17   22 ar  
    32   18   19 ar  
    33   18   35 1   
    34   19   20 ar  
    35   19   36 1   
    36   20   21 ar  
    37   20   23 1   
    38   21   22 ar  
    39   21   37 1   
    40   22   38 1   
    41   23   24 1   
    42   23   39 1   
    43   23   40 1   
    44   24   41 1   
    45   24   42 1   
    46   24   44 1   
@<TRIPOS>SUBSTRUCTURE
     1 239         1 TEMP              0 ****  ****    0 ROOT
