@<TRIPOS>MOLECULE
23A
   16    16     1     0     0
SMALL
bcc


@<TRIPOS>ATOM
      1 C7         -0.4170    0.1710    2.6120 c         1 23A      0.589500
      2 O8         -0.5820    0.2420    3.8360 o         1 23A     -0.560100
      3 C1          0.7440   -0.4560    1.9730 ca        1 23A     -0.248600
      4 C6          0.8030   -0.4660    0.5660 ca        1 23A     -0.091000
      5 C5          1.8730   -1.0430   -0.1010 ca        1 23A     -0.145000
      6 C2          1.7920   -1.0440    2.6970 ca        1 23A      0.129100
      7 O2          1.8780   -1.1130    4.0620 oh        1 23A     -0.522100
      8 C3          2.8860   -1.6340    2.0070 ca        1 23A      0.088100
      9 C4          2.9220   -1.6310    0.6130 ca        1 23A     -0.103000
     10 O3          3.9380   -2.2230    2.6660 oh        1 23A     -0.493100
     11 H7         -1.1700    0.5960    1.9090 h4        1 23A      0.010200
     12 H6         -0.0170   -0.0060   -0.0070 ha        1 23A      0.136000
     13 H5          1.9030   -1.0420   -1.2000 ha        1 23A      0.142000
     14 HO2         1.0990   -0.6920    4.4650 ho        1 23A      0.469000
     15 H4          3.7750   -2.0920    0.0930 ha        1 23A      0.157000
     16 HO3         3.7790   -2.1510    3.6200 ho        1 23A      0.441000
@<TRIPOS>BOND
     1    1    2 2   
     2    1    3 1   
     3    1   11 1   
     4    3    4 ar  
     5    3    6 ar  
     6    4    5 ar  
     7    4   12 1   
     8    5    9 ar  
     9    5   13 1   
    10    6    7 1   
    11    6    8 ar  
    12    7   14 1   
    13    8    9 ar  
    14    8   10 1   
    15    9   15 1   
    16   10   16 1   
@<TRIPOS>SUBSTRUCTURE
     1 23A         1 TEMP              0 ****  ****    0 ROOT
