@<TRIPOS>MOLECULE
23A
   16    13     1     0     0
SMALL
bcc


@<TRIPOS>ATOM
      1 C7          0.8880   -0.0080   -2.3300 c1        1 23A      0.226000
      2 O8          2.1050   -0.0080   -2.3300 o         1 23A     -0.263000
      3 C1          0.1320   -0.0080   -1.0200 c1        1 23A     -0.184000
      4 C6         -1.2540   -0.0080   -1.0200 c2        1 23A     -0.088000
      5 C5         -1.9470   -0.0080    0.1800 c1        1 23A     -0.148000
      6 C2          0.8250   -0.0080    0.1800 c1        1 23A      0.132000
      7 O2          2.2320    0.0250    0.1800 o         1 23A     -0.212000
      8 C3          0.1320   -0.0080    1.3810 c2        1 23A     -0.024000
      9 C4         -1.2540   -0.0080    1.3800 c1        1 23A     -0.142000
     10 O3          0.8350    0.0090    2.5990 oh        1 23A     -0.270000
     11 H7          0.4000   -0.0080   -3.1760 ha        1 23A      0.085000
     12 H6         -1.7420   -0.0080   -1.8660 ha        1 23A      0.138000
     13 H5         -2.9240   -0.0080    0.1800 ha        1 23A      0.141000
     14 HO2         2.5460   -0.7530    0.4710 ho        1 23A      0.238000
     15 H4         -1.7430   -0.0080    2.2260 ha        1 23A      0.139000
     16 HO3         0.7710    0.8150    2.9670 ho        1 23A      0.231000
@<TRIPOS>BOND
     1    1    2 1   
     2    1   11 1   
     3    3    4 1   
     4    3    6 1   
     5    4    5 1   
     6    4   12 1   
     7    5   13 1   
     8    6    8 1   
     9    7   14 1   
    10    8    9 1   
    11    8   10 1   
    12    9   15 1   
    13   10   16 1   
@<TRIPOS>SUBSTRUCTURE
     1 23A         1 TEMP              0 ****  ****    0 ROOT
