@<TRIPOS>MOLECULE
23A
   16    16     1     0     0
SMALL
bcc


@<TRIPOS>ATOM
      1 C7         -0.0310    0.1080   -0.1140 c         1 23A      0.578500
      2 O8          1.1940    0.1750   -0.2160 o         1 23A     -0.502100
      3 C1         -0.7710    0.0380    1.1550 ca        1 23A     -0.204600
      4 C6         -2.1740   -0.0350    1.1180 ca        1 23A     -0.088000
      5 C5         -2.9240   -0.1030    2.2840 ca        1 23A     -0.148000
      6 C2         -0.1260    0.0410    2.4040 ca        1 23A      0.177100
      7 O2          1.2380    0.1130    2.4330 oh        1 23A     -0.458100
      8 C3         -0.9020   -0.0290    3.5900 ca        1 23A      0.021100
      9 C4         -2.2910   -0.1000    3.5300 ca        1 23A     -0.142000
     10 O3         -0.1860   -0.0200    4.7710 oh        1 23A     -0.516100
     11 H7         -0.6840    0.0960   -1.0190 h4        1 23A     -0.007800
     12 H6         -2.6820   -0.0380    0.1410 ha        1 23A      0.138000
     13 H5         -4.0210   -0.1600    2.2330 ha        1 23A      0.141000
     14 HO2         1.5260    0.1050    3.3610 ho        1 23A      0.439000
     15 H4         -2.8830   -0.1540    4.4550 ha        1 23A      0.139000
     16 HO3        -0.8190   -0.0710    5.5010 ho        1 23A      0.432000
@<TRIPOS>BOND
     1    1    2 2   
     2    1    3 1   
     3    1   11 1   
     4    3    4 ar  
     5    3    6 ar  
     6    4    5 ar  
     7    4   12 1   
     8    5    9 ar  
     9    5   13 1   
    10    6    7 1   
    11    6    8 ar  
    12    7   14 1   
    13    8    9 ar  
    14    8   10 1   
    15    9   15 1   
    16   10   16 1   
@<TRIPOS>SUBSTRUCTURE
     1 23A         1 TEMP              0 ****  ****    0 ROOT
