@<TRIPOS>MOLECULE
23B
   18    16     1     0     0
SMALL
bcc


@<TRIPOS>ATOM
      1 C1          1.7620    0.0300   -0.5550 c1        1 23B      0.316000
      2 O1          2.3720    1.1270   -0.4550 os        1 23B     -0.569000
      3 C2          0.2500   -0.0010   -0.5270 c3        1 23B     -0.029000
      4 O2          2.4120   -1.0410   -0.6790 o         1 23B     -0.565000
      5 C3         -0.2290    0.1130    0.9030 c3        1 23B      0.061000
      6 O3         -0.2050   -1.2120   -1.0790 oh        1 23B     -0.359000
      7 C4         -1.2880   -0.9350    1.1640 c3        1 23B     -0.200000
      8 O4          0.8540   -0.0870    1.7780 oh        1 23B     -0.365000
      9 C5         -0.2930    1.1570   -1.3340 c3        1 23B     -0.206000
     10 H3         -0.6080    1.0020    1.0500 h1        1 23B      0.061000
     11 HO3         0.0400   -1.2580   -1.9330 ho        1 23B      0.223000
     12 H4         -1.6810   -0.7880    2.0490 hc        1 23B      0.068000
     13 H4A        -1.9880   -0.8690    0.4810 hc        1 23B      0.068000
     14 H4B        -0.8810   -1.8260    1.1300 hc        1 23B      0.068000
     15 HO4         0.7140    0.3630    2.5320 ho        1 23B      0.235000
     16 H5         -1.2670    1.0740   -1.4100 hc        1 23B      0.064333
     17 H5A         0.1070    1.1480   -2.2290 hc        1 23B      0.064333
     18 H5B        -0.0710    2.0010   -0.8860 hc        1 23B      0.064333
@<TRIPOS>BOND
     1    1    3 1   
     2    1    4 1   
     3    3    5 1   
     4    3    6 1   
     5    3    9 1   
     6    5    7 1   
     7    5    8 1   
     8    5   10 1   
     9    6   11 1   
    10    7   12 1   
    11    7   13 1   
    12    7   14 1   
    13    8   15 1   
    14    9   16 1   
    15    9   17 1   
    16    9   18 1   
@<TRIPOS>SUBSTRUCTURE
     1 23B         1 TEMP              0 ****  ****    0 ROOT
