@<TRIPOS>MOLECULE
23B
   18    17     1     0     0
SMALL
bcc


@<TRIPOS>ATOM
      1 C1         -1.2840   -0.2850   -0.2720 c         1 23B      0.907600
      2 O1         -2.1170   -0.3300    0.6790 o         1 23B     -0.826800
      3 C2          0.0730    0.4310    0.0400 c3        1 23B     -0.013200
      4 O2         -1.4670   -0.7420   -1.4290 o         1 23B     -0.826800
      5 C3          1.2470   -0.5260   -0.2470 c3        1 23B      0.149100
      6 O3          0.1530    0.7980    1.4150 oh        1 23B     -0.651800
      7 C4          2.5660    0.2030   -0.4560 c3        1 23B     -0.114100
      8 O4          1.4210   -1.4780    0.7950 oh        1 23B     -0.622800
      9 C5          0.1480    1.6940   -0.8010 c3        1 23B     -0.077100
     10 H3          0.9860   -1.1370   -1.1580 h1        1 23B      0.083700
     11 HO3        -0.7110    0.5910    1.8110 ho        1 23B      0.432000
     12 H4          2.7470    0.9170    0.3820 hc        1 23B      0.024700
     13 H4A         3.4040   -0.5340   -0.4840 hc        1 23B      0.024700
     14 H4B         2.5460    0.7660   -1.4180 hc        1 23B      0.024700
     15 HO4         1.1750   -1.0480    1.6240 ho        1 23B      0.408000
     16 H5         -0.7720    2.3030   -0.6320 hc        1 23B      0.026033
     17 H5A         1.0350    2.3120   -0.5240 hc        1 23B      0.026033
     18 H5B         0.2030    1.4130   -1.8790 hc        1 23B      0.026033
@<TRIPOS>BOND
     1    1    2 1   
     2    1    3 1   
     3    1    4 1   
     4    3    5 1   
     5    3    6 1   
     6    3    9 1   
     7    5    7 1   
     8    5    8 1   
     9    5   10 1   
    10    6   11 1   
    11    7   12 1   
    12    7   13 1   
    13    7   14 1   
    14    8   15 1   
    15    9   16 1   
    16    9   17 1   
    17    9   18 1   
@<TRIPOS>SUBSTRUCTURE
     1 23B         1 TEMP              0 ****  ****    0 ROOT
