@<TRIPOS>MOLECULE
23B
   18    17     1     0     0
SMALL
bcc


@<TRIPOS>ATOM
      1 C1          1.4860   -0.0810    0.0870 c         1 23B      0.896600
      2 O1          2.0290   -0.7020   -0.8690 o         1 23B     -0.832300
      3 C2         -0.0680    0.0700    0.0250 c3        1 23B     -0.007200
      4 O2          2.0990    0.4050    1.0780 o         1 23B     -0.832300
      5 C3         -0.6880    0.0500    1.4380 c3        1 23B      0.172100
      6 O3         -0.6410   -0.9820   -0.7420 oh        1 23B     -0.631800
      7 C4         -2.1880   -0.1890    1.4090 c3        1 23B     -0.082100
      8 O4         -0.1400   -0.9630    2.2690 oh        1 23B     -0.637800
      9 C5         -0.3840    1.3930   -0.6640 c3        1 23B     -0.088100
     10 H3         -0.4630    1.0510    1.9100 h1        1 23B      0.021700
     11 HO3         0.0890   -1.4020   -1.2240 ho        1 23B      0.424000
     12 H4         -2.5850   -0.2520    2.4500 hc        1 23B      0.028700
     13 H4A        -2.4060   -1.1470    0.8800 hc        1 23B      0.028700
     14 H4B        -2.6910    0.6470    0.8710 hc        1 23B      0.028700
     15 HO4         0.8240   -0.8720    2.2190 ho        1 23B      0.436000
     16 H5         -1.4860    1.5470   -0.7410 hc        1 23B      0.025033
     17 H5A         0.0470    1.3810   -1.6930 hc        1 23B      0.025033
     18 H5B         0.0690    2.2340   -0.0890 hc        1 23B      0.025033
@<TRIPOS>BOND
     1    1    2 1   
     2    1    3 1   
     3    1    4 1   
     4    3    5 1   
     5    3    6 1   
     6    3    9 1   
     7    5    7 1   
     8    5    8 1   
     9    5   10 1   
    10    6   11 1   
    11    7   12 1   
    12    7   13 1   
    13    7   14 1   
    14    8   15 1   
    15    9   16 1   
    16    9   17 1   
    17    9   18 1   
@<TRIPOS>SUBSTRUCTURE
     1 23B         1 TEMP              0 ****  ****    0 ROOT
