@<TRIPOS>MOLECULE
23B
   18    17     1     0     0
SMALL
bcc


@<TRIPOS>ATOM
      1 C1          1.4790   -0.1070    0.0710 c         1 23B      0.896600
      2 O1          2.0050   -0.7350   -0.8910 o         1 23B     -0.832300
      3 C2         -0.0720    0.0660    0.0230 c3        1 23B     -0.007200
      4 O2          2.1080    0.3680    1.0570 o         1 23B     -0.832300
      5 C3         -0.6810    0.0530    1.4400 c3        1 23B      0.172100
      6 O3         -0.6680   -0.9770   -0.7420 oh        1 23B     -0.631800
      7 C4         -2.1840   -0.1650    1.4240 c3        1 23B     -0.082100
      8 O4         -0.1400   -0.9690    2.2650 oh        1 23B     -0.637800
      9 C5         -0.3750    1.3940   -0.6620 c3        1 23B     -0.088100
     10 H3         -0.4380    1.0500    1.9120 h1        1 23B      0.021700
     11 HO3         0.0520   -1.4060   -1.2300 ho        1 23B      0.424000
     12 H4         -2.6800    0.6780    0.8900 hc        1 23B      0.028700
     13 H4A        -2.5740   -0.2230    2.4680 hc        1 23B      0.028700
     14 H4B        -2.4200   -1.1200    0.8960 hc        1 23B      0.028700
     15 HO4         0.8250   -0.8920    2.2080 ho        1 23B      0.436000
     16 H5          0.0460    1.3780   -1.6950 hc        1 23B      0.025033
     17 H5A         0.0950    2.2280   -0.0900 hc        1 23B      0.025033
     18 H5B        -1.4760    1.5650   -0.7290 hc        1 23B      0.025033
@<TRIPOS>BOND
     1    1    2 1   
     2    1    3 1   
     3    1    4 1   
     4    3    5 1   
     5    3    6 1   
     6    3    9 1   
     7    5    7 1   
     8    5    8 1   
     9    5   10 1   
    10    6   11 1   
    11    7   12 1   
    12    7   13 1   
    13    7   14 1   
    14    8   15 1   
    15    9   16 1   
    16    9   17 1   
    17    9   18 1   
@<TRIPOS>SUBSTRUCTURE
     1 23B         1 TEMP              0 ****  ****    0 ROOT
