@<TRIPOS>MOLECULE
23C
   42    39     1     0     0
SMALL
bcc


@<TRIPOS>ATOM
      1 CD2         2.4790    2.0210    1.3250 c1        1 23C     -0.040000
      2 CAN         3.3980    2.2010    0.2740 c1        1 23C     -0.134750
      3 CAH         4.6740    2.6790    0.5400 c1        1 23C     -0.134750
      4 CAG         5.0460    2.9800    1.8480 c1        1 23C     -0.134750
      5 CAL         4.1400    2.8030    2.8860 c1        1 23C     -0.134750
      6 CAX         2.8460    2.3190    2.6160 c1        1 23C     -0.033000
      7 CAM         1.9120    2.1860    3.6610 c2        1 23C     -0.160000
      8 CAI         0.6210    1.7540    3.3880 c1        1 23C     -0.118000
      9 CD1         0.2490    1.4530    2.0810 c1        1 23C     -0.156000
     10 CG          1.1700    1.5840    1.0490 c2        1 23C     -0.007000
     11 CB          0.4370    1.2970   -0.2460 c3        1 23C     -0.151000
     12 CA          0.7420   -0.1160   -0.6950 c3        1 23C     -0.041000
     13 C           1.4800   -0.0770   -2.0140 c2        1 23C      0.334000
     14 OXT         1.2650    0.8600   -2.8290 o         1 23C     -0.564000
     15 O           2.2750   -1.0040   -2.3180 o         1 23C     -0.564000
     16 N          -0.4730   -0.8340   -0.8540 n         1 23C     -0.308000
     17 CAW        -1.4910   -0.5580   -1.8180 c2        1 23C      0.377000
     18 OAD        -1.5100    0.3810   -2.5880 o         1 23C     -0.333000
     19 CBA        -2.5670   -1.6300   -1.6880 c2        1 23C     -0.142000
     20 CAP        -3.7490   -1.8640   -2.4030 c2        1 23C     -0.041000
     21 CAT        -4.5350   -2.9660   -2.1010 c1        1 23C     -0.101000
     22 CAR        -5.7840   -3.2560   -2.9040 c1        1 23C      0.355000
     23 OAE        -5.7320   -4.0400   -3.8880 o         1 23C     -0.569500
     24 OAA        -6.8710   -2.6990   -2.6000 o         1 23C     -0.569500
     25 CAK        -4.1510   -3.8360   -1.0920 c2        1 23C     -0.117000
     26 CAO        -2.9820   -3.6040   -0.3840 c1        1 23C     -0.098000
     27 CAZ        -2.1880   -2.4910   -0.6880 c1        1 23C     -0.137000
     28 CAV        -0.8520   -2.0100   -0.1340 c2        1 23C      0.367000
     29 OAC        -0.2120   -2.5430    0.7500 o         1 23C     -0.350000
     30 HAN         3.1380    1.9900   -0.6430 ha        1 23C      0.139000
     31 HAH         5.3110    2.8040   -0.1890 ha        1 23C      0.139000
     32 HAG         5.9430    3.3160    2.0350 ha        1 23C      0.139000
     33 HAL         4.4010    3.0150    3.8020 ha        1 23C      0.139000
     34 HAM         2.1730    2.3970    4.5780 ha        1 23C      0.108000
     35 HAI        -0.0330    1.6820    4.1090 ha        1 23C      0.112000
     36 HD1        -0.6590    1.1490    1.8890 ha        1 23C      0.140000
     37 HB         -0.5260    1.3930   -0.1040 hc        1 23C      0.120500
     38 HBA         0.7300    1.9280   -0.9330 hc        1 23C      0.120500
     39 HA          1.2970   -0.5580   -0.0240 h1        1 23C      0.109000
     40 HAP        -4.0040   -1.2680   -3.1320 ha        1 23C      0.168000
     41 HAK        -4.7050   -4.6110   -0.8800 ha        1 23C      0.149000
     42 HAO        -2.7050   -4.2250    0.3170 ha        1 23C      0.125000
@<TRIPOS>BOND
     1    1    6 1   
     2    1   10 1   
     3    2    3 1   
     4    2   30 1   
     5    3   31 1   
     6    4    5 1   
     7    4   32 1   
     8    5   33 1   
     9    6    7 1   
    10    7    8 1   
    11    7   34 1   
    12    8   35 1   
    13    9   10 1   
    14    9   36 1   
    15   10   11 1   
    16   11   12 1   
    17   11   37 1   
    18   11   38 1   
    19   12   13 1   
    20   12   16 1   
    21   12   39 1   
    22   13   14 1   
    23   13   15 1   
    24   16   17 1   
    25   16   28 1   
    26   17   18 1   
    27   17   19 1   
    28   19   20 1   
    29   19   27 1   
    30   20   21 1   
    31   20   40 1   
    32   21   25 1   
    33   22   23 1   
    34   22   24 1   
    35   25   26 1   
    36   25   41 1   
    37   26   42 1   
    38   27   28 1   
    39   28   29 1   
@<TRIPOS>SUBSTRUCTURE
     1 23C         1 TEMP              0 ****  ****    0 ROOT
