@<TRIPOS>MOLECULE
23C
   42    45     1     0     0
SMALL
bcc


@<TRIPOS>ATOM
      1 CD2        -3.5710    0.9670    0.3730 ca        1 23C     -0.040000
      2 CAN        -4.1650    0.1590   -0.6380 ca        1 23C     -0.091000
      3 CAH        -5.2270    0.6310   -1.3720 ca        1 23C     -0.163000
      4 CAG        -5.7440    1.9270   -1.1420 ca        1 23C     -0.131000
      5 CAL        -5.1820    2.7330   -0.1830 ca        1 23C     -0.152000
      6 CAX        -4.0810    2.2740    0.5920 ca        1 23C     -0.033000
      7 CAM        -3.4830    3.1070    1.5760 ca        1 23C     -0.158000
      8 CAI        -2.4190    2.6490    2.3120 ca        1 23C     -0.118000
      9 CD1        -1.9190    1.3440    2.1120 ca        1 23C     -0.156000
     10 CG         -2.4750    0.5020    1.1690 ca        1 23C     -0.014300
     11 CB         -1.9640   -0.8870    1.0130 c3        1 23C     -0.064100
     12 CA         -1.1110   -1.0810   -0.2560 c3        1 23C     -0.015300
     13 C          -1.4580   -2.4920   -0.8590 c         1 23C      0.914600
     14 OXT        -2.6910   -2.6740   -1.0950 o         1 23C     -0.829300
     15 O          -0.5540   -3.3280   -1.0980 o         1 23C     -0.829300
     16 N           0.2910   -0.7990   -0.0440 n         1 23C     -0.480400
     17 CAW         1.0790   -0.0690   -0.9820 c         1 23C      0.730100
     18 OAD         0.6250    0.5680   -1.9400 o         1 23C     -0.610500
     19 CBA         2.5090   -0.1780   -0.5450 ca        1 23C     -0.164600
     20 CAP         3.6650    0.3820   -1.0470 ca        1 23C     -0.040000
     21 CAT         4.8850    0.1010   -0.3910 ca        1 23C     -0.124600
     22 CAR         6.1810    0.7220   -0.8940 c         1 23C      0.906200
     23 OAE         6.1280    1.4940   -1.8920 o         1 23C     -0.835300
     24 OAA         7.2510    0.4390   -0.2800 o         1 23C     -0.835300
     25 CAK         4.9050   -0.7330    0.7240 ca        1 23C     -0.115000
     26 CAO         3.7280   -1.3050    1.2390 ca        1 23C     -0.099000
     27 CAZ         2.5390   -1.0170    0.6050 ca        1 23C     -0.155600
     28 CAV         1.1290   -1.4240    0.9190 c         1 23C      0.740100
     29 OAC         0.7570   -2.0960    1.8910 o         1 23C     -0.621500
     30 HAN        -3.7460   -0.8560   -0.8380 ha        1 23C      0.220000
     31 HAH        -5.6780    0.0040   -2.1550 ha        1 23C      0.125000
     32 HAG        -6.5920    2.2810   -1.7440 ha        1 23C      0.105000
     33 HAL        -5.5660    3.7460   -0.0010 ha        1 23C      0.107000
     34 HAM        -3.8830    4.1190    1.7260 ha        1 23C      0.108000
     35 HAI        -1.9410    3.2920    3.0650 ha        1 23C      0.112000
     36 HD1        -1.0650    1.0020    2.7170 ha        1 23C      0.136000
     37 HB         -1.3800   -1.1870    1.9240 hc        1 23C      0.078200
     38 HBA        -2.8380   -1.5930    0.9370 hc        1 23C      0.078200
     39 HA         -1.4590   -0.3390   -1.0390 h1        1 23C      0.072700
     40 HAP         3.6730    1.0370   -1.9320 ha        1 23C      0.168000
     41 HAK         5.8770   -0.9360    1.2030 ha        1 23C      0.149000
     42 HAO         3.7550   -1.9600    2.1200 ha        1 23C      0.126000
@<TRIPOS>BOND
     1    1    2 ar  
     2    1    6 ar  
     3    1   10 ar  
     4    2    3 ar  
     5    2   30 1   
     6    3    4 ar  
     7    3   31 1   
     8    4    5 ar  
     9    4   32 1   
    10    5    6 ar  
    11    5   33 1   
    12    6    7 ar  
    13    7    8 ar  
    14    7   34 1   
    15    8    9 ar  
    16    8   35 1   
    17    9   10 ar  
    18    9   36 1   
    19   10   11 1   
    20   11   12 1   
    21   11   37 1   
    22   11   38 1   
    23   12   13 1   
    24   12   16 1   
    25   12   39 1   
    26   13   14 1   
    27   13   15 1   
    28   16   17 1   
    29   16   28 1   
    30   17   18 2   
    31   17   19 1   
    32   19   20 ar  
    33   19   27 ar  
    34   20   21 ar  
    35   20   40 1   
    36   21   22 1   
    37   21   25 ar  
    38   22   23 1   
    39   22   24 1   
    40   25   26 ar  
    41   25   41 1   
    42   26   27 ar  
    43   26   42 1   
    44   27   28 1   
    45   28   29 2   
@<TRIPOS>SUBSTRUCTURE
     1 23C         1 TEMP              0 ****  ****    0 ROOT
