@<TRIPOS>MOLECULE
23C
   42    45     1     0     0
SMALL
bcc


@<TRIPOS>ATOM
      1 CD2         0.1280    0.2530    0.1460 ca        1 23C     -0.040000
      2 CAN         1.4940   -0.0820   -0.0820 ca        1 23C     -0.091000
      3 CAH         2.4010   -0.0440    0.9500 ca        1 23C     -0.163000
      4 CAG         1.9950    0.3210    2.2550 ca        1 23C     -0.131000
      5 CAL         0.6830    0.6350    2.5060 ca        1 23C     -0.152000
      6 CAX        -0.2810    0.6030    1.4600 ca        1 23C     -0.033000
      7 CAM        -1.6440    0.9120    1.7130 ca        1 23C     -0.158000
      8 CAI        -2.5610    0.8730    0.6930 ca        1 23C     -0.118000
      9 CD1        -2.1580    0.5430   -0.6190 ca        1 23C     -0.156000
     10 CG         -0.8420    0.2410   -0.9080 ca        1 23C     -0.014300
     11 CB         -0.4320   -0.0520   -2.3090 c3        1 23C     -0.064100
     12 CA         -0.1570   -1.5470   -2.5590 c3        1 23C     -0.015300
     13 C           1.0910   -1.6540   -3.5120 c         1 23C      0.914600
     14 OXT         2.1270   -1.0550   -3.0920 o         1 23C     -0.829300
     15 O           1.0310   -2.3130   -4.5770 o         1 23C     -0.829300
     16 N          -1.3360   -2.2800   -2.9600 n         1 23C     -0.480400
     17 CAW        -1.6480   -3.5750   -2.4480 c         1 23C      0.730100
     18 OAD        -1.0870   -4.1050   -1.4820 o         1 23C     -0.610500
     19 CBA        -2.7940   -4.1100   -3.2520 ca        1 23C     -0.164600
     20 CAP        -3.5240   -5.2740   -3.1450 ca        1 23C     -0.040000
     21 CAT        -4.5800   -5.4910   -4.0590 ca        1 23C     -0.124600
     22 CAR        -5.4290   -6.7500   -3.9570 c         1 23C      0.906200
     23 OAE        -5.1720   -7.5740   -3.0350 o         1 23C     -0.835300
     24 OAA        -6.3600   -6.9060   -4.8000 o         1 23C     -0.835300
     25 CAK        -4.8550   -4.5490   -5.0470 ca        1 23C     -0.115000
     26 CAO        -4.1120   -3.3600   -5.1590 ca        1 23C     -0.099000
     27 CAZ        -3.0930   -3.1460   -4.2580 ca        1 23C     -0.155600
     28 CAV        -2.1580   -1.9860   -4.0810 c         1 23C      0.740100
     29 OAC        -2.1680   -0.9290   -4.7270 o         1 23C     -0.621500
     30 HAN         1.8130   -0.3910   -1.1050 ha        1 23C      0.220000
     31 HAH         3.4530   -0.3080    0.7690 ha        1 23C      0.125000
     32 HAG         2.7400    0.3410    3.0620 ha        1 23C      0.105000
     33 HAL         0.3510    0.9090    3.5170 ha        1 23C      0.107000
     34 HAM        -1.9460    1.1710    2.7370 ha        1 23C      0.108000
     35 HAI        -3.6210    1.0960    0.8840 ha        1 23C      0.112000
     36 HD1        -2.9140    0.5210   -1.4190 ha        1 23C      0.136000
     37 HB          0.5210    0.5050   -2.5360 hc        1 23C      0.078200
     38 HBA        -1.2100    0.3270   -3.0250 hc        1 23C      0.078200
     39 HA          0.1830   -2.0180   -1.5860 h1        1 23C      0.072700
     40 HAP        -3.3180   -6.0360   -2.3760 ha        1 23C      0.168000
     41 HAK        -5.6800   -4.7580   -5.7480 ha        1 23C      0.149000
     42 HAO        -4.3390   -2.6230   -5.9420 ha        1 23C      0.126000
@<TRIPOS>BOND
     1    1    2 ar  
     2    1    6 ar  
     3    1   10 ar  
     4    2    3 ar  
     5    2   30 1   
     6    3    4 ar  
     7    3   31 1   
     8    4    5 ar  
     9    4   32 1   
    10    5    6 ar  
    11    5   33 1   
    12    6    7 ar  
    13    7    8 ar  
    14    7   34 1   
    15    8    9 ar  
    16    8   35 1   
    17    9   10 ar  
    18    9   36 1   
    19   10   11 1   
    20   11   12 1   
    21   11   37 1   
    22   11   38 1   
    23   12   13 1   
    24   12   16 1   
    25   12   39 1   
    26   13   14 1   
    27   13   15 1   
    28   16   17 1   
    29   16   28 1   
    30   17   18 2   
    31   17   19 1   
    32   19   20 ar  
    33   19   27 ar  
    34   20   21 ar  
    35   20   40 1   
    36   21   22 1   
    37   21   25 ar  
    38   22   23 1   
    39   22   24 1   
    40   25   26 ar  
    41   25   41 1   
    42   26   27 ar  
    43   26   42 1   
    44   27   28 1   
    45   28   29 2   
@<TRIPOS>SUBSTRUCTURE
     1 23C         1 TEMP              0 ****  ****    0 ROOT
