@<TRIPOS>MOLECULE
23C
   42    45     1     0     0
SMALL
bcc


@<TRIPOS>ATOM
      1 CD2         0.1210    0.2650    0.1390 ca        1 23C     -0.040000
      2 CAN         1.4880   -0.0670   -0.0860 ca        1 23C     -0.091000
      3 CAH         2.3930   -0.0220    0.9470 ca        1 23C     -0.163000
      4 CAG         1.9840    0.3470    2.2490 ca        1 23C     -0.131000
      5 CAL         0.6710    0.6590    2.4970 ca        1 23C     -0.152000
      6 CAX        -0.2910    0.6210    1.4500 ca        1 23C     -0.033000
      7 CAM        -1.6550    0.9270    1.7000 ca        1 23C     -0.158000
      8 CAI        -2.5710    0.8820    0.6780 ca        1 23C     -0.118000
      9 CD1        -2.1650    0.5470   -0.6320 ca        1 23C     -0.156000
     10 CG         -0.8470    0.2470   -0.9170 ca        1 23C     -0.014300
     11 CB         -0.4350   -0.0520   -2.3160 c3        1 23C     -0.064100
     12 CA         -0.1560   -1.5480   -2.5590 c3        1 23C     -0.015300
     13 C           1.0940   -1.6570   -3.5100 c         1 23C      0.914600
     14 OXT         2.1280   -1.0530   -3.0910 o         1 23C     -0.829300
     15 O           1.0360   -2.3210   -4.5720 o         1 23C     -0.829300
     16 N          -1.3330   -2.2860   -2.9580 n         1 23C     -0.480400
     17 CAW        -1.6420   -3.5780   -2.4390 c         1 23C      0.730100
     18 OAD        -1.0810   -4.1030   -1.4700 o         1 23C     -0.610500
     19 CBA        -2.7860   -4.1200   -3.2430 ca        1 23C     -0.164600
     20 CAP        -3.5140   -5.2860   -3.1310 ca        1 23C     -0.040000
     21 CAT        -4.5680   -5.5090   -4.0450 ca        1 23C     -0.124600
     22 CAR        -5.4140   -6.7690   -3.9380 c         1 23C      0.906200
     23 OAE        -5.1570   -7.5880   -3.0110 o         1 23C     -0.835300
     24 OAA        -6.3440   -6.9320   -4.7810 o         1 23C     -0.835300
     25 CAK        -4.8440   -4.5730   -5.0380 ca        1 23C     -0.115000
     26 CAO        -4.1040   -3.3820   -5.1550 ca        1 23C     -0.099000
     27 CAZ        -3.0870   -3.1620   -4.2530 ca        1 23C     -0.155600
     28 CAV        -2.1540   -1.9980   -4.0810 c         1 23C      0.740100
     29 OAC        -2.1660   -0.9450   -4.7320 o         1 23C     -0.621500
     30 HAN         1.8100   -0.3800   -1.1070 ha        1 23C      0.220000
     31 HAH         3.4460   -0.2850    0.7690 ha        1 23C      0.125000
     32 HAG         2.7280    0.3730    3.0580 ha        1 23C      0.105000
     33 HAL         0.3370    0.9370    3.5070 ha        1 23C      0.108000
     34 HAM        -1.9600    1.1900    2.7230 ha        1 23C      0.108000
     35 HAI        -3.6310    1.1030    0.8670 ha        1 23C      0.112000
     36 HD1        -2.9190    0.5190   -1.4330 ha        1 23C      0.136000
     37 HB         -1.2120    0.3210   -3.0350 hc        1 23C      0.078200
     38 HBA         0.5170    0.5060   -2.5440 hc        1 23C      0.078200
     39 HA          0.1840   -2.0140   -1.5830 h1        1 23C      0.072700
     40 HAP        -3.3070   -6.0430   -2.3580 ha        1 23C      0.168000
     41 HAK        -5.6680   -4.7860   -5.7390 ha        1 23C      0.149000
     42 HAO        -4.3320   -2.6500   -5.9410 ha        1 23C      0.126000
@<TRIPOS>BOND
     1    1    2 ar  
     2    1    6 ar  
     3    1   10 ar  
     4    2    3 ar  
     5    2   30 1   
     6    3    4 ar  
     7    3   31 1   
     8    4    5 ar  
     9    4   32 1   
    10    5    6 ar  
    11    5   33 1   
    12    6    7 ar  
    13    7    8 ar  
    14    7   34 1   
    15    8    9 ar  
    16    8   35 1   
    17    9   10 ar  
    18    9   36 1   
    19   10   11 1   
    20   11   12 1   
    21   11   37 1   
    22   11   38 1   
    23   12   13 1   
    24   12   16 1   
    25   12   39 1   
    26   13   14 1   
    27   13   15 1   
    28   16   17 1   
    29   16   28 1   
    30   17   18 2   
    31   17   19 1   
    32   19   20 ar  
    33   19   27 ar  
    34   20   21 ar  
    35   20   40 1   
    36   21   22 1   
    37   21   25 ar  
    38   22   23 1   
    39   22   24 1   
    40   25   26 ar  
    41   25   41 1   
    42   26   27 ar  
    43   26   42 1   
    44   27   28 1   
    45   28   29 2   
@<TRIPOS>SUBSTRUCTURE
     1 23C         1 TEMP              0 ****  ****    0 ROOT
