@<TRIPOS>MOLECULE
23C
   42    45     1     0     0
SMALL
bcc


@<TRIPOS>ATOM
      1 CD2         0.1330    0.2640    0.1300 ca        1 23C     -0.040000
      2 CAN         1.4990   -0.0690   -0.1020 ca        1 23C     -0.091000
      3 CAH         2.4100   -0.0240    0.9250 ca        1 23C     -0.163000
      4 CAG         2.0090    0.3450    2.2300 ca        1 23C     -0.131000
      5 CAL         0.6980    0.6580    2.4860 ca        1 23C     -0.152000
      6 CAX        -0.2710    0.6200    1.4450 ca        1 23C     -0.033000
      7 CAM        -1.6340    0.9270    1.7020 ca        1 23C     -0.158000
      8 CAI        -2.5550    0.8810    0.6860 ca        1 23C     -0.118000
      9 CD1        -2.1570    0.5470   -0.6260 ca        1 23C     -0.156000
     10 CG         -0.8420    0.2460   -0.9190 ca        1 23C     -0.014300
     11 CB         -0.4380   -0.0520   -2.3210 c3        1 23C     -0.064100
     12 CA         -0.1610   -1.5490   -2.5660 c3        1 23C     -0.015300
     13 C           1.0830   -1.6580   -3.5240 c         1 23C      0.914600
     14 OXT         2.1200   -1.0550   -3.1110 o         1 23C     -0.829300
     15 O           1.0190   -2.3220   -4.5850 o         1 23C     -0.829300
     16 N          -1.3410   -2.2860   -2.9580 n         1 23C     -0.480400
     17 CAW        -1.6480   -3.5780   -2.4380 c         1 23C      0.730100
     18 OAD        -1.0810   -4.1030   -1.4720 o         1 23C     -0.610500
     19 CBA        -2.7960   -4.1190   -3.2350 ca        1 23C     -0.164600
     20 CAP        -3.5240   -5.2840   -3.1200 ca        1 23C     -0.040000
     21 CAT        -4.5830   -5.5070   -4.0280 ca        1 23C     -0.124600
     22 CAR        -5.4300   -6.7670   -3.9170 c         1 23C      0.906200
     23 OAE        -5.1670   -7.5870   -2.9920 o         1 23C     -0.835300
     24 OAA        -6.3640   -6.9290   -4.7540 o         1 23C     -0.835300
     25 CAK        -4.8640   -4.5700   -5.0190 ca        1 23C     -0.115000
     26 CAO        -4.1250   -3.3800   -5.1400 ca        1 23C     -0.099000
     27 CAZ        -3.1020   -3.1610   -4.2440 ca        1 23C     -0.155600
     28 CAV        -2.1680   -1.9980   -4.0770 c         1 23C      0.740100
     29 OAC        -2.1830   -0.9440   -4.7280 o         1 23C     -0.621500
     30 HAN         1.8140   -0.3820   -1.1250 ha        1 23C      0.220000
     31 HAH         3.4620   -0.2870    0.7410 ha        1 23C      0.125000
     32 HAG         2.7580    0.3710    3.0340 ha        1 23C      0.105000
     33 HAL         0.3700    0.9360    3.4970 ha        1 23C      0.107000
     34 HAM        -1.9320    1.1900    2.7270 ha        1 23C      0.108000
     35 HAI        -3.6150    1.1030    0.8810 ha        1 23C      0.112000
     36 HD1        -2.9170    0.5190   -1.4230 ha        1 23C      0.136000
     37 HB         -1.2190    0.3210   -3.0350 hc        1 23C      0.078200
     38 HBA         0.5130    0.5050   -2.5540 hc        1 23C      0.078200
     39 HA          0.1840   -2.0150   -1.5920 h1        1 23C      0.072700
     40 HAP        -3.3130   -6.0420   -2.3480 ha        1 23C      0.168000
     41 HAK        -5.6920   -4.7840   -5.7150 ha        1 23C      0.149000
     42 HAO        -4.3560   -2.6470   -5.9250 ha        1 23C      0.126000
@<TRIPOS>BOND
     1    1    2 ar  
     2    1    6 ar  
     3    1   10 ar  
     4    2    3 ar  
     5    2   30 1   
     6    3    4 ar  
     7    3   31 1   
     8    4    5 ar  
     9    4   32 1   
    10    5    6 ar  
    11    5   33 1   
    12    6    7 ar  
    13    7    8 ar  
    14    7   34 1   
    15    8    9 ar  
    16    8   35 1   
    17    9   10 ar  
    18    9   36 1   
    19   10   11 1   
    20   11   12 1   
    21   11   37 1   
    22   11   38 1   
    23   12   13 1   
    24   12   16 1   
    25   12   39 1   
    26   13   14 1   
    27   13   15 1   
    28   16   17 1   
    29   16   28 1   
    30   17   18 2   
    31   17   19 1   
    32   19   20 ar  
    33   19   27 ar  
    34   20   21 ar  
    35   20   40 1   
    36   21   22 1   
    37   21   25 ar  
    38   22   23 1   
    39   22   24 1   
    40   25   26 ar  
    41   25   41 1   
    42   26   27 ar  
    43   26   42 1   
    44   27   28 1   
    45   28   29 2   
@<TRIPOS>SUBSTRUCTURE
     1 23C         1 TEMP              0 ****  ****    0 ROOT
