@<TRIPOS>MOLECULE
23D
   52    55     1     0     0
SMALL
bcc


@<TRIPOS>ATOM
      1 CAS         0.1800   -0.3300    0.0480 ca        1 23D     -0.193000
      2 CAQ         1.5520   -0.5910    0.1050 ca        1 23D      0.001400
      3 Cl1         2.4680   -0.4530   -1.3250 cl        1 23D     -0.096400
      4 CAP         2.1770   -0.9490    1.2990 ca        1 23D     -0.132000
      5 CAO         1.4030   -1.0610    2.4560 ca        1 23D     -0.085000
      6 CAN         0.0300   -0.8480    2.4210 ca        1 23D     -0.156000
      7 CAM        -0.6060   -0.4890    1.2070 ca        1 23D      0.168600
      8 N6         -1.9900   -0.2550    1.2030 nu        1 23D     -0.740300
      9 C6         -2.8710   -0.6560    0.2120 ca        1 23D      0.791200
     10 N1         -2.4520   -1.3420   -0.8920 nb        1 23D     -0.888000
     11 C5         -4.2590   -0.3450    0.3610 ca        1 23D     -0.224200
     12 N7         -4.9870    0.3120    1.3630 nc        1 23D     -0.537100
     13 C8         -6.2570    0.3070    0.9280 cd        1 23D      0.431700
     14 N9         -6.4250   -0.3130   -0.3360 na        1 23D     -0.248000
     15 CAZ        -7.6660   -0.5330   -1.0280 c3        1 23D      0.039300
     16 CBA        -8.3820   -1.8250   -0.6630 c3        1 23D     -0.121100
     17 C4         -5.1530   -0.7590   -0.7150 ca        1 23D      0.475800
     18 N3         -4.7430   -1.4130   -1.8400 nb        1 23D     -0.733000
     19 C2         -3.3980   -1.6830   -1.8540 ca        1 23D      0.871900
     20 N2         -2.9150   -2.4760   -2.9470 nu        1 23D     -0.841900
     21 CAG        -1.6900   -2.0410   -3.5950 c3        1 23D      0.193500
     22 CAF        -1.7900   -1.9360   -5.1250 c3        1 23D     -0.096400
     23 CAE        -0.5660   -1.2390   -5.6860 c3        1 23D     -0.086400
     24 CAD         0.6650   -1.4500   -4.8270 c3        1 23D     -0.087400
     25 CAC         0.6730   -2.8190   -4.1860 c3        1 23D     -0.102400
     26 CAA        -0.5420   -3.0620   -3.2840 c3        1 23D      0.120500
     27 NAB        -0.1950   -3.0130   -1.8250 nz        1 23D     -0.832600
     28 HAS        -0.2660    0.0570   -0.8830 ha        1 23D      0.160000
     29 HAP         3.2630   -1.1260    1.3370 ha        1 23D      0.166000
     30 HAO         1.8890   -1.3230    3.4100 ha        1 23D      0.161000
     31 HAN        -0.5560   -0.9480    3.3490 ha        1 23D      0.158000
     32 HN6        -2.3950    0.1070    2.0430 hn        1 23D      0.484800
     33 H8         -7.1110    0.7450    1.4620 h5        1 23D      0.090800
     34 HAZ1       -7.4500   -0.5300   -2.1350 h1        1 23D      0.076200
     35 HAZ2       -8.3380    0.3430   -0.7940 h1        1 23D      0.076200
     36 HBA1       -8.6370   -1.8570    0.4230 hc        1 23D      0.056367
     37 HBA2       -7.7590   -2.7170   -0.9110 hc        1 23D      0.056367
     38 HBA3       -9.3300   -1.8770   -1.2540 hc        1 23D      0.056367
     39 HN2        -3.6390   -2.7170   -3.6000 hn        1 23D      0.436800
     40 HAG        -1.3690   -1.0230   -3.2150 h1        1 23D      0.084700
     41 HAF1       -1.8920   -2.9610   -5.5680 hc        1 23D      0.069700
     42 HAF2       -2.7100   -1.3570   -5.4060 hc        1 23D      0.069700
     43 HAE1       -0.3770   -1.6240   -6.7240 hc        1 23D      0.068700
     44 HAE2       -0.7610   -0.1380   -5.7760 hc        1 23D      0.068700
     45 HAD1        0.7230   -0.6590   -4.0330 hc        1 23D      0.062700
     46 HAD2        1.5850   -1.3410   -5.4620 hc        1 23D      0.062700
     47 HAC1        0.6450   -3.5990   -4.9960 hc        1 23D      0.074700
     48 HAC2        1.6370   -2.9650   -3.6290 hc        1 23D      0.074700
     49 HAA        -0.9240   -4.1130   -3.4720 hx        1 23D      0.106700
     50 HAB1        0.0180   -2.0450   -1.5420 hn        1 23D      0.462133
     51 HAB2       -0.9940   -3.3420   -1.2720 hn        1 23D      0.462133
     52 HAB3        0.6180   -3.6020   -1.6380 hn        1 23D      0.462133
@<TRIPOS>BOND
     1    1    2 ar  
     2    1    7 ar  
     3    1   28 1   
     4    2    3 1   
     5    2    4 ar  
     6    4    5 ar  
     7    4   29 1   
     8    5    6 ar  
     9    5   30 1   
    10    6    7 ar  
    11    6   31 1   
    12    7    8 1   
    13    8    9 1   
    14    8   32 1   
    15    9   10 ar  
    16    9   11 ar  
    17   10   19 ar  
    18   11   12 1   
    19   11   17 ar  
    20   12   13 2   
    21   13   14 1   
    22   13   33 1   
    23   14   15 1   
    24   14   17 1   
    25   15   16 1   
    26   15   34 1   
    27   15   35 1   
    28   16   36 1   
    29   16   37 1   
    30   16   38 1   
    31   17   18 ar  
    32   18   19 ar  
    33   19   20 1   
    34   20   21 1   
    35   20   39 1   
    36   21   22 1   
    37   21   26 1   
    38   21   40 1   
    39   22   23 1   
    40   22   41 1   
    41   22   42 1   
    42   23   24 1   
    43   23   43 1   
    44   23   44 1   
    45   24   25 1   
    46   24   45 1   
    47   24   46 1   
    48   25   26 1   
    49   25   47 1   
    50   25   48 1   
    51   26   27 1   
    52   26   49 1   
    53   27   50 1   
    54   27   51 1   
    55   27   52 1   
@<TRIPOS>SUBSTRUCTURE
     1 23D         1 TEMP              0 ****  ****    0 ROOT
