@<TRIPOS>MOLECULE
23D
   54    57     1     0     0
SMALL
bcc


@<TRIPOS>ATOM
      1 CAS         0.4400   -0.3330    2.2110 ca        1 23D     -0.118000
      2 CAQ         0.7860   -0.8110    3.4780 ca        1 23D      0.030400
      3 CL1         2.1300   -1.8130    3.6450 cl        1 23D      0.008600
      4 CAP         0.0260   -0.4550    4.6050 ca        1 23D     -0.045000
      5 CAO        -1.0840    0.3750    4.4600 ca        1 23D     -0.086000
      6 CAN        -1.4560    0.8630    3.2070 ca        1 23D     -0.090000
      7 CAM        -0.6810    0.5080    2.0900 ca        1 23D     -0.073400
      8 N6         -1.0080    1.0790    0.7710 n4        1 23D     -0.605100
      9 C6         -1.8390    0.1680   -0.0500 ca        1 23D      0.572200
     10 N1         -1.2430   -0.7180   -0.8890 nb        1 23D     -0.679000
     11 C5         -3.2450    0.2290    0.0740 ca        1 23D     -0.064200
     12 N7         -4.1090    1.0130    0.8190 nc        1 23D     -0.553100
     13 C8         -5.3540    0.5790    0.4890 cd        1 23D      0.553700
     14 N9         -5.3710   -0.4600   -0.4590 na        1 23D     -0.208000
     15 CAZ        -6.5460   -1.1610   -0.9480 c3        1 23D      0.022300
     16 CBA        -7.0060   -2.3100   -0.0690 c3        1 23D     -0.130100
     17 C4         -4.0290   -0.7350   -0.7570 ca        1 23D      0.443800
     18 N3         -3.4480   -1.6270   -1.5880 nb        1 23D     -0.604000
     19 C2         -2.0750   -1.5610   -1.5900 ca        1 23D      0.694900
     20 N2         -1.3900   -2.5880   -2.4440 n4        1 23D     -0.738700
     21 CAG        -1.0950   -2.0850   -3.8410 c3        1 23D      0.119500
     22 CAF        -2.3960   -1.7580   -4.5940 c3        1 23D     -0.104400
     23 CAE        -2.2130   -1.8150   -6.0940 c3        1 23D     -0.100400
     24 CAD        -1.8570   -3.2090   -6.5680 c3        1 23D     -0.121400
     25 CAC        -1.1540   -4.0160   -5.4970 c3        1 23D     -0.112400
     26 CAA        -0.2420   -3.1490   -4.6170 c3        1 23D      0.106500
     27 NAB         0.8260   -2.5040   -5.4550 n4        1 23D     -0.841600
     28 HAS         1.0560   -0.6030    1.3390 ha        1 23D      0.155000
     29 HAP         0.3140   -0.8270    5.6080 ha        1 23D      0.203000
     30 HAO        -1.6760    0.6600    5.3500 ha        1 23D      0.195000
     31 HAN        -2.3370    1.5220    3.1220 ha        1 23D      0.175000
     32 HN6        -1.5450    1.9540    0.9130 hn        1 23D      0.489800
     33 H8         -6.2920    1.0020    0.9110 h5        1 23D      0.145800
     34 HAZ1       -6.3100   -1.5400   -1.9830 h1        1 23D      0.100200
     35 HAZ2       -7.3710   -0.3910   -1.0280 h1        1 23D      0.100200
     36 HBA1       -7.9260   -2.7490   -0.5360 hc        1 23D      0.078700
     37 HBA2       -7.2710   -1.9650    0.9600 hc        1 23D      0.078700
     38 HBA3       -6.2320   -3.1100    0.0060 hc        1 23D      0.078700
     39 HN2        -0.5150   -2.8660   -1.9750 hn        1 23D      0.485300
     40 HAG        -0.5030   -1.1290   -3.7030 hx        1 23D      0.114700
     41 HAF1       -2.7340   -0.7290   -4.2960 hc        1 23D      0.098200
     42 HAF2       -3.2160   -2.4770   -4.3140 hc        1 23D      0.098200
     43 HAE1       -1.4500   -1.0610   -6.4230 hc        1 23D      0.086700
     44 HAE2       -3.1810   -1.4960   -6.5790 hc        1 23D      0.086700
     45 HAD1       -1.2310   -3.1480   -7.4990 hc        1 23D      0.103700
     46 HAD2       -2.7920   -3.7630   -6.8690 hc        1 23D      0.103700
     47 HAC1       -1.9080   -4.5000   -4.8170 hc        1 23D      0.105200
     48 HAC2       -0.5650   -4.8530   -5.9660 hc        1 23D      0.105200
     49 HAA         0.3140   -3.8260   -3.8950 hx        1 23D      0.113700
     50 HAB1        0.3970   -1.9170   -6.1860 hn        1 23D      0.482467
     51 HAB2        1.4580   -1.9320   -4.8860 hn        1 23D      0.482467
     52 H62        -0.1270    1.3000    0.2820 hn        1 23D      0.489800
     53 H22        -2.0100   -3.4150   -2.5080 hn        1 23D      0.485300
     54 HAB3        1.3730   -3.2450   -5.9210 hn        1 23D      0.482467
@<TRIPOS>BOND
     1    1    2 ar  
     2    1    7 ar  
     3    1   28 1   
     4    2    3 1   
     5    2    4 ar  
     6    4    5 ar  
     7    4   29 1   
     8    5    6 ar  
     9    5   30 1   
    10    6    7 ar  
    11    6   31 1   
    12    7    8 1   
    13    8    9 1   
    14    8   32 1   
    15    8   52 1   
    16    9   10 ar  
    17    9   11 ar  
    18   10   19 ar  
    19   11   12 1   
    20   11   17 ar  
    21   12   13 2   
    22   13   14 1   
    23   13   33 1   
    24   14   15 1   
    25   14   17 1   
    26   15   16 1   
    27   15   34 1   
    28   15   35 1   
    29   16   36 1   
    30   16   37 1   
    31   16   38 1   
    32   17   18 ar  
    33   18   19 ar  
    34   19   20 1   
    35   20   21 1   
    36   20   39 1   
    37   20   53 1   
    38   21   22 1   
    39   21   26 1   
    40   21   40 1   
    41   22   23 1   
    42   22   41 1   
    43   22   42 1   
    44   23   24 1   
    45   23   43 1   
    46   23   44 1   
    47   24   25 1   
    48   24   45 1   
    49   24   46 1   
    50   25   26 1   
    51   25   47 1   
    52   25   48 1   
    53   26   27 1   
    54   26   49 1   
    55   27   50 1   
    56   27   51 1   
    57   27   54 1   
@<TRIPOS>SUBSTRUCTURE
     1 23D         1 TEMP              0 ****  ****    0 ROOT
