@<TRIPOS>MOLECULE
23D
   51    54     1     0     0
SMALL
bcc


@<TRIPOS>ATOM
      1 CAS        16.4600   31.8080    5.5540 ca        1 23D     -0.120000
      2 CAQ        17.0090   32.7630    4.6950 ca        1 23D      0.032400
      3 CL1        17.3810   32.3180    3.0940 cl        1 23D     -0.097400
      4 CAP        17.2490   34.0730    5.1140 ca        1 23D     -0.142000
      5 CAO        16.9300   34.4290    6.4230 ca        1 23D     -0.103000
      6 CAN        16.3890   33.4990    7.3030 ca        1 23D     -0.171000
      7 CAM        16.1460   32.1700    6.8800 ca        1 23D      0.157600
      8 N6         15.5220   31.2770    7.7720 nh        1 23D     -0.727300
      9 C6         15.9270   29.9670    8.0130 ca        1 23D      0.777200
     10 N1         16.8360   29.3350    7.2240 nb        1 23D     -0.807000
     11 C5         15.3210   29.2630    9.1040 ca        1 23D     -0.257200
     12 N7         14.3850   29.6300   10.0840 nc        1 23D     -0.539100
     13 C8         14.1960   28.5240   10.8150 cd        1 23D      0.398700
     14 N9         14.9430   27.4050   10.3620 na        1 23D     -0.271000
     15 CAZ        15.0500   26.1300   11.0070 c3        1 23D      0.049300
     16 CBA        16.1130   26.0380   12.0910 c3        1 23D     -0.121100
     17 C4         15.7030   27.8670    9.2740 ca        1 23D      0.490800
     18 N3         16.5920   27.2080    8.4880 nb        1 23D     -0.785000
     19 C2         17.1460   28.0050    7.4970 ca        1 23D      0.911900
     20 N2         18.1870   27.4050    6.7540 nh        1 23D     -0.817900
     21 CAG        18.5310   27.8990    5.4300 c3        1 23D      0.198500
     22 CAF        17.4630   27.6380    4.3580 c3        1 23D     -0.101400
     23 CAE        17.7800   28.4220    3.1010 c3        1 23D     -0.076400
     24 CAD        19.2740   28.5230    2.8620 c3        1 23D     -0.078400
     25 CAC        20.0020   27.3290    3.4350 c3        1 23D     -0.069400
     26 CAA        19.8820   27.2490    4.9680 c3        1 23D      0.182500
     27 NAB        21.0100   27.8760    5.6330 n3        1 23D     -0.919800
     28 HAS        16.2810   30.7850    5.1860 ha        1 23D      0.169000
     29 HAP        17.6820   34.8120    4.4250 ha        1 23D      0.148000
     30 HAO        17.1140   35.4590    6.7670 ha        1 23D      0.138000
     31 HAN        16.1490   33.8090    8.3320 ha        1 23D      0.137000
     32 HN6        15.0220   31.7050    8.5250 hn        1 23D      0.457800
     33 H8         13.5210   28.4390   11.6740 h5        1 23D      0.071800
     34 HAZ1       15.2710   25.3590   10.2120 h1        1 23D      0.065700
     35 HAZ2       14.0420   25.8950   11.4580 h1        1 23D      0.065700
     36 HBA1       15.9190   26.7670   12.9140 hc        1 23D      0.049367
     37 HBA2       16.0980   25.0060   12.5160 hc        1 23D      0.049367
     38 HBA3       17.1300   26.2370   11.6730 hc        1 23D      0.049367
     39 HN2        18.1970   26.4050    6.8200 hn        1 23D      0.414800
     40 HAG        18.6830   29.0180    5.5020 h1        1 23D      0.108700
     41 HAF1       16.4540   27.9430    4.7410 hc        1 23D      0.044700
     42 HAF2       17.4200   26.5420    4.1280 hc        1 23D      0.044700
     43 HAE1       17.3500   29.4560    3.1830 hc        1 23D      0.043700
     44 HAE2       17.2840   27.9240    2.2280 hc        1 23D      0.043700
     45 HAD1       19.6730   29.4590    3.3350 hc        1 23D      0.049700
     46 HAD2       19.4760   28.5930    1.7620 hc        1 23D      0.049700
     47 HAC1       21.0800   27.3680    3.1290 hc        1 23D      0.043200
     48 HAC2       19.5680   26.3880    3.0030 hc        1 23D      0.043200
     49 HAA        19.8350   26.1390    5.2160 h1        1 23D      0.001700
     50 HAB1       20.8380   27.9800    6.6130 hn        1 23D      0.357800
     51 HAB2       21.8400   27.3370    5.4890 hn        1 23D      0.357800
@<TRIPOS>BOND
     1    1    2 ar  
     2    1    7 ar  
     3    1   28 1   
     4    2    3 1   
     5    2    4 ar  
     6    4    5 ar  
     7    4   29 1   
     8    5    6 ar  
     9    5   30 1   
    10    6    7 ar  
    11    6   31 1   
    12    7    8 1   
    13    8    9 1   
    14    8   32 1   
    15    9   10 ar  
    16    9   11 ar  
    17   10   19 ar  
    18   11   12 1   
    19   11   17 ar  
    20   12   13 2   
    21   13   14 1   
    22   13   33 1   
    23   14   15 1   
    24   14   17 1   
    25   15   16 1   
    26   15   34 1   
    27   15   35 1   
    28   16   36 1   
    29   16   37 1   
    30   16   38 1   
    31   17   18 ar  
    32   18   19 ar  
    33   19   20 1   
    34   20   21 1   
    35   20   39 1   
    36   21   22 1   
    37   21   26 1   
    38   21   40 1   
    39   22   23 1   
    40   22   41 1   
    41   22   42 1   
    42   23   24 1   
    43   23   43 1   
    44   23   44 1   
    45   24   25 1   
    46   24   45 1   
    47   24   46 1   
    48   25   26 1   
    49   25   47 1   
    50   25   48 1   
    51   26   27 1   
    52   26   49 1   
    53   27   50 1   
    54   27   51 1   
@<TRIPOS>SUBSTRUCTURE
     1 23D         1 TEMP              0 ****  ****    0 ROOT
