@<TRIPOS>MOLECULE
23D
   52    55     1     0     0
SMALL
bcc


@<TRIPOS>ATOM
      1 CAS         0.1840   -0.3840    0.0800 ca        1 23D     -0.193000
      2 CAQ         1.5540   -0.6590    0.1360 ca        1 23D      0.001400
      3 CL1         2.4760   -0.4980   -1.2870 cl        1 23D     -0.096400
      4 CAP         2.1700   -1.0510    1.3230 ca        1 23D     -0.132000
      5 CAO         1.3910   -1.1820    2.4750 ca        1 23D     -0.085000
      6 CAN         0.0210   -0.9550    2.4400 ca        1 23D     -0.156000
      7 CAM        -0.6080   -0.5610    1.2330 ca        1 23D      0.168600
      8 N6         -1.9900   -0.3140    1.2290 nh        1 23D     -0.740300
      9 C6         -2.8700   -0.6840    0.2260 ca        1 23D      0.791200
     10 N1         -2.4540   -1.3490   -0.8920 nb        1 23D     -0.888000
     11 C5         -4.2560   -0.3630    0.3770 ca        1 23D     -0.224200
     12 N7         -4.9820    0.2770    1.3910 nc        1 23D     -0.537100
     13 C8         -6.2500    0.2940    0.9530 cd        1 23D      0.431700
     14 N9         -6.4190   -0.2950   -0.3260 na        1 23D     -0.248000
     15 CAZ        -7.6600   -0.4880   -1.0270 c3        1 23D      0.039300
     16 CBA        -8.3890   -1.7810   -0.6970 c3        1 23D     -0.121100
     17 C4         -5.1500   -0.7440   -0.7110 ca        1 23D      0.475800
     18 N3         -4.7420   -1.3760   -1.8500 nb        1 23D     -0.733000
     19 C2         -3.4000   -1.6580   -1.8650 ca        1 23D      0.871900
     20 N2         -2.9200   -2.4300   -2.9750 nh        1 23D     -0.841900
     21 CAG        -1.6890   -1.9920   -3.6080 c3        1 23D      0.193500
     22 CAF        -1.7830   -1.8500   -5.1350 c3        1 23D     -0.096400
     23 CAE        -0.5500   -1.1530   -5.6760 c3        1 23D     -0.086400
     24 CAD         0.6770   -1.3940   -4.8180 c3        1 23D     -0.087400
     25 CAC         0.6690   -2.7780   -4.2080 c3        1 23D     -0.102400
     26 CAA        -0.5520   -3.0310   -3.3170 c3        1 23D      0.120500
     27 NAB        -0.2090   -3.0180   -1.8560 n4        1 23D     -0.832600
     28 HAS        -0.2540    0.0290   -0.8430 ha        1 23D      0.160000
     29 HAP         3.2540   -1.2390    1.3610 ha        1 23D      0.166000
     30 HAO         1.8710   -1.4710    3.4240 ha        1 23D      0.161000
     31 HAN        -0.5710   -1.0700    3.3640 ha        1 23D      0.158000
     32 HN6        -2.3940    0.0320    2.0750 hn        1 23D      0.484800
     33 H8         -7.1020    0.7280    1.4940 h5        1 23D      0.090800
     34 HAZ1       -7.4390   -0.4590   -2.1340 h1        1 23D      0.076200
     35 HAZ2       -8.3250    0.3890   -0.7750 h1        1 23D      0.076200
     36 HBA1       -7.7720   -2.6720   -0.9630 hc        1 23D      0.056367
     37 HBA2       -9.3350   -1.8110   -1.2910 hc        1 23D      0.056367
     38 HBA3       -8.6470   -1.8380    0.3880 hc        1 23D      0.056367
     39 HN2        -3.6440   -2.6500   -3.6350 hn        1 23D      0.436800
     40 HAG        -1.3590   -0.9860   -3.2040 h1        1 23D      0.084700
     41 HAF1       -2.6960   -1.2560   -5.4060 hc        1 23D      0.069700
     42 HAF2       -1.8920   -2.8640   -5.6020 hc        1 23D      0.069700
     43 HAE1       -0.3600   -1.5150   -6.7220 hc        1 23D      0.068700
     44 HAE2       -0.7350   -0.0480   -5.7410 hc        1 23D      0.068700
     45 HAD1        1.6000   -1.2790   -5.4470 hc        1 23D      0.062700
     46 HAD2        0.7380   -0.6220   -4.0060 hc        1 23D      0.062700
     47 HAC1        1.6290   -2.9460   -3.6520 hc        1 23D      0.074700
     48 HAC2        0.6370   -3.5390   -5.0370 hc        1 23D      0.074700
     49 HAA        -0.9420   -4.0730   -3.5310 hx        1 23D      0.106700
     50 HAB1       -1.0140   -3.3530   -1.3130 hn        1 23D      0.462133
     51 HAB2        0.5970   -3.6190   -1.6790 hn        1 23D      0.462133
     52 HAB3        0.0120   -2.0590   -1.5500 hn        1 23D      0.462133
@<TRIPOS>BOND
     1    1    2 ar  
     2    1    7 ar  
     3    1   28 1   
     4    2    3 1   
     5    2    4 ar  
     6    4    5 ar  
     7    4   29 1   
     8    5    6 ar  
     9    5   30 1   
    10    6    7 ar  
    11    6   31 1   
    12    7    8 1   
    13    8    9 1   
    14    8   32 1   
    15    9   10 ar  
    16    9   11 ar  
    17   10   19 ar  
    18   11   12 1   
    19   11   17 ar  
    20   12   13 2   
    21   13   14 1   
    22   13   33 1   
    23   14   15 1   
    24   14   17 1   
    25   15   16 1   
    26   15   34 1   
    27   15   35 1   
    28   16   36 1   
    29   16   37 1   
    30   16   38 1   
    31   17   18 ar  
    32   18   19 ar  
    33   19   20 1   
    34   20   21 1   
    35   20   39 1   
    36   21   22 1   
    37   21   26 1   
    38   21   40 1   
    39   22   23 1   
    40   22   41 1   
    41   22   42 1   
    42   23   24 1   
    43   23   43 1   
    44   23   44 1   
    45   24   25 1   
    46   24   45 1   
    47   24   46 1   
    48   25   26 1   
    49   25   47 1   
    50   25   48 1   
    51   26   27 1   
    52   26   49 1   
    53   27   50 1   
    54   27   51 1   
    55   27   52 1   
@<TRIPOS>SUBSTRUCTURE
     1 23D         1 TEMP              0 ****  ****    0 ROOT
