@<TRIPOS>MOLECULE
23D
   51    46     1     0     0
SMALL
bcc


@<TRIPOS>ATOM
      1 CAS         3.3720    1.8460    3.4590 c1        1 23D     -0.144000
      2 CAQ         3.7510    1.7370    4.7900 c1        1 23D     -0.058000
      3 CL1         5.3900    1.3060    5.1920 cl        1 23D     -0.020000
      4 CAP         2.8600    2.0900    5.7970 c1        1 23D     -0.121000
      5 CAO         1.5930    2.5500    5.4720 c1        1 23D     -0.098000
      6 CAN         1.2150    2.6590    4.1420 c1        1 23D     -0.098000
      7 CAM         2.1060    2.3060    3.1350 c1        1 23D      0.040000
      8 N6          1.6860    2.3450    1.7550 n3        1 23D     -0.240000
      9 C6          0.7790    1.3310    1.2420 c2        1 23D      0.244000
     10 N1          1.0970    0.9230    0.0020 n1        1 23D     -0.305000
     11 C5         -0.3470    0.8130    1.8770 c1        1 23D     -0.247000
     12 N7         -0.9440    1.1180    3.0640 n1        1 23D     -0.098000
     13 C8         -2.0880    0.3890    3.1590 c1        1 23D     -0.066000
     14 N9         -2.2000   -0.3660    2.0380 n2        1 23D     -0.190000
     15 CAZ        -3.5230   -0.9340    1.8910 c2        1 23D     -0.009000
     16 CBA        -3.6580   -2.1700    2.8110 c3        1 23D     -0.239000
     17 C4         -1.1200   -0.1030    1.2420 c1        1 23D      0.094000
     18 N3         -0.7930   -0.5150   -0.0170 n1        1 23D     -0.255000
     19 C2          0.3130   -0.0040   -0.6400 c1        1 23D      0.202000
     20 N2          0.7210   -0.7930   -1.7780 n3        1 23D     -0.270000
     21 CAG         0.1130   -0.6740   -2.8790 c3        1 23D      0.036000
     22 CAF        -0.7880   -1.9450   -3.2010 c3        1 23D     -0.159000
     23 CAE        -1.5130   -1.8390   -4.5310 c3        1 23D     -0.156000
     24 CAD        -0.9400   -0.9170   -5.3370 c3        1 23D     -0.157000
     25 CAC         0.4000   -0.7080   -5.4640 c3        1 23D     -0.188000
     26 CAA         1.1070   -0.8240   -4.1380 c3        1 23D     -0.050000
     27 NAB         2.0780    0.1700   -4.0610 n3        1 23D     -0.345000
     28 HAS         3.9960    1.5980    2.7530 ha        1 23D      0.150000
     29 HAP         3.1240    2.0140    6.7300 ha        1 23D      0.146000
     30 HAO         0.9660    2.7990    6.1810 ha        1 23D      0.147000
     31 HAN         0.3320    2.9800    3.9150 ha        1 23D      0.147000
     32 HN6         1.9870    2.9970    1.2110 hn        1 23D      0.226000
     33 H8         -2.7400    0.4290    3.8970 DU        1 23D      0.198000
     34 HAZ1       -3.6610   -1.2040    0.9590 ha        1 23D      0.103000
     35 HAZ2       -4.1950   -0.2660    2.1410 ha        1 23D      0.103000
     36 HBA1       -4.5970   -2.2630    3.1010 hc        1 23D      0.088000
     37 HBA2       -3.0810   -2.0580    3.6000 hc        1 23D      0.088000
     38 HBA3       -3.3870   -2.9760    2.3180 hc        1 23D      0.088000
     39 HN2         1.3990   -1.3930   -1.6950 hn        1 23D      0.239000
     40 HAG        -0.4030    0.1540   -2.9250 h1        1 23D      0.101000
     41 HAF1       -0.2210   -2.7330   -3.2170 hc        1 23D      0.095000
     42 HAF2       -1.4490   -2.0480   -2.4920 hc        1 23D      0.095000
     43 HAE1       -1.4920   -2.7020   -4.9720 hc        1 23D      0.081500
     44 HAE2       -2.4440   -1.5860   -4.3670 hc        1 23D      0.081500
     45 HAD1       -1.2700   -1.1080   -6.2430 hc        1 23D      0.079500
     46 HAD2       -1.3190   -0.0620   -5.0750 hc        1 23D      0.079500
     47 HAC1        0.7690   -1.3700   -6.0810 hc        1 23D      0.083000
     48 HAC2        0.5520    0.1980   -5.8340 hc        1 23D      0.083000
     49 HAA         1.5420   -1.6910   -4.0910 h1        1 23D      0.102000
     50 HAB1        2.0220    0.7150   -4.8060 hn        1 23D      0.146500
     51 HAB2        2.9010   -0.2130   -4.0280 hn        1 23D      0.146500
@<TRIPOS>BOND
     1    1    7 1   
     2    1   28 1   
     3    2    3 1   
     4    2    4 1   
     5    4   29 1   
     6    5    6 1   
     7    5   30 1   
     8    6   31 1   
     9    7    8 1   
    10    8    9 1   
    11    8   32 1   
    12    9   10 1   
    13    9   11 1   
    14   11   17 1   
    15   12   13 1   
    16   13   14 1   
    17   14   17 1   
    18   15   16 1   
    19   15   34 1   
    20   15   35 1   
    21   16   36 1   
    22   16   37 1   
    23   16   38 1   
    24   18   19 1   
    25   19   20 1   
    26   20   21 1   
    27   20   39 1   
    28   21   22 1   
    29   21   26 1   
    30   21   40 1   
    31   22   23 1   
    32   22   41 1   
    33   22   42 1   
    34   23   24 1   
    35   23   43 1   
    36   23   44 1   
    37   24   25 1   
    38   24   45 1   
    39   24   46 1   
    40   25   26 1   
    41   25   47 1   
    42   25   48 1   
    43   26   27 1   
    44   26   49 1   
    45   27   50 1   
    46   27   51 1   
@<TRIPOS>SUBSTRUCTURE
     1 23D         1 TEMP              0 ****  ****    0 ROOT
