@<TRIPOS>MOLECULE
23E
   85    91     1     0     0
SMALL
bcc


@<TRIPOS>ATOM
      1 N1          0.9560   -0.0420   -1.7460 n4        1 23E     -0.676800
      2 C2         -0.3240   -0.0920   -0.9360 c3        1 23E      0.057200
      3 C3          0.0310    0.0700    0.5730 c         1 23E      0.648100
      4 N4          0.5710   -1.0390    1.1690 n         1 23E     -0.447100
      5 C5          1.2780   -1.0770    2.3970 ca        1 23E     -0.010400
      6 O6         -0.1550    1.1760    1.1030 o         1 23E     -0.544100
      7 C7          1.8150   -2.3180    2.8120 ca        1 23E     -0.147500
      8 C8          2.6660   -2.3750    3.9050 ca        1 23E     -0.118000
      9 C9          3.0180   -1.2110    4.6110 ca        1 23E      0.000200
     10 C10         2.3900   -0.0070    4.2610 ca        1 23E     -0.118000
     11 C11         1.5280    0.0700    3.1730 ca        1 23E     -0.147500
     12 C12         4.0620   -1.2650    5.6170 ce        1 23E     -0.184200
     13 C13         4.8940   -0.2450    5.8650 cf        1 23E     -0.161200
     14 C14         6.1000   -0.3520    6.7760 c         1 23E      0.895800
     15 O15         6.1020   -1.1980    7.7050 o         1 23E     -0.823800
     16 C16        -1.0780   -1.4120   -1.2340 c3        1 23E     -0.102400
     17 C17        -1.3270    0.9960   -1.3840 c3        1 23E     -0.102400
     18 C18        -1.9650   -1.1270   -2.4380 c3        1 23E     -0.095400
     19 C19        -2.1420    0.3850   -2.5140 c3        1 23E     -0.095400
     20 O20         7.0610    0.4350    6.5130 o         1 23E     -0.823800
     21 C21         1.7900    1.2320   -1.5730 c         1 23E      0.595700
     22 C22         2.9720    1.1220   -0.7360 ca        1 23E     -0.223600
     23 C23         3.7720   -0.0470   -0.6960 ca        1 23E     -0.133000
     24 C24         4.8920   -0.1170    0.1080 ca        1 23E     -0.074000
     25 C25         3.3050    2.2550    0.0230 ca        1 23E     -0.017000
     26 N26         4.9500    3.1010    1.7640 na        1 23E     -0.050400
     27 C27         4.4250    2.1820    0.8480 ca        1 23E     -0.075200
     28 C28         5.2490    0.9810    0.9040 ca        1 23E     -0.006800
     29 C29         6.3050    1.2340    1.8430 cc        1 23E     -0.108400
     30 C30         6.0960    2.5360    2.3530 cd        1 23E      0.087700
     31 C31         7.4240    0.3370    2.2040 c3        1 23E     -0.008500
     32 C32         6.8560    3.2530    3.3640 ca        1 23E     -0.115800
     33 C33         6.9290   -0.9140    2.9250 c3        1 23E     -0.069900
     34 C34         8.0810   -1.8300    3.2800 c3        1 23E     -0.078900
     35 C35         8.9100   -2.1870    2.0650 c3        1 23E     -0.077400
     36 C36         9.4010   -0.9440    1.3520 c3        1 23E     -0.078900
     37 C37         8.2500   -0.0340    0.9750 c3        1 23E     -0.069900
     38 O38         1.3580    2.2000   -2.1870 o         1 23E     -0.457100
     39 C39         7.2040    2.5750    4.5410 ca        1 23E     -0.063000
     40 C40         7.9560    3.2010    5.5320 ca        1 23E     -0.112000
     41 C41         8.3720    4.5180    5.3530 ca        1 23E     -0.097000
     42 C42         8.0190    5.2200    4.2040 ca        1 23E     -0.178000
     43 C43         7.2420    4.6080    3.1960 ca        1 23E      0.047600
     44 C44         4.5700    4.4710    1.9130 c3        1 23E     -0.030700
     45 N45         6.9240    5.3550    2.0420 n         1 23E     -0.456100
     46 C46         5.6690    5.4500    1.4760 c         1 23E      0.675500
     47 O47         5.4330    6.3060    0.6040 o         1 23E     -0.627500
     48 HN1         1.5270   -0.8520   -1.4880 hn        1 23E      0.447300
     49 HN4         0.4480   -1.9210    0.7250 hn        1 23E      0.313500
     50 H7          1.5800   -3.2440    2.2670 ha        1 23E      0.136500
     51 H8          3.0950   -3.3420    4.2140 ha        1 23E      0.149000
     52 H10         2.5960    0.9000    4.8510 ha        1 23E      0.149000
     53 H11         1.0620    1.0360    2.9250 ha        1 23E      0.136500
     54 H12         4.1950   -2.2240    6.1470 ha        1 23E      0.154000
     55 H13         4.7860    0.7300    5.3630 ha        1 23E      0.095000
     56 H16        -1.7140   -1.6550   -0.3420 hc        1 23E      0.089700
     57 H16A       -0.3980   -2.2800   -1.4140 hc        1 23E      0.089700
     58 H17        -1.9800    1.2380   -0.5030 hc        1 23E      0.089700
     59 H17A       -0.8280    1.9490   -1.6880 hc        1 23E      0.089700
     60 H18        -1.4930   -1.5160   -3.3760 hc        1 23E      0.064950
     61 H18A       -2.9510   -1.6430   -2.3260 hc        1 23E      0.064950
     62 H19        -3.2200    0.6680   -2.4090 hc        1 23E      0.064950
     63 H19A       -1.7950    0.7720   -3.5050 hc        1 23E      0.064950
     64 H23         3.5390   -0.9070   -1.3400 ha        1 23E      0.108000
     65 H24         5.5070   -1.0310    0.1370 ha        1 23E      0.163000
     66 H25         2.6830    3.1630   -0.0320 ha        1 23E      0.159000
     67 H31         8.1070    0.8900    2.9170 hc        1 23E      0.081700
     68 H33         6.1970   -1.4560    2.2720 hc        1 23E      0.041450
     69 H33A        6.3970   -0.6130    3.8710 hc        1 23E      0.041450
     70 H34         8.7290   -1.3270    4.0470 hc        1 23E      0.050450
     71 H34A        7.6770   -2.7640    3.7500 hc        1 23E      0.050450
     72 H35         8.2960   -2.8050    1.3580 hc        1 23E      0.033200
     73 H35A        9.7880   -2.8100    2.3790 hc        1 23E      0.033200
     74 H36        10.1110   -0.3890    2.0190 hc        1 23E      0.050450
     75 H36A        9.9630   -1.2340    0.4270 hc        1 23E      0.050450
     76 H37         8.6480    0.8990    0.4980 hc        1 23E      0.041450
     77 H37A        7.5970   -0.5470    0.2210 hc        1 23E      0.041450
     78 H39         6.8750    1.5260    4.7220 ha        1 23E      0.216000
     79 H40         8.1940    2.6230    6.4460 ha        1 23E      0.199000
     80 H41         8.9750    5.0170    6.1280 ha        1 23E      0.140000
     81 H42         8.3520    6.2630    4.0880 ha        1 23E      0.133000
     82 H44         4.3300    4.6690    3.0000 h1        1 23E      0.095700
     83 H44A        3.6550    4.6830    1.2910 h1        1 23E      0.095700
     84 HN45        7.5790    6.0670    1.7910 hn        1 23E      0.329500
     85 H121        0.6800   -0.1180   -2.7310 hn        1 23E      0.447300
@<TRIPOS>BOND
     1    1    2 1   
     2    1   21 1   
     3    1   48 1   
     4    1   85 1   
     5    2    3 1   
     6    2   16 1   
     7    2   17 1   
     8    3    4 1   
     9    3    6 2   
    10    4    5 1   
    11    4   49 1   
    12    5    7 ar  
    13    5   11 ar  
    14    7    8 ar  
    15    7   50 1   
    16    8    9 ar  
    17    8   51 1   
    18    9   10 ar  
    19    9   12 1   
    20   10   11 ar  
    21   10   52 1   
    22   11   53 1   
    23   12   13 2   
    24   12   54 1   
    25   13   14 1   
    26   13   55 1   
    27   14   15 1   
    28   14   20 1   
    29   16   18 1   
    30   16   56 1   
    31   16   57 1   
    32   17   19 1   
    33   17   58 1   
    34   17   59 1   
    35   18   19 1   
    36   18   60 1   
    37   18   61 1   
    38   19   62 1   
    39   19   63 1   
    40   21   22 1   
    41   21   38 2   
    42   22   23 ar  
    43   22   25 ar  
    44   23   24 ar  
    45   23   64 1   
    46   24   28 ar  
    47   24   65 1   
    48   25   27 ar  
    49   25   66 1   
    50   26   27 1   
    51   26   30 1   
    52   26   44 1   
    53   27   28 ar  
    54   28   29 1   
    55   29   30 2   
    56   29   31 1   
    57   30   32 1   
    58   31   33 1   
    59   31   37 1   
    60   31   67 1   
    61   32   39 ar  
    62   32   43 ar  
    63   33   34 1   
    64   33   68 1   
    65   33   69 1   
    66   34   35 1   
    67   34   70 1   
    68   34   71 1   
    69   35   36 1   
    70   35   72 1   
    71   35   73 1   
    72   36   37 1   
    73   36   74 1   
    74   36   75 1   
    75   37   76 1   
    76   37   77 1   
    77   39   40 ar  
    78   39   78 1   
    79   40   41 ar  
    80   40   79 1   
    81   41   42 ar  
    82   41   80 1   
    83   42   43 ar  
    84   42   81 1   
    85   43   45 1   
    86   44   46 1   
    87   44   82 1   
    88   44   83 1   
    89   45   46 1   
    90   45   84 1   
    91   46   47 2   
@<TRIPOS>SUBSTRUCTURE
     1 23E         1 TEMP              0 ****  ****    0 ROOT
