@<TRIPOS>MOLECULE
23E
   85    91     1     0     0
SMALL
bcc


@<TRIPOS>ATOM
      1 N1          0.9240    0.0930    1.5120 ny        1 23E     -0.673800
      2 C2          0.1420   -1.0430    0.9060 c3        1 23E      0.092200
      3 C3         -1.0500   -0.5590    0.0430 c         1 23E      0.663100
      4 N4         -2.0380    0.2490    0.5580 ns        1 23E     -0.472100
      5 C5         -2.0190    0.8120    1.8550 ca        1 23E     -0.032400
      6 O6         -1.1530   -0.9570   -1.1330 o         1 23E     -0.584100
      7 C7         -2.5040    0.0820    2.9590 ca        1 23E     -0.141000
      8 C8         -2.2190    0.5150    4.2500 ca        1 23E     -0.113500
      9 C9         -1.4520    1.6700    4.4530 ca        1 23E      0.000200
     10 C10        -1.1840    2.5130    3.3640 ca        1 23E     -0.113500
     11 C11        -1.4700    2.0960    2.0690 ca        1 23E     -0.141000
     12 C12        -0.8020    1.8980    5.7420 ce        1 23E     -0.155200
     13 C13         0.4860    1.5890    5.9300 cf        1 23E     -0.155200
     14 C14         1.3880    1.0540    4.8590 c         1 23E      0.908800
     15 O15         2.5100    1.6030    4.6650 o         1 23E     -0.872300
     16 C16        -0.3530   -1.9860    2.0340 c3        1 23E     -0.095900
     17 C17         1.0810   -1.9470    0.0640 c3        1 23E     -0.095900
     18 C18         0.7580   -3.0010    2.2560 c3        1 23E     -0.092900
     19 C19         1.6550   -2.9770    1.0250 c3        1 23E     -0.092900
     20 O20         1.0240    0.0670    4.1330 o         1 23E     -0.872300
     21 C21         1.6200    0.9630    0.5070 c         1 23E      0.585700
     22 C22         3.0870    0.9760    0.5910 ca        1 23E     -0.201600
     23 C23         3.8100    0.8070   -0.6130 ca        1 23E     -0.109000
     24 C24         5.1920    0.8090   -0.6130 ca        1 23E     -0.099000
     25 C25         3.7210    1.1760    1.8150 ca        1 23E     -0.073000
     26 N26         6.0280    1.3760    2.8660 na        1 23E     -0.040400
     27 C27         5.1220    1.2190    1.8070 ca        1 23E     -0.053200
     28 C28         5.8790    1.0140    0.5890 ca        1 23E     -0.043800
     29 C29         7.2770    1.0750    0.9490 cc        1 23E     -0.123400
     30 C30         7.3320    1.3030    2.3360 cd        1 23E      0.028700
     31 C31         8.4350    0.9600    0.0380 c3        1 23E      0.002500
     32 C32         8.5070    1.4160    3.1870 ca        1 23E     -0.078800
     33 C33         8.5040   -0.4260   -0.5980 c3        1 23E     -0.070900
     34 C34         9.6910   -0.5400   -1.5320 c3        1 23E     -0.077900
     35 C35         9.6670    0.5410   -2.5930 c3        1 23E     -0.077400
     36 C36         9.5930    1.9190   -1.9680 c3        1 23E     -0.077900
     37 C37         8.4040    2.0420   -1.0380 c3        1 23E     -0.070900
     38 O38         0.9140    1.5780   -0.2860 o         1 23E     -0.459100
     39 C39         9.5190    0.4520    3.0620 ca        1 23E     -0.082000
     40 C40        10.6860    0.5360    3.8100 ca        1 23E     -0.154000
     41 C41        10.8580    1.5930    4.7050 ca        1 23E     -0.091000
     42 C42         9.8620    2.5450    4.8670 ca        1 23E     -0.174000
     43 C43         8.6570    2.4700    4.1230 ca        1 23E      0.086600
     44 C44         5.7170    1.8910    4.1640 c3        1 23E     -0.047700
     45 N45         7.6910    3.4670    4.3090 ns        1 23E     -0.478100
     46 C46         6.3190    3.2740    4.4280 c         1 23E      0.680500
     47 O47         5.6150    4.2410    4.7590 o         1 23E     -0.594500
     48 HN1         0.3050    0.6630    2.1230 hn        1 23E      0.499300
     49 HN4        -2.7510    0.5550   -0.0690 hn        1 23E      0.340500
     50 H7         -3.0510   -0.8610    2.8070 ha        1 23E      0.146000
     51 H8         -2.5310   -0.0910    5.1140 ha        1 23E      0.151500
     52 H10        -0.6910    3.4820    3.5340 ha        1 23E      0.151500
     53 H11        -1.2130    2.7420    1.2130 ha        1 23E      0.146000
     54 H12        -1.4320    2.3120    6.5440 ha        1 23E      0.130000
     55 H13         0.9780    1.7510    6.9020 ha        1 23E      0.136000
     56 H16        -0.5760   -1.4290    2.9850 hc        1 23E      0.087450
     57 H16A       -1.2930   -2.4850    1.6880 hc        1 23E      0.087450
     58 H17         0.4710   -2.4490   -0.7330 hc        1 23E      0.087450
     59 H17A        1.8830   -1.3620   -0.4530 hc        1 23E      0.087450
     60 H18         1.3430   -2.7260    3.1720 hc        1 23E      0.062450
     61 H18A        0.3280   -4.0190    2.4210 hc        1 23E      0.062450
     62 H19         2.7030   -2.7070    1.3110 hc        1 23E      0.062450
     63 H19A        1.6930   -3.9820    0.5350 hc        1 23E      0.062450
     64 H23         3.2540    0.6750   -1.5540 ha        1 23E      0.144000
     65 H24         5.7490    0.6540   -1.5490 ha        1 23E      0.148000
     66 H25         3.1580    1.3090    2.7660 ha        1 23E      0.223000
     67 H31         9.3800    1.1110    0.6390 hc        1 23E      0.057700
     68 H33         8.5830   -1.2010    0.2080 hc        1 23E      0.043200
     69 H33A        7.5560   -0.6240   -1.1640 hc        1 23E      0.043200
     70 H34        10.6410   -0.4620   -0.9410 hc        1 23E      0.040200
     71 H34A        9.6820   -1.5490   -2.0230 hc        1 23E      0.040200
     72 H35        10.5880    0.4640   -3.2280 hc        1 23E      0.039200
     73 H35A        8.7820    0.3870   -3.2640 hc        1 23E      0.039200
     74 H36         9.5160    2.6930   -2.7740 hc        1 23E      0.040200
     75 H36A       10.5370    2.1200   -1.3960 hc        1 23E      0.040200
     76 H37         8.4100    3.0500   -0.5490 hc        1 23E      0.043200
     77 H37A        7.4540    1.9600   -1.6280 hc        1 23E      0.043200
     78 H39         9.3750   -0.3800    2.3520 ha        1 23E      0.147000
     79 H40        11.4700   -0.2270    3.6970 ha        1 23E      0.140000
     80 H41        11.7850    1.6690    5.2940 ha        1 23E      0.139000
     81 H42        10.0140    3.3670    5.5840 ha        1 23E      0.141000
     82 H44         4.5910    1.9720    4.2930 h1        1 23E      0.128200
     83 H44A        6.1150    1.1810    4.9460 h1        1 23E      0.128200
     84 HN45        8.0370    4.3580    4.6040 hn        1 23E      0.326500
     85 H121        1.6160   -0.3150    2.1840 hn        1 23E      0.499300
@<TRIPOS>BOND
     1    1    2 1   
     2    1   21 1   
     3    1   48 1   
     4    1   85 1   
     5    2    3 1   
     6    2   16 1   
     7    2   17 1   
     8    3    4 1   
     9    3    6 2   
    10    4    5 1   
    11    4   49 1   
    12    5    7 ar  
    13    5   11 ar  
    14    7    8 ar  
    15    7   50 1   
    16    8    9 ar  
    17    8   51 1   
    18    9   10 ar  
    19    9   12 1   
    20   10   11 ar  
    21   10   52 1   
    22   11   53 1   
    23   12   13 2   
    24   12   54 1   
    25   13   14 1   
    26   13   55 1   
    27   14   15 1   
    28   14   20 1   
    29   16   18 1   
    30   16   56 1   
    31   16   57 1   
    32   17   19 1   
    33   17   58 1   
    34   17   59 1   
    35   18   19 1   
    36   18   60 1   
    37   18   61 1   
    38   19   62 1   
    39   19   63 1   
    40   21   22 1   
    41   21   38 2   
    42   22   23 ar  
    43   22   25 ar  
    44   23   24 ar  
    45   23   64 1   
    46   24   28 ar  
    47   24   65 1   
    48   25   27 ar  
    49   25   66 1   
    50   26   27 1   
    51   26   30 1   
    52   26   44 1   
    53   27   28 ar  
    54   28   29 1   
    55   29   30 2   
    56   29   31 1   
    57   30   32 1   
    58   31   33 1   
    59   31   37 1   
    60   31   67 1   
    61   32   39 ar  
    62   32   43 ar  
    63   33   34 1   
    64   33   68 1   
    65   33   69 1   
    66   34   35 1   
    67   34   70 1   
    68   34   71 1   
    69   35   36 1   
    70   35   72 1   
    71   35   73 1   
    72   36   37 1   
    73   36   74 1   
    74   36   75 1   
    75   37   76 1   
    76   37   77 1   
    77   39   40 ar  
    78   39   78 1   
    79   40   41 ar  
    80   40   79 1   
    81   41   42 ar  
    82   41   80 1   
    83   42   43 ar  
    84   42   81 1   
    85   43   45 1   
    86   44   46 1   
    87   44   82 1   
    88   44   83 1   
    89   45   46 1   
    90   45   84 1   
    91   46   47 2   
@<TRIPOS>SUBSTRUCTURE
     1 23E         1 TEMP              0 ****  ****    0 ROOT
