@<TRIPOS>MOLECULE
23E
   84    90     1     0     0
SMALL
bcc


@<TRIPOS>ATOM
      1 N1         -1.4740    3.3710    0.1930 n         1 23E     -0.562900
      2 C2         -2.8420    3.7900    0.4300 c3        1 23E      0.057400
      3 C3         -3.7830    2.5610    0.6620 c         1 23E      0.643100
      4 N4         -3.7690    1.6150   -0.3430 n         1 23E     -0.462100
      5 C5         -4.4920    0.4040   -0.4000 ca        1 23E      0.016600
      6 O6         -4.4940    2.4860    1.6770 o         1 23E     -0.578100
      7 C7         -4.5090   -0.3070   -1.6240 ca        1 23E     -0.161000
      8 C8         -5.1770   -1.5170   -1.7240 ca        1 23E     -0.123500
      9 C9         -5.8540   -2.0740   -0.6230 ca        1 23E     -0.013800
     10 C10        -5.8410   -1.3580    0.5820 ca        1 23E     -0.123500
     11 C11        -5.1750   -0.1420    0.7030 ca        1 23E     -0.161000
     12 C12        -6.5270   -3.3480   -0.7780 ce        1 23E     -0.188200
     13 C13        -7.0850   -4.0750    0.1990 cf        1 23E     -0.154200
     14 C14        -7.7600   -5.4070   -0.0600 c         1 23E      0.888800
     15 O15        -7.7730   -5.8690   -1.2370 o         1 23E     -0.831800
     16 C16        -3.4050    4.5800   -0.7890 c3        1 23E     -0.087400
     17 C17        -2.9900    4.7990    1.5980 c3        1 23E     -0.087400
     18 C18        -3.1330    6.0500   -0.5120 c3        1 23E     -0.077900
     19 C19        -2.8820    6.1870    0.9850 c3        1 23E     -0.077900
     20 O20        -8.2770   -5.9890    0.9360 o         1 23E     -0.831800
     21 C21        -0.6170    2.8410    1.1460 c         1 23E      0.676700
     22 C22         0.6260    2.2000    0.6120 ca        1 23E     -0.130600
     23 C23         1.4020    2.8320   -0.3800 ca        1 23E     -0.137000
     24 C24         2.5460    2.2320   -0.8820 ca        1 23E     -0.095000
     25 C25         0.9810    0.9600    1.1340 ca        1 23E     -0.082000
     26 N26         2.6840   -0.9180    0.8890 na        1 23E     -0.061400
     27 C27         2.1320    0.3430    0.6220 ca        1 23E     -0.041200
     28 C28         2.9330    0.9800   -0.3990 ca        1 23E     -0.068800
     29 C29         4.0230    0.0730   -0.7030 cc        1 23E     -0.107400
     30 C30         3.8490   -1.0620    0.1020 cd        1 23E      0.005700
     31 C31         5.1280    0.3080   -1.6560 c3        1 23E      0.003500
     32 C32         4.6600   -2.2690    0.1590 ca        1 23E     -0.061800
     33 C33         4.6120    0.4040   -3.0890 c3        1 23E     -0.071900
     34 C34         5.7450    0.6480   -4.0630 c3        1 23E     -0.077400
     35 C35         6.5390    1.8840   -3.6910 c3        1 23E     -0.076400
     36 C36         7.0510    1.7960   -2.2670 c3        1 23E     -0.077400
     37 C37         5.9210    1.5590   -1.2870 c3        1 23E     -0.071900
     38 O38        -0.8410    2.8880    2.3690 o         1 23E     -0.578100
     39 C39         5.0290   -2.8850   -1.0470 ca        1 23E     -0.085000
     40 C40         5.8440   -4.0100   -1.0590 ca        1 23E     -0.150000
     41 C41         6.3030   -4.5430    0.1460 ca        1 23E     -0.098000
     42 C42         5.9310   -3.9700    1.3540 ca        1 23E     -0.172000
     43 C43         5.0880   -2.8300    1.3870 ca        1 23E      0.074600
     44 C44         2.3650   -1.7540    2.0010 c3        1 23E     -0.021700
     45 N45         4.7540   -2.2820    2.6360 n         1 23E     -0.469100
     46 C46         3.4910   -1.8690    3.0330 c         1 23E      0.678500
     47 O47         3.2940   -1.6040    4.2310 o         1 23E     -0.610500
     48 HN1        -1.2370    3.2150   -0.7600 hn        1 23E      0.303500
     49 HN4        -3.2350    1.8170   -1.1570 hn        1 23E      0.301500
     50 H7         -3.9900    0.0910   -2.5080 ha        1 23E      0.133500
     51 H8         -5.1780   -2.0580   -2.6830 ha        1 23E      0.137500
     52 H10        -6.3700   -1.7650    1.4580 ha        1 23E      0.137500
     53 H11        -5.1910    0.3880    1.6690 ha        1 23E      0.133500
     54 H12        -6.5660   -3.7470   -1.8100 ha        1 23E      0.143000
     55 H13        -7.0880   -3.7590    1.2530 ha        1 23E      0.101000
     56 H16        -2.9580    4.2550   -1.7600 hc        1 23E      0.070700
     57 H16A       -4.5090    4.3970   -0.8470 hc        1 23E      0.070700
     58 H17        -3.9970    4.6550    2.0690 hc        1 23E      0.070700
     59 H17A       -2.2230    4.6360    2.3950 hc        1 23E      0.070700
     60 H18        -2.2400    6.3960   -1.0900 hc        1 23E      0.040700
     61 H18A       -4.0020    6.6760   -0.8330 hc        1 23E      0.040700
     62 H19        -3.6270    6.8770    1.4530 hc        1 23E      0.040700
     63 H19A       -1.8660    6.6180    1.1690 hc        1 23E      0.040700
     64 H23         1.1040    3.8240   -0.7500 ha        1 23E      0.134000
     65 H24         3.1420    2.7330   -1.6590 ha        1 23E      0.137000
     66 H25         0.3710    0.4950    1.9230 ha        1 23E      0.163000
     67 H31         5.8400   -0.5680   -1.6020 hc        1 23E      0.053700
     68 H33         4.0840   -0.5480   -3.3570 hc        1 23E      0.045200
     69 H33A        3.8640    1.2360   -3.1600 hc        1 23E      0.045200
     70 H34         6.4270   -0.2420   -4.0760 hc        1 23E      0.037700
     71 H34A        5.3280    0.7670   -5.0970 hc        1 23E      0.037700
     72 H35         7.4030    2.0020   -4.3950 hc        1 23E      0.037200
     73 H35A        5.8890    2.7920   -3.7990 hc        1 23E      0.037200
     74 H36         7.7950    0.9610   -2.1890 hc        1 23E      0.037700
     75 H36A        7.5820    2.7470   -2.0000 hc        1 23E      0.037700
     76 H37         5.2370    2.4480   -1.2750 hc        1 23E      0.045200
     77 H37A        6.3370    1.4420   -0.2530 hc        1 23E      0.045200
     78 H39         4.6580   -2.4600   -1.9950 ha        1 23E      0.149000
     79 H40         6.1240   -4.4780   -2.0130 ha        1 23E      0.139000
     80 H41         6.9550   -5.4300    0.1430 ha        1 23E      0.136000
     81 H42         6.2940   -4.4120    2.2950 ha        1 23E      0.138000
     82 H44         1.4580   -1.3450    2.5330 h1        1 23E      0.099200
     83 H44A        2.1290   -2.7940    1.6260 h1        1 23E      0.099200
     84 HN45        5.4200   -2.4280    3.3670 hn        1 23E      0.325500
@<TRIPOS>BOND
     1    1    2 1   
     2    1   21 1   
     3    1   48 1   
     4    2    3 1   
     5    2   16 1   
     6    2   17 1   
     7    3    4 1   
     8    3    6 2   
     9    4    5 1   
    10    4   49 1   
    11    5    7 ar  
    12    5   11 ar  
    13    7    8 ar  
    14    7   50 1   
    15    8    9 ar  
    16    8   51 1   
    17    9   10 ar  
    18    9   12 1   
    19   10   11 ar  
    20   10   52 1   
    21   11   53 1   
    22   12   13 2   
    23   12   54 1   
    24   13   14 1   
    25   13   55 1   
    26   14   15 1   
    27   14   20 1   
    28   16   18 1   
    29   16   56 1   
    30   16   57 1   
    31   17   19 1   
    32   17   58 1   
    33   17   59 1   
    34   18   19 1   
    35   18   60 1   
    36   18   61 1   
    37   19   62 1   
    38   19   63 1   
    39   21   22 1   
    40   21   38 2   
    41   22   23 ar  
    42   22   25 ar  
    43   23   24 ar  
    44   23   64 1   
    45   24   28 ar  
    46   24   65 1   
    47   25   27 ar  
    48   25   66 1   
    49   26   27 1   
    50   26   30 1   
    51   26   44 1   
    52   27   28 ar  
    53   28   29 1   
    54   29   30 2   
    55   29   31 1   
    56   30   32 1   
    57   31   33 1   
    58   31   37 1   
    59   31   67 1   
    60   32   39 ar  
    61   32   43 ar  
    62   33   34 1   
    63   33   68 1   
    64   33   69 1   
    65   34   35 1   
    66   34   70 1   
    67   34   71 1   
    68   35   36 1   
    69   35   72 1   
    70   35   73 1   
    71   36   37 1   
    72   36   74 1   
    73   36   75 1   
    74   37   76 1   
    75   37   77 1   
    76   39   40 ar  
    77   39   78 1   
    78   40   41 ar  
    79   40   79 1   
    80   41   42 ar  
    81   41   80 1   
    82   42   43 ar  
    83   42   81 1   
    84   43   45 1   
    85   44   46 1   
    86   44   82 1   
    87   44   83 1   
    88   45   46 1   
    89   45   84 1   
    90   46   47 2   
@<TRIPOS>SUBSTRUCTURE
     1 23E         1 TEMP              0 ****  ****    0 ROOT
