@<TRIPOS>MOLECULE
23E
   84    79     1     0     0
SMALL
bcc


@<TRIPOS>ATOM
      1 N1         -2.5620    0.0530    1.5360 n         1 23E     -0.322000
      2 C2         -4.0100    0.0020    1.6290 c3        1 23E      0.049000
      3 C3         -4.3000    0.4790    0.3200 c2        1 23E      0.277000
      4 N4         -5.2920    1.5200    0.1310 n         1 23E     -0.305000
      5 C5         -5.6090    1.9830   -1.2010 c2        1 23E      0.023000
      6 O6         -3.7360   -0.0010   -0.6380 o         1 23E     -0.369000
      7 C7         -6.9020    2.4910   -1.1840 c2        1 23E     -0.186000
      8 C8         -7.5940    2.6740   -2.3790 c1        1 23E     -0.131000
      9 C9         -6.9940    2.3510   -3.5840 c1        1 23E     -0.003000
     10 C10        -5.7010    1.8440   -3.6010 c1        1 23E     -0.099000
     11 C11        -5.0080    1.6600   -2.4060 c1        1 23E     -0.138000
     12 C12        -7.8050    2.4060   -4.8730 c2        1 23E     -0.199000
     13 C13        -7.6620    3.4480   -5.7150 c1        1 23E     -0.123000
     14 C14        -6.6990    4.5630   -5.3810 c1        1 23E      0.346000
     15 O15        -7.0430    5.4740   -4.5830 o         1 23E     -0.566500
     16 C16        -4.6380    0.8720    2.8250 c3        1 23E     -0.160500
     17 C17        -4.6290   -1.4910    1.9820 c3        1 23E     -0.160500
     18 C18        -5.5580    0.1120    3.3930 c3        1 23E     -0.164500
     19 C19        -5.1250   -1.4040    3.1700 c3        1 23E     -0.164500
     20 O20        -5.5630    4.5990   -5.9270 o         1 23E     -0.566500
     21 C21        -1.8620   -0.8680    0.6700 c2        1 23E      0.341000
     22 C22        -0.3210   -0.9190    0.6910 c2        1 23E     -0.094000
     23 C23         0.1370   -1.9880   -0.1100 c2        1 23E     -0.106000
     24 C24         1.5120   -2.2670   -0.1930 c1        1 23E     -0.091000
     25 C25         0.5940   -0.1350    1.4040 c1        1 23E     -0.114000
     26 N26         3.0660    0.2590    1.8150 n2        1 23E     -0.161000
     27 C27         1.9640   -0.4100    1.3230 c1        1 23E      0.003000
     28 C28         2.4260   -1.4880    0.5150 c1        1 23E     -0.060000
     29 C29         3.8800   -1.4670    0.5210 c1        1 23E     -0.099000
     30 C30         4.2830   -0.4230    1.2980 c2        1 23E      0.004000
     31 C31         5.0030   -2.2760   -0.1400 c2        1 23E     -0.043000
     32 C32         5.6250    0.5990    1.2800 c1        1 23E     -0.043000
     33 C33         4.9200   -3.7130    0.3390 c3        1 23E     -0.151000
     34 C34         5.8780   -4.6270   -0.4000 c3        1 23E     -0.155500
     35 C35         5.7450   -4.5100   -1.9050 c3        1 23E     -0.156000
     36 C36         5.8290   -3.0730   -2.3840 c3        1 23E     -0.155500
     37 C37         4.8710   -2.1590   -1.6450 c3        1 23E     -0.151000
     38 O38        -2.4840   -1.6800    0.0230 o         1 23E     -0.348000
     39 C39         6.9470    0.1410    1.3270 c1        1 23E     -0.128000
     40 C40         7.9490    0.9570    1.8480 c1        1 23E     -0.128000
     41 C41         7.6360    2.2260    2.3220 c1        1 23E     -0.128000
     42 C42         6.3290    2.6800    2.2760 c1        1 23E     -0.128000
     43 C43         5.3150    1.8550    1.7490 c1        1 23E      0.080000
     44 C44         3.3630    1.4200    2.3950 c2        1 23E     -0.028000
     45 N45         4.4270    2.4630    0.9500 n         1 23E     -0.322000
     46 C46         3.3900    2.3780    1.3810 c2        1 23E      0.285000
     47 O47         2.4750    3.1380    1.1270 o         1 23E     -0.342000
     48 HN1        -2.0910    0.6200    2.0740 hn        1 23E      0.225000
     49 HN4        -5.6850    1.9090    0.8530 hn        1 23E      0.225000
     50 H7         -7.3250    2.7180   -0.3360 ha        1 23E      0.106000
     51 H8         -8.5050    3.0320   -2.3660 ha        1 23E      0.117000
     52 H10        -5.2790    1.6160   -4.4480 ha        1 23E      0.209000
     53 H11        -4.0780    1.3630   -2.4230 ha        1 23E      0.156000
     54 H12        -8.4290    1.6840   -5.0900 ha        1 23E      0.084000
     55 H13        -8.1830    3.4830   -6.5430 ha        1 23E      0.097000
     56 H16        -5.0470    1.6840    2.4700 hc        1 23E      0.105750
     57 H16A       -3.9430    1.1020    3.4750 hc        1 23E      0.105750
     58 H17        -5.3290   -1.7230    1.3430 hc        1 23E      0.105750
     59 H17A       -3.9160   -2.1660    1.9620 hc        1 23E      0.105750
     60 H18        -5.6060    0.3080    4.3540 hc        1 23E      0.084000
     61 H18A       -6.4310    0.2750    2.9740 hc        1 23E      0.084000
     62 H19        -5.9060   -1.9880    3.2480 hc        1 23E      0.084000
     63 H19A       -4.4500   -1.6590    3.8320 hc        1 23E      0.084000
     64 H23        -0.3220   -2.8370   -0.2550 ha        1 23E      0.158000
     65 H24         1.5340   -3.2300   -0.3430 ha        1 23E      0.142000
     66 H25         0.2480    0.7760    1.3770 ha        1 23E      0.144000
     67 H31         5.8620   -1.9030    0.1310 ha        1 23E      0.090000
     68 H33         5.1300   -3.7400    1.2940 hc        1 23E      0.086000
     69 H33A        4.0060   -4.0380    0.2070 hc        1 23E      0.086000
     70 H34         5.6990   -5.5510   -0.1380 hc        1 23E      0.076750
     71 H34A        6.7900   -4.3990   -0.1460 hc        1 23E      0.076750
     72 H35         4.8830   -4.8840   -2.1770 hc        1 23E      0.079000
     73 H35A        6.4610   -5.0250   -2.3270 hc        1 23E      0.079000
     74 H36         6.7410   -2.7480   -2.2510 hc        1 23E      0.076750
     75 H36A        5.6190   -3.0460   -3.3390 hc        1 23E      0.076750
     76 H37         5.0510   -1.2350   -1.9070 hc        1 23E      0.086000
     77 H37A        3.9540   -2.3880   -1.9000 hc        1 23E      0.086000
     78 H39         7.1670   -0.7480    0.9950 ha        1 23E      0.139500
     79 H40         8.8740    0.6360    1.8800 ha        1 23E      0.139500
     80 H41         8.3380    2.7970    2.6860 ha        1 23E      0.139500
     81 H42         6.1080    3.5740    2.6100 ha        1 23E      0.139500
     82 H44         4.2010    1.3090    2.8830 ha        1 23E      0.129000
     83 H44A        2.7450    1.6910    3.1140 ha        1 23E      0.129000
     84 HN45        4.6480    2.9790    0.2360 hn        1 23E      0.241000
@<TRIPOS>BOND
     1    1    2 1   
     2    1   21 1   
     3    1   48 1   
     4    2    3 1   
     5    2   16 1   
     6    2   17 1   
     7    3    4 1   
     8    3    6 1   
     9    4    5 1   
    10    4   49 1   
    11    5    7 1   
    12    5   11 1   
    13    7    8 1   
    14    7   50 1   
    15    8   51 1   
    16    9   10 1   
    17    9   12 1   
    18   10   52 1   
    19   11   53 1   
    20   12   13 1   
    21   12   54 1   
    22   13   55 1   
    23   14   15 1   
    24   14   20 1   
    25   16   18 1   
    26   16   56 1   
    27   16   57 1   
    28   17   19 1   
    29   17   58 1   
    30   17   59 1   
    31   18   19 1   
    32   18   60 1   
    33   18   61 1   
    34   19   62 1   
    35   19   63 1   
    36   21   22 1   
    37   21   38 1   
    38   22   23 1   
    39   22   25 1   
    40   23   24 1   
    41   23   64 1   
    42   24   65 1   
    43   25   66 1   
    44   26   27 1   
    45   26   30 1   
    46   27   28 1   
    47   29   30 1   
    48   30   32 1   
    49   31   33 1   
    50   31   37 1   
    51   31   67 1   
    52   32   43 1   
    53   33   34 1   
    54   33   68 1   
    55   33   69 1   
    56   34   35 1   
    57   34   70 1   
    58   34   71 1   
    59   35   36 1   
    60   35   72 1   
    61   35   73 1   
    62   36   37 1   
    63   36   74 1   
    64   36   75 1   
    65   37   76 1   
    66   37   77 1   
    67   39   40 1   
    68   39   78 1   
    69   40   79 1   
    70   41   42 1   
    71   41   80 1   
    72   42   81 1   
    73   43   45 1   
    74   44   46 1   
    75   44   82 1   
    76   44   83 1   
    77   45   46 1   
    78   45   84 1   
    79   46   47 1   
@<TRIPOS>SUBSTRUCTURE
     1 23E         1 TEMP              0 ****  ****    0 ROOT
