@<TRIPOS>MOLECULE
23E
   86    92     1     0     0
SMALL
bcc


@<TRIPOS>ATOM
      1 N1          1.0760   -0.7860    1.6610 n4        1 23E     -0.698800
      2 C2         -0.0120   -1.7590    1.3230 c3        1 23E      0.104200
      3 C3         -1.3490   -1.1770    0.8660 c         1 23E      0.558100
      4 N4         -1.6030    0.2970    0.6720 n4        1 23E     -0.531200
      5 C5         -1.4200    1.0620    1.9030 ca        1 23E     -0.114400
      6 O6         -2.3210   -1.8780    0.6090 o         1 23E     -0.418100
      7 C7         -2.2050    0.7730    3.0360 ca        1 23E     -0.104500
      8 C8         -1.8280    1.3010    4.2660 ca        1 23E     -0.093000
      9 C9         -0.6650    2.0830    4.3650 ca        1 23E      0.067200
     10 C10        -0.0600    2.5720    3.1920 ca        1 23E     -0.093000
     11 C11        -0.4230    2.0580    1.9550 ca        1 23E     -0.104500
     12 C12         0.0330    2.2130    5.6450 ce        1 23E     -0.157200
     13 C13         1.0500    1.3790    5.9140 cf        1 23E     -0.141200
     14 C14         1.5000    0.3470    4.9290 c         1 23E      0.908800
     15 O15         0.6210   -0.2630    4.2130 o         1 23E     -0.865800
     16 C16         0.4600   -2.7870    0.2480 c3        1 23E     -0.099900
     17 C17        -0.2920   -2.6670    2.5710 c3        1 23E     -0.099900
     18 C18         1.1790   -3.8830    1.0210 c3        1 23E     -0.096400
     19 C19         0.7080   -3.8070    2.4680 c3        1 23E     -0.096400
     20 O20         2.7200    0.0870    4.7500 o         1 23E     -0.865800
     21 C21         1.7210   -0.0870    0.4970 c         1 23E      0.601700
     22 C22         3.1320    0.2260    0.5920 ca        1 23E     -0.239600
     23 C23         3.8210    0.3940   -0.6410 ca        1 23E     -0.083000
     24 C24         5.1630    0.7100   -0.6730 ca        1 23E     -0.104000
     25 C25         3.7880    0.3990    1.8200 ca        1 23E     -0.056000
     26 N26         6.0390    0.9970    2.8330 na        1 23E     -0.038400
     27 C27         5.1330    0.7610    1.7870 ca        1 23E     -0.072200
     28 C28         5.8540    0.9110    0.5290 ca        1 23E     -0.002800
     29 C29         7.2050    1.2710    0.8580 cc        1 23E     -0.127400
     30 C30         7.2820    1.3300    2.2680 cd        1 23E      0.071700
     31 C31         8.3050    1.5680   -0.0850 c3        1 23E     -0.003500
     32 C32         8.4320    1.6520    3.1000 ca        1 23E     -0.099800
     33 C33         8.6810    0.3360   -0.9040 c3        1 23E     -0.069900
     34 C34         9.8100    0.6440   -1.8650 c3        1 23E     -0.078900
     35 C35         9.4670    1.8110   -2.7680 c3        1 23E     -0.078400
     36 C36         9.0850    3.0350   -1.9600 c3        1 23E     -0.078900
     37 C37         7.9510    2.7360   -1.0030 c3        1 23E     -0.069900
     38 O38         0.9750    0.1550   -0.4630 o         1 23E     -0.577100
     39 C39         9.6530    1.0150    2.8290 ca        1 23E     -0.078000
     40 C40        10.7950    1.3180    3.5590 ca        1 23E     -0.144000
     41 C41        10.7310    2.2690    4.5790 ca        1 23E     -0.078000
     42 C42         9.5310    2.8970    4.8810 ca        1 23E     -0.167000
     43 C43         8.3510    2.5900    4.1590 ca        1 23E      0.083600
     44 C44         5.7050    1.2350    4.2050 c3        1 23E     -0.055700
     45 N45         7.1670    3.2710    4.4870 n         1 23E     -0.471100
     46 C46         5.9110    2.6970    4.6160 c         1 23E      0.680500
     47 O47         4.9710    3.3810    5.0530 o         1 23E     -0.603500
     48 HN1         1.8010   -1.3290    2.1670 hn        1 23E      0.512300
     49 HN4        -0.9690    0.6580   -0.0600 hn        1 23E      0.476300
     50 H7         -3.0690    0.0920    2.9740 ha        1 23E      0.153500
     51 H8         -2.3890    1.0320    5.1750 ha        1 23E      0.175500
     52 H10         0.7500    3.3170    3.2650 ha        1 23E      0.175500
     53 H11         0.0910    2.4030    1.0430 ha        1 23E      0.153500
     54 H12        -0.3130    2.9900    6.3410 ha        1 23E      0.158000
     55 H13         1.6170    1.4250    6.8560 ha        1 23E      0.161000
     56 H16        -0.4430   -3.2080   -0.2670 hc        1 23E      0.102700
     57 H16A        1.1120   -2.3210   -0.5320 hc        1 23E      0.102700
     58 H17        -0.1880   -2.1050    3.5410 hc        1 23E      0.102700
     59 H17A       -1.3400   -3.0560    2.5010 hc        1 23E      0.102700
     60 H18         0.9460   -4.8830    0.5730 hc        1 23E      0.077950
     61 H18A        2.2880   -3.7450    0.9600 hc        1 23E      0.077950
     62 H19         0.2280   -4.7670    2.7860 hc        1 23E      0.077950
     63 H19A        1.5750   -3.6300    3.1560 hc        1 23E      0.077950
     64 H23         3.2610    0.2630   -1.5810 ha        1 23E      0.150000
     65 H24         5.6910    0.8110   -1.6350 ha        1 23E      0.164000
     66 H25         3.2740    0.2830    2.7950 ha        1 23E      0.200000
     67 H31         9.2140    1.8770    0.5130 hc        1 23E      0.065700
     68 H33         8.9900   -0.4900   -0.2110 hc        1 23E      0.040200
     69 H33A        7.7840   -0.0200   -1.4750 hc        1 23E      0.040200
     70 H34        10.7400    0.8820   -1.2850 hc        1 23E      0.045950
     71 H34A       10.0250   -0.2630   -2.4880 hc        1 23E      0.045950
     72 H35        10.3460    2.0510   -3.4200 hc        1 23E      0.043700
     73 H35A        8.6160    1.5260   -3.4410 hc        1 23E      0.043700
     74 H36         9.9770    3.3950   -1.3830 hc        1 23E      0.045950
     75 H36A        8.7780    3.8610   -2.6530 hc        1 23E      0.045950
     76 H37         7.0230    2.4920   -1.5830 hc        1 23E      0.040200
     77 H37A        7.7320    3.6430   -0.3820 hc        1 23E      0.040200
     78 H39         9.6960    0.2630    2.0220 ha        1 23E      0.150000
     79 H40        11.7460    0.8110    3.3340 ha        1 23E      0.151000
     80 H41        11.6370    2.5200    5.1540 ha        1 23E      0.150000
     81 H42         9.5010    3.6400    5.6950 ha        1 23E      0.149000
     82 H44         4.6200    0.9690    4.3990 h1        1 23E      0.126700
     83 H44A        6.3550    0.5830    4.8580 h1        1 23E      0.126700
     84 HN45        7.2820    4.1840    4.8790 hn        1 23E      0.335500
     85 H121        0.7340   -0.0960    2.4060 hn        1 23E      0.512300
     86 H421       -2.5760    0.4130    0.3460 hn        1 23E      0.476300
@<TRIPOS>BOND
     1    1    2 1   
     2    1   21 1   
     3    1   48 1   
     4    1   85 1   
     5    2    3 1   
     6    2   16 1   
     7    2   17 1   
     8    3    4 1   
     9    3    6 2   
    10    4    5 1   
    11    4   49 1   
    12    4   86 1   
    13    5    7 ar  
    14    5   11 ar  
    15    7    8 ar  
    16    7   50 1   
    17    8    9 ar  
    18    8   51 1   
    19    9   10 ar  
    20    9   12 1   
    21   10   11 ar  
    22   10   52 1   
    23   11   53 1   
    24   12   13 2   
    25   12   54 1   
    26   13   14 1   
    27   13   55 1   
    28   14   15 1   
    29   14   20 1   
    30   16   18 1   
    31   16   56 1   
    32   16   57 1   
    33   17   19 1   
    34   17   58 1   
    35   17   59 1   
    36   18   19 1   
    37   18   60 1   
    38   18   61 1   
    39   19   62 1   
    40   19   63 1   
    41   21   22 1   
    42   21   38 2   
    43   22   23 ar  
    44   22   25 ar  
    45   23   24 ar  
    46   23   64 1   
    47   24   28 ar  
    48   24   65 1   
    49   25   27 ar  
    50   25   66 1   
    51   26   27 1   
    52   26   30 1   
    53   26   44 1   
    54   27   28 ar  
    55   28   29 1   
    56   29   30 2   
    57   29   31 1   
    58   30   32 1   
    59   31   33 1   
    60   31   37 1   
    61   31   67 1   
    62   32   39 ar  
    63   32   43 ar  
    64   33   34 1   
    65   33   68 1   
    66   33   69 1   
    67   34   35 1   
    68   34   70 1   
    69   34   71 1   
    70   35   36 1   
    71   35   72 1   
    72   35   73 1   
    73   36   37 1   
    74   36   74 1   
    75   36   75 1   
    76   37   76 1   
    77   37   77 1   
    78   39   40 ar  
    79   39   78 1   
    80   40   41 ar  
    81   40   79 1   
    82   41   42 ar  
    83   41   80 1   
    84   42   43 ar  
    85   42   81 1   
    86   43   45 1   
    87   44   46 1   
    88   44   82 1   
    89   44   83 1   
    90   45   46 1   
    91   45   84 1   
    92   46   47 2   
@<TRIPOS>SUBSTRUCTURE
     1 23E         1 TEMP              0 ****  ****    0 ROOT
