@<TRIPOS>MOLECULE
23F
   20    20     1     0     0
SMALL
bcc


@<TRIPOS>ATOM
      1 N           1.2830   -1.4170   -0.8710 nh        1 23F     -0.828600
      2 CA          1.3960   -0.2000   -0.2260 ce        1 23F      0.081800
      3 C           2.8440    0.3040    0.0250 c         1 23F      0.909800
      4 OXT         3.7230   -0.5850    0.2100 o         1 23F     -0.819300
      5 CB          0.3540    0.5930    0.1510 cf        1 23F     -0.313200
      6 CG         -1.0530    0.2830    0.1120 ca        1 23F      0.046200
      7 CD1        -1.5720   -0.9610    0.5150 ca        1 23F     -0.163500
      8 CD2        -1.9650    1.2770   -0.2980 ca        1 23F     -0.163500
      9 CE1        -2.9420   -1.2080    0.4830 ca        1 23F     -0.127500
     10 CE2        -3.3310    1.0260   -0.3270 ca        1 23F     -0.127500
     11 CZ         -3.8280   -0.2200    0.0590 ca        1 23F     -0.183000
     12 O           3.0420    1.5440    0.0500 o         1 23F     -0.819300
     13 H           2.1130   -1.9710   -0.8230 hn        1 23F      0.388300
     14 H2          0.4390   -1.9220   -0.7360 hn        1 23F      0.388300
     15 HB          0.6140    1.6120    0.4880 ha        1 23F      0.156000
     16 HD1        -0.8920   -1.7390    0.8910 ha        1 23F      0.126500
     17 HD2        -1.5750    2.2600   -0.6030 ha        1 23F      0.126500
     18 HE1        -3.3260   -2.1870    0.8010 ha        1 23F      0.107500
     19 HE2        -4.0260    1.8120   -0.6560 ha        1 23F      0.107500
     20 HZ         -4.9070   -0.4180    0.0310 ha        1 23F      0.107000
@<TRIPOS>BOND
     1    1    2 1   
     2    1   13 1   
     3    1   14 1   
     4    2    3 1   
     5    2    5 2   
     6    3    4 1   
     7    3   12 1   
     8    5    6 1   
     9    5   15 1   
    10    6    7 ar  
    11    6    8 ar  
    12    7    9 ar  
    13    7   16 1   
    14    8   10 ar  
    15    8   17 1   
    16    9   11 ar  
    17    9   18 1   
    18   10   11 ar  
    19   10   19 1   
    20   11   20 1   
@<TRIPOS>SUBSTRUCTURE
     1 23F         1 TEMP              0 ****  ****    0 ROOT
