@<TRIPOS>MOLECULE
23F
   20    17     1     0     0
SMALL
bcc


@<TRIPOS>ATOM
      1 N          -0.8370    0.5790    1.9740 n3        1 23F     -0.330000
      2 CA          0.5260    0.1870    1.9780 c2        1 23F      0.007000
      3 C           1.3080    0.1810    3.2730 c2        1 23F      0.358000
      4 OXT         1.4060   -0.8790    3.9450 o         1 23F     -0.553500
      5 CB          1.1240   -0.1820    0.8280 c1        1 23F     -0.309000
      6 CG          0.3420   -0.1770   -0.4670 c1        1 23F      0.044000
      7 CD1         0.3780    0.9360   -1.2930 c1        1 23F     -0.156000
      8 CD2        -0.3760   -1.3000   -0.8470 c2        1 23F     -0.165000
      9 CE1        -0.3040    0.9240   -2.5000 c1        1 23F     -0.157000
     10 CE2        -1.0570   -1.3110   -2.0540 c1        1 23F     -0.131000
     11 CZ         -1.0220   -0.1990   -2.8800 c1        1 23F     -0.157000
     12 O           1.8650    1.2360    3.6760 o         1 23F     -0.553500
     13 H          -1.4920   -0.0430    2.1130 hn        1 23F      0.179000
     14 H2         -1.0600    1.4560    1.8450 hn        1 23F      0.179000
     15 HB          2.0620   -0.4520    0.8310 ha        1 23F      0.154000
     16 HD1         0.8770    1.7290   -1.0220 ha        1 23F      0.128000
     17 HD2        -0.4010   -2.0830   -0.2650 ha        1 23F      0.140000
     18 HE1        -0.2790    1.7080   -3.0820 ha        1 23F      0.107000
     19 HE2        -1.5590   -2.1040   -2.3240 ha        1 23F      0.108000
     20 HZ         -1.5020   -0.2070   -3.7300 ha        1 23F      0.107000
@<TRIPOS>BOND
     1    1    2 1   
     2    1   13 1   
     3    1   14 1   
     4    2    3 1   
     5    2    5 1   
     6    3    4 1   
     7    3   12 1   
     8    5   15 1   
     9    6    7 1   
    10    6    8 1   
    11    7   16 1   
    12    8   10 1   
    13    8   17 1   
    14    9   11 1   
    15    9   18 1   
    16   10   19 1   
    17   11   20 1   
@<TRIPOS>SUBSTRUCTURE
     1 23F         1 TEMP              0 ****  ****    0 ROOT
