@<TRIPOS>MOLECULE
23G
   38    35     1     0     0
SMALL
bcc


@<TRIPOS>ATOM
      1 P          -5.0110    0.3810   -0.8710 p3        1 23G      2.572000
      2 N1          2.4330    3.6430    1.7210 n3        1 23G     -0.354000
      3 C2          2.0420    2.4450    2.3650 c2        1 23G      0.220000
      4 N2          1.9400    2.3990    3.7920 n3        1 23G     -0.300000
      5 N3          1.7820    1.2630    1.5890 n1        1 23G     -0.198000
      6 C4          1.9200    1.2950    0.1300 c1        1 23G     -0.095000
      7 C5          2.2920    2.4370   -0.4890 c1        1 23G     -0.095000
      8 C6          2.5680    3.6750    0.3210 c1        1 23G      0.397000
      9 O6          2.8990    4.6790   -0.2220 o         1 23G     -0.405000
     10 N7          2.3420    2.1900   -1.8280 n2        1 23G     -0.122000
     11 C8          1.9970    0.8890   -2.0300 c1        1 23G     -0.105000
     12 N9          1.7370    0.3350   -0.8280 n2        1 23G     -0.122000
     13 PC          0.5580   -3.6080   -0.8200 p3        1 23G      2.543000
     14 C1'         0.8210   -0.7080   -1.0090 c2        1 23G      0.132000
     15 C2'         0.8020   -1.4910    0.0640 c3        1 23G      0.018000
     16 O2'         1.5070   -2.5300   -0.1090 o         1 23G     -0.729000
     17 C3'        -0.6930   -1.9890    0.1840 c3        1 23G     -0.446000
     18 O3'        -0.7120   -3.3630   -0.2150 os        1 23G     -0.714000
     19 C4'        -1.5100   -1.1160   -0.7940 c3        1 23G      0.058000
     20 O4'        -0.6830   -0.1170   -1.1550 os        1 23G     -0.329000
     21 C5'        -2.7450   -0.5600   -0.1000 c3        1 23G      0.029000
     22 O5'        -3.4530    0.2920   -0.9990 o         1 23G     -0.744000
     23 OC1         1.0610   -5.0860   -0.6620 oh        1 23G     -0.802000
     24 OC2         0.5220   -3.4500   -2.3110 o         1 23G     -1.091000
     25 OP1        -5.6250   -0.9170   -1.3110 o         1 23G     -1.078333
     26 OP2        -5.3850    0.6520    0.5720 o         1 23G     -1.078333
     27 HN1         2.5170    4.3910    2.1910 hn        1 23G      0.231000
     28 HN2         2.0930    3.1730    4.2990 hn        1 23G      0.230000
     29 HN2A        1.6900    1.6370    4.2000 hn        1 23G      0.230000
     30 H8          1.9360    0.4280   -2.9150 DU        1 23G      0.185000
     31 H1'         1.0600   -1.2380   -1.8150 h4        1 23G      0.099000
     32 H2'         1.0760   -1.0070    0.8580 h1        1 23G      0.131000
     33 H3'        -1.0250   -1.8850    1.1130 h1        1 23G      0.280000
     34 H4'        -1.7720   -1.6490   -1.5920 h1        1 23G      0.100000
     35 H5'        -2.4740   -0.0480    0.6920 h1        1 23G      0.069000
     36 H5'A       -3.3420   -1.3190    0.1800 h1        1 23G      0.069000
     37 OP3        -5.5230    1.5010   -1.7420 o         1 23G     -1.078333
     38 H11         0.3570   -5.6260   -0.4530 ho        1 23G      0.295000
@<TRIPOS>BOND
     1    1   25 1   
     2    1   26 1   
     3    1   37 1   
     4    2    3 1   
     5    2    8 1   
     6    2   27 1   
     7    3    4 1   
     8    3    5 1   
     9    4   28 1   
    10    4   29 1   
    11    6    7 1   
    12    6   12 1   
    13    7   10 1   
    14    8    9 1   
    15   10   11 1   
    16   11   12 1   
    17   13   18 1   
    18   13   23 1   
    19   13   24 1   
    20   14   15 1   
    21   14   20 1   
    22   14   31 1   
    23   15   16 1   
    24   15   17 1   
    25   15   32 1   
    26   17   18 1   
    27   17   19 1   
    28   17   33 1   
    29   19   20 1   
    30   19   21 1   
    31   19   34 1   
    32   21   22 1   
    33   21   35 1   
    34   21   36 1   
    35   23   38 1   
@<TRIPOS>SUBSTRUCTURE
     1 23G         1 TEMP              0 ****  ****    0 ROOT
