@<TRIPOS>MOLECULE
23G
   38    41     1     0     0
SMALL
bcc


@<TRIPOS>ATOM
      1 P           4.5260   -1.1590    0.7430 p5        1 23G      1.905000
      2 N1         -5.5650   -1.7730   -0.2040 n         1 23G     -0.336000
      3 C2         -5.1570   -0.6290   -0.9210 c2        1 23G      0.143000
      4 N2         -6.2020    0.0600   -1.6410 nh        1 23G     -0.304000
      5 N3         -3.9060   -0.1510   -0.9510 n2        1 23G     -0.182000
      6 C4         -2.9930   -0.8440   -0.1680 c2        1 23G      0.012000
      7 C5         -3.3170   -2.0190    0.6150 c2        1 23G     -0.228000
      8 C6         -4.6760   -2.5150    0.6140 c2        1 23G      0.392000
      9 O6         -5.1520   -3.4920    1.2220 o         1 23G     -0.376000
     10 N7         -2.1820   -2.4820    1.2740 n2        1 23G     -0.108000
     11 C8         -1.1990   -1.6230    0.9120 c2        1 23G     -0.053000
     12 N9         -1.6370   -0.6020    0.0460 na        1 23G     -0.113000
     13 PC          0.6080    3.7080    0.0180 p5        1 23G      2.507000
     14 C1'        -0.8390    0.4760   -0.5360 c3        1 23G      0.103000
     15 C2'        -0.1560    1.4020    0.5500 c3        1 23G      0.036000
     16 O2'        -0.6270    2.7320    0.4160 os        1 23G     -0.713000
     17 C3'         1.3280    1.3610    0.2300 c2        1 23G     -0.415000
     18 O3'         1.7200    2.6310   -0.2930 os        1 23G     -0.667000
     19 C4'         1.5170    0.2600   -0.7650 c3        1 23G      0.033000
     20 O4'         0.1940   -0.0560   -1.3400 os        1 23G     -0.315000
     21 C5'         2.0810   -1.0240   -0.1360 c3        1 23G      0.034000
     22 O5'         3.4160   -1.1870   -0.4940 os        1 23G     -0.745000
     23 OP1         4.4890    0.4400    1.0200 oh        1 23G     -0.837000
     24 OP2         3.8910   -1.8530    1.8870 o         1 23G     -0.851000
     25 HN2        -6.4500   -0.4600   -2.4610 hn        1 23G      0.176500
     26 HN2A       -5.9070    0.9840   -1.8980 hn        1 23G      0.176500
     27 H1'        -1.5230    1.0670   -1.2100 h2        1 23G      0.125000
     28 H2'        -0.3930    1.0480    1.5870 h1        1 23G      0.111000
     29 H3'         3.6230    0.8430    0.9430 ho        1 23G      0.265000
     30 H4'         2.1380    0.5620   -1.6490 h1        1 23G      0.113000
     31 H5'         1.9790   -0.9910    0.9860 h1        1 23G      0.067000
     32 H5'A        1.4970   -1.9020   -0.5380 h1        1 23G      0.067000
     33 OP3         5.8390   -1.5370    0.1810 o         1 23G     -0.851000
     34 H11         0.8750    5.4470    1.2680 ho        1 23G      0.243000
     35 OC1         0.9390    4.5030    1.3810 oh        1 23G     -0.776000
     36 HN1        -6.5260   -2.0310   -0.1950 hn        1 23G      0.235000
     37 OC2         0.2930    4.7820   -0.9320 o         1 23G     -1.118000
     38 H8         -0.1420   -1.6810    1.2240 h5        1 23G      0.243000
@<TRIPOS>BOND
     1    1   22 1   
     2    1   23 1   
     3    1   24 1   
     4    1   33 1   
     5    2    3 1   
     6    2    8 1   
     7    2   36 1   
     8    3    4 1   
     9    3    5 1   
    10    4   25 1   
    11    4   26 1   
    12    5    6 1   
    13    6    7 1   
    14    6   12 1   
    15    7    8 1   
    16    7   10 1   
    17    8    9 1   
    18   10   11 1   
    19   11   12 1   
    20   11   38 1   
    21   12   14 1   
    22   13   16 1   
    23   13   18 1   
    24   13   35 1   
    25   13   37 1   
    26   14   15 1   
    27   14   20 1   
    28   14   27 1   
    29   15   16 1   
    30   15   17 1   
    31   15   28 1   
    32   17   18 1   
    33   17   19 1   
    34   19   20 1   
    35   19   21 1   
    36   19   30 1   
    37   21   22 1   
    38   21   31 1   
    39   21   32 1   
    40   23   29 1   
    41   34   35 1   
@<TRIPOS>SUBSTRUCTURE
     1 23G         1 TEMP              0 ****  ****    0 ROOT
