@<TRIPOS>MOLECULE
23H
   71    61     1     0     0
SMALL
bcc


@<TRIPOS>ATOM
      1 O1         -2.2610   -0.7690   -1.2920 o         1 23H     -0.312000
      2 C1         -1.0190   -0.7270   -1.2990 c1        1 23H      0.273000
      3 N1         -0.3000   -0.7070   -0.0510 n3        1 23H     -0.289000
      4 C2          1.1260   -0.6910   -0.0410 c3        1 23H      0.098000
      5 C3          1.6090    0.5590    0.6840 c1        1 23H      0.276000
      6 O2          1.6820    0.5580    1.8840 o         1 23H     -0.350000
      7 N2          2.2510    1.6240   -0.0750 n2        1 23H     -0.368000
      8 C24         2.4370    2.9650    0.5480 c3        1 23H      0.084000
      9 C25         3.2520    2.8210    1.8030 c3        1 23H     -0.232000
     10 C27         3.1590    3.8900   -0.4050 c3        1 23H     -0.166000
     11 C28         3.2470    5.2930    0.2040 c3        1 23H     -0.210000
     12 C26         1.0520    3.5610    0.8890 c3        1 23H     -0.232000
     13 C19         1.6550   -1.9320    0.6870 c2        1 23H     -0.118000
     14 C20         0.9490   -2.6850    1.7320 c1        1 23H     -0.152000
     15 C21         1.6370   -3.7320    2.0050 c1        1 23H     -0.203000
     16 C22         2.8080   -3.7230    1.1700 c1        1 23H     -0.121000
     17 N7          2.7610   -2.5940    0.3850 n2        1 23H     -0.116000
     18 C23         3.7370   -2.2080   -0.6030 c2        1 23H     -0.167000
     19 C11        -1.0470   -0.7320    1.2250 c1        1 23H      0.023000
     20 C12        -2.3870   -1.2420    1.2680 c1        1 23H     -0.121750
     21 C13        -3.1320   -1.1670    2.4780 c1        1 23H     -0.121750
     22 C16        -0.4620   -0.1470    2.4080 c1        1 23H     -0.106000
     23 C15        -1.1920   -0.0770    3.5830 c1        1 23H     -0.176000
     24 C14        -2.5460   -0.5890    3.6330 c1        1 23H      0.078000
     25 N6         -3.2270   -0.5740    4.8160 n3        1 23H     -0.327000
     26 C17        -4.6680   -0.7790    4.8330 c1        1 23H      0.310000
     27 C18        -5.4420   -0.8190    6.2110 c2        1 23H     -0.167000
     28 O3         -5.2260   -0.9540    3.8630 o         1 23H     -0.346000
     29 C4         -0.2490   -0.8410   -2.6380 c2        1 23H     -0.020000
     30 N3         -1.1630   -0.6210   -3.7460 n3        1 23H     -0.194000
     31 N4         -2.1100    0.3330   -3.3750 n2        1 23H      0.054000
     32 N5         -2.8660    0.6120   -4.4540 n2        1 23H     -0.051000
     33 C10        -2.4020   -0.1690   -5.5250 c1        1 23H     -0.124000
     34 C5         -1.3560   -0.9210   -5.0740 c1        1 23H     -0.017000
     35 C9         -2.8940   -0.3640   -6.8240 c1        1 23H     -0.042000
     36 C8         -2.3140   -1.3290   -7.6570 c1        1 23H     -0.121750
     37 C7         -1.2300   -2.1100   -7.1900 c1        1 23H     -0.121750
     38 C6         -0.7540   -1.9260   -5.9430 c1        1 23H     -0.128000
     39 H1          1.4860   -0.6850   -1.0270 h1        1 23H      0.104000
     40 H2          2.5070    1.4720   -1.0250 hn        1 23H      0.223000
     41 H3          4.1030    2.3850    1.5950 hc        1 23H      0.087167
     42 H4          2.7210    2.2350    2.5050 hc        1 23H      0.087167
     43 H5          3.4240    3.7090    2.1810 hc        1 23H      0.087167
     44 H6          2.6450    3.9360   -1.2980 hc        1 23H      0.096000
     45 H7          4.0030    3.5740   -0.5530 hc        1 23H      0.096000
     46 H8          3.5700    5.9270   -0.4870 hc        1 23H      0.074000
     47 H9          2.3530    5.5760    0.5200 hc        1 23H      0.074000
     48 H10         3.8860    5.2860    0.9720 hc        1 23H      0.074000
     49 H11         0.5530    2.9490    1.2430 hc        1 23H      0.087167
     50 H12         1.1550    4.2420    1.4720 hc        1 23H      0.087167
     51 H13         0.6080    3.9060    0.0370 hc        1 23H      0.087167
     52 H14         0.1680   -2.4520    2.1170 DU        1 23H      0.160333
     53 H15         1.3990   -4.4320    2.6810 DU        1 23H      0.160333
     54 H16         3.4840   -4.3730    1.1640 DU        1 23H      0.160333
     55 H17         4.4110   -2.9880   -0.7450 ha        1 23H      0.101667
     56 H18         4.2190   -1.4070   -0.2970 ha        1 23H      0.101667
     57 H19         3.2530   -1.9990   -1.5110 ha        1 23H      0.101667
     58 H20        -2.8100   -1.6580    0.4280 ha        1 23H      0.152250
     59 H21        -3.9420   -1.4730    2.5090 ha        1 23H      0.152250
     60 H22         0.5310    0.2320    2.3780 ha        1 23H      0.144000
     61 H23        -0.7980    0.3140    4.3700 ha        1 23H      0.132000
     62 H24        -2.7550   -0.4320    5.6330 hn        1 23H      0.228000
     63 H25        -5.0890   -1.5250    6.7580 ha        1 23H      0.101667
     64 H26        -5.3310    0.0190    6.6660 ha        1 23H      0.101667
     65 H27        -6.4110   -0.9800    6.0440 ha        1 23H      0.101667
     66 H28         0.1350   -1.6980   -2.7060 h4        1 23H      0.130000
     67 H29         0.4710   -0.1510   -2.6650 h4        1 23H      0.130000
     68 H30        -3.6020    0.1450   -7.1320 ha        1 23H      0.155000
     69 H31        -2.6700   -1.4690   -8.5800 ha        1 23H      0.152250
     70 H32        -0.8320   -2.7700   -7.7610 ha        1 23H      0.152250
     71 H33         0.0390   -2.5010   -5.6060 ha        1 23H      0.143000
@<TRIPOS>BOND
     1    1    2 1   
     2    2    3 1   
     3    3    4 1   
     4    3   19 1   
     5    4    5 1   
     6    4   13 1   
     7    4   39 1   
     8    5    6 1   
     9    7    8 1   
    10    7   40 1   
    11    8    9 1   
    12    8   10 1   
    13    8   12 1   
    14    9   41 1   
    15    9   42 1   
    16    9   43 1   
    17   10   11 1   
    18   10   44 1   
    19   10   45 1   
    20   11   46 1   
    21   11   47 1   
    22   11   48 1   
    23   12   49 1   
    24   12   50 1   
    25   12   51 1   
    26   13   14 1   
    27   13   17 1   
    28   14   15 1   
    29   15   16 1   
    30   16   17 1   
    31   18   55 1   
    32   18   56 1   
    33   18   57 1   
    34   19   22 1   
    35   20   21 1   
    36   20   58 1   
    37   21   59 1   
    38   22   60 1   
    39   23   24 1   
    40   23   61 1   
    41   24   25 1   
    42   25   26 1   
    43   25   62 1   
    44   26   28 1   
    45   27   63 1   
    46   27   64 1   
    47   27   65 1   
    48   29   30 1   
    49   29   66 1   
    50   29   67 1   
    51   30   31 1   
    52   30   34 1   
    53   31   32 1   
    54   32   33 1   
    55   33   35 1   
    56   34   38 1   
    57   35   68 1   
    58   36   37 1   
    59   36   69 1   
    60   37   70 1   
    61   38   71 1   
@<TRIPOS>SUBSTRUCTURE
     1 23H         1 TEMP              0 ****  ****    0 ROOT
