@<TRIPOS>MOLECULE
23H
   74    77     1     0     0
SMALL
bcc


@<TRIPOS>ATOM
      1 O1          2.3620   -2.7160    1.1530 o         1 23H     -0.409100
      2 C1          1.9010   -1.6740    0.7220 c         1 23H      0.562100
      3 N1          1.9540   -0.4500    1.6520 n4        1 23H     -0.487600
      4 C2          3.4120   -0.0100    1.8490 c3        1 23H      0.200800
      5 C3          3.5250    1.5260    1.7020 c         1 23H      0.539100
      6 O2          2.5970    2.2550    1.3730 o         1 23H     -0.410100
      7 N2          4.8390    2.1310    2.0180 n4        1 23H     -0.675800
      8 C24         5.7620    2.4490    0.7970 c3        1 23H      0.181200
      9 C25         5.0710    3.4690   -0.0980 c3        1 23H     -0.141600
     10 C27         7.0650    3.0280    1.3930 c3        1 23H     -0.103400
     11 C28         7.9890    3.5820    0.3360 c3        1 23H     -0.104100
     12 C26         6.0490    1.1630    0.0350 c3        1 23H     -0.141600
     13 C19         4.0270   -0.4100    3.1230 cc        1 23H     -0.341600
     14 C20         3.8930    0.2410    4.3840 cd        1 23H     -0.143000
     15 C21         4.7040   -0.4520    5.3110 cd        1 23H     -0.182000
     16 C22         5.3210   -1.5190    4.6080 cc        1 23H     -0.058300
     17 N7          4.9050   -1.5010    3.2930 na        1 23H     -0.012100
     18 C23         5.3680   -2.3880    2.2670 c3        1 23H     -0.018400
     19 C11         1.1760   -0.6850    2.8780 ca        1 23H      0.004600
     20 C12         0.1600    0.2340    3.2190 ca        1 23H     -0.071500
     21 C13        -0.6470    0.0090    4.3290 ca        1 23H     -0.080500
     22 C16         1.3810   -1.8190    3.6830 ca        1 23H     -0.071500
     23 C15         0.5720   -2.0450    4.7970 ca        1 23H     -0.080500
     24 C14        -0.4500   -1.1370    5.1230 ca        1 23H      0.018600
     25 N6         -1.3080   -1.3810    6.2830 n4        1 23H     -0.583200
     26 C17        -0.7950   -0.7560    7.6110 c         1 23H      0.571100
     27 C18        -1.7120   -0.9690    8.7620 c3        1 23H     -0.194100
     28 O3          0.2710   -0.1800    7.5430 o         1 23H     -0.380100
     29 C4          1.2820   -1.5030   -0.6600 c3        1 23H     -0.029700
     30 N3          1.2990   -0.1440   -1.1530 na        1 23H      0.013900
     31 N4          2.5220    0.5400   -1.1810 nc        1 23H     -0.295400
     32 N5          2.6340    1.3000   -2.1640 nd        1 23H     -0.105400
     33 C10         1.5020    1.1380   -3.0310 ca        1 23H     -0.001600
     34 C5          0.6390    0.1590   -2.3990 ca        1 23H     -0.091200
     35 C9          1.1440    1.7280   -4.2400 ca        1 23H     -0.006000
     36 C8         -0.0670    1.3250   -4.8110 ca        1 23H     -0.115000
     37 C7         -0.8950    0.3800   -4.1970 ca        1 23H     -0.049000
     38 C6         -0.5630   -0.2210   -2.9740 ca        1 23H     -0.117000
     39 H1          3.9830   -0.4530    0.9640 hx        1 23H      0.151700
     40 H2          4.6720    3.0350    2.4870 hn        1 23H      0.476800
     41 H3          5.6940    3.6020   -1.0220 hc        1 23H      0.085867
     42 H4          4.9850    4.4630    0.4070 hc        1 23H      0.085867
     43 H5          4.0570    3.1270   -0.4200 hc        1 23H      0.085867
     44 H6          6.8230    3.8590    2.1110 hc        1 23H      0.067700
     45 H7          7.6010    2.2190    1.9590 hc        1 23H      0.067700
     46 H8          7.5340    4.4600   -0.1830 hc        1 23H      0.072033
     47 H9          8.9350    3.9260    0.8300 hc        1 23H      0.072033
     48 H10         8.2610    2.8110   -0.4250 hc        1 23H      0.072033
     49 H11         6.4800    0.3720    0.6950 hc        1 23H      0.085867
     50 H12         5.1350    0.7790   -0.4790 hc        1 23H      0.085867
     51 H13         6.8070    1.3920   -0.7620 hc        1 23H      0.085867
     52 H14         3.2670    1.1050    4.5960 ha        1 23H      0.162000
     53 H15         4.8480   -0.2210    6.3670 ha        1 23H      0.203000
     54 H16         6.0300   -2.2700    4.9820 h4        1 23H      0.221000
     55 H17         5.8430   -1.8040    1.4330 h1        1 23H      0.085367
     56 H18         6.1350   -3.0920    2.6960 h1        1 23H      0.085367
     57 H19         4.5110   -2.9930    1.8620 h1        1 23H      0.085367
     58 H20        -0.0260    1.1420    2.6140 ha        1 23H      0.193500
     59 H21        -1.4380    0.7460    4.5640 ha        1 23H      0.190000
     60 H22         2.1760   -2.5540    3.4490 ha        1 23H      0.193500
     61 H23         0.7580   -2.9510    5.4040 ha        1 23H      0.190000
     62 H24        -2.2450   -1.0000    6.0960 hn        1 23H      0.474800
     63 H25        -2.6860   -0.4360    8.6050 hc        1 23H      0.134033
     64 H26        -1.9110   -2.0580    8.9380 hc        1 23H      0.134033
     65 H27        -1.2220   -0.5450    9.6840 hc        1 23H      0.134033
     66 H28         1.8370   -2.2330   -1.3310 h1        1 23H      0.140200
     67 H29         0.2010   -1.8360   -0.5940 h1        1 23H      0.140200
     68 H30         1.7860    2.4810   -4.7280 ha        1 23H      0.185000
     69 H31        -0.3760    1.7660   -5.7760 ha        1 23H      0.185000
     70 H32        -1.8420    0.0920   -4.6890 ha        1 23H      0.179000
     71 H33        -1.2340   -0.9580   -2.5110 ha        1 23H      0.156000
     72 H111        1.4710    0.3310    1.1630 hn        1 23H      0.491800
     73 H221        5.3590    1.5120    2.6560 hn        1 23H      0.476800
     74 H62        -1.4000   -2.3950    6.4270 hn        1 23H      0.474800
@<TRIPOS>BOND
     1    1    2 2   
     2    2    3 1   
     3    2   29 1   
     4    3    4 1   
     5    3   19 1   
     6    3   72 1   
     7    4    5 1   
     8    4   13 1   
     9    4   39 1   
    10    5    6 2   
    11    5    7 1   
    12    7    8 1   
    13    7   40 1   
    14    7   73 1   
    15    8    9 1   
    16    8   10 1   
    17    8   12 1   
    18    9   41 1   
    19    9   42 1   
    20    9   43 1   
    21   10   11 1   
    22   10   44 1   
    23   10   45 1   
    24   11   46 1   
    25   11   47 1   
    26   11   48 1   
    27   12   49 1   
    28   12   50 1   
    29   12   51 1   
    30   13   14 2   
    31   13   17 1   
    32   14   15 1   
    33   14   52 1   
    34   15   16 2   
    35   15   53 1   
    36   16   17 1   
    37   16   54 1   
    38   17   18 1   
    39   18   55 1   
    40   18   56 1   
    41   18   57 1   
    42   19   20 ar  
    43   19   22 ar  
    44   20   21 ar  
    45   20   58 1   
    46   21   24 ar  
    47   21   59 1   
    48   22   23 ar  
    49   22   60 1   
    50   23   24 ar  
    51   23   61 1   
    52   24   25 1   
    53   25   26 1   
    54   25   62 1   
    55   25   74 1   
    56   26   27 1   
    57   26   28 2   
    58   27   63 1   
    59   27   64 1   
    60   27   65 1   
    61   29   30 1   
    62   29   66 1   
    63   29   67 1   
    64   30   31 1   
    65   30   34 1   
    66   31   32 2   
    67   32   33 1   
    68   33   34 ar  
    69   33   35 ar  
    70   34   38 ar  
    71   35   36 ar  
    72   35   68 1   
    73   36   37 ar  
    74   36   69 1   
    75   37   38 ar  
    76   37   70 1   
    77   38   71 1   
@<TRIPOS>SUBSTRUCTURE
     1 23H         1 TEMP              0 ****  ****    0 ROOT
