@<TRIPOS>MOLECULE
23H
   72    75     1     0     0
SMALL
bcc


@<TRIPOS>ATOM
      1 O1          0.6020   -2.4130    1.0820 o         1 23H     -0.528100
      2 C1          1.5540   -1.8250    0.5540 c         1 23H      0.656100
      3 N1          2.1270   -0.7150    1.1940 n         1 23H     -0.412000
      4 C2          3.2790   -0.0260    0.6570 c3        1 23H      0.159000
      5 C3          3.5060    1.3490    1.3410 c         1 23H      0.540100
      6 O2          3.3180    2.4250    0.7960 o         1 23H     -0.414100
      7 N2          4.0300    1.3020    2.7420 n4        1 23H     -0.679800
      8 C24         5.0130    2.4020    3.1670 c3        1 23H      0.165200
      9 C25         4.2640    3.7230    3.3450 c3        1 23H     -0.128600
     10 C27         5.6310    1.9530    4.5120 c3        1 23H     -0.105400
     11 C28         6.4970    3.0100    5.1480 c3        1 23H     -0.097100
     12 C26         6.1070    2.5580    2.1140 c3        1 23H     -0.128600
     13 C19         4.5710   -0.7750    0.7500 cc        1 23H     -0.267600
     14 C20         4.9790   -1.7270    1.7100 cd        1 23H     -0.166000
     15 C21         6.2920   -2.1530    1.3570 cd        1 23H     -0.195000
     16 C22         6.6550   -1.4570    0.1890 cc        1 23H     -0.111300
     17 N7          5.6140   -0.6160   -0.1780 na        1 23H     -0.038100
     18 C23         5.5730    0.2040   -1.3490 c3        1 23H     -0.004400
     19 C11         1.5350   -0.2240    2.3940 ca        1 23H     -0.055400
     20 C12         0.4340    0.6550    2.3400 ca        1 23H     -0.111000
     21 C13        -0.1300    1.1570    3.5050 ca        1 23H     -0.167500
     22 C16         1.9940   -0.6520    3.6590 ca        1 23H     -0.111000
     23 C15         1.4460   -0.1380    4.8240 ca        1 23H     -0.167500
     24 C14         0.3830    0.7950    4.7730 ca        1 23H      0.097600
     25 N6         -0.1730    1.3450    5.9320 n         1 23H     -0.486100
     26 C17         0.5120    1.5310    7.1360 c         1 23H      0.675100
     27 C18        -0.2940    2.0490    8.2970 c3        1 23H     -0.177100
     28 O3          1.7300    1.2890    7.2220 o         1 23H     -0.597100
     29 C4          2.1200   -2.3330   -0.7860 c3        1 23H      0.003300
     30 N3          1.5270   -1.6950   -1.9250 na        1 23H      0.021900
     31 N4          2.0360   -0.5990   -2.5710 nc        1 23H     -0.178400
     32 N5          1.3410   -0.2710   -3.5650 nd        1 23H     -0.182400
     33 C10         0.2360   -1.1690   -3.6890 ca        1 23H      0.006400
     34 C5          0.3560   -2.1130   -2.5980 ca        1 23H     -0.056200
     35 C9         -0.8220   -1.2690   -4.5980 ca        1 23H     -0.038000
     36 C8         -1.7340   -2.2990   -4.4030 ca        1 23H     -0.147000
     37 C7         -1.6130   -3.2100   -3.3380 ca        1 23H     -0.080000
     38 C6         -0.5740   -3.1390   -2.4170 ca        1 23H     -0.128000
     39 H1          3.0670    0.2400   -0.4310 h1        1 23H      0.133700
     40 H2          3.2210    1.3430    3.3830 hn        1 23H      0.470300
     41 H3          3.5390    3.6620    4.1930 hc        1 23H      0.075533
     42 H4          5.0110    4.5230    3.5770 hc        1 23H      0.075533
     43 H5          3.7240    4.0180    2.4130 hc        1 23H      0.075533
     44 H6          6.2510    1.0320    4.3380 hc        1 23H      0.064700
     45 H7          4.8110    1.6890    5.2350 hc        1 23H      0.064700
     46 H8          7.3140    3.3410    4.4630 hc        1 23H      0.057700
     47 H9          6.9670    2.5870    6.0710 hc        1 23H      0.057700
     48 H10         5.8940    3.9020    5.4470 hc        1 23H      0.057700
     49 H11         6.6840    1.6110    1.9830 hc        1 23H      0.075533
     50 H12         6.8150    3.3570    2.4510 hc        1 23H      0.075533
     51 H13         5.6800    2.8730    1.1300 hc        1 23H      0.075533
     52 H14         4.3850   -2.1030    2.5390 ha        1 23H      0.161000
     53 H15         6.9000   -2.8880    1.8800 ha        1 23H      0.178000
     54 H16         7.5770   -1.5100   -0.3960 h4        1 23H      0.191000
     55 H17         4.7960   -0.1790   -2.0670 h1        1 23H      0.073367
     56 H18         5.3160    1.2620   -1.0660 h1        1 23H      0.073367
     57 H19         6.5750    0.1910   -1.8540 h1        1 23H      0.073367
     58 H20         0.0020    0.9470    1.3670 ha        1 23H      0.155000
     59 H21        -0.9960    1.8350    3.4260 ha        1 23H      0.168000
     60 H22         2.7730   -1.4280    3.7360 ha        1 23H      0.155000
     61 H23         1.8350   -0.4780    5.8000 ha        1 23H      0.168000
     62 H24        -1.1160    1.6590    5.8710 hn        1 23H      0.333500
     63 H25        -0.7590    3.0340    8.0520 hc        1 23H      0.081700
     64 H26         0.3870    2.1770    9.1750 hc        1 23H      0.081700
     65 H27        -1.0990    1.3220    8.5670 hc        1 23H      0.081700
     66 H28         3.2410   -2.2170   -0.8080 h1        1 23H      0.102200
     67 H29         1.8660   -3.4350   -0.8290 h1        1 23H      0.102200
     68 H30        -0.9200   -0.5590   -5.4310 ha        1 23H      0.162000
     69 H31        -2.5790   -2.4090   -5.1010 ha        1 23H      0.151000
     70 H32        -2.3680   -4.0060   -3.2310 ha        1 23H      0.150000
     71 H33        -0.4930   -3.8490   -1.5820 ha        1 23H      0.156000
     72 H221        4.4970    0.3910    2.8700 hn        1 23H      0.470300
@<TRIPOS>BOND
     1    1    2 2   
     2    2    3 1   
     3    2   29 1   
     4    3    4 1   
     5    3   19 1   
     6    4    5 1   
     7    4   13 1   
     8    4   39 1   
     9    5    6 2   
    10    5    7 1   
    11    7    8 1   
    12    7   40 1   
    13    7   72 1   
    14    8    9 1   
    15    8   10 1   
    16    8   12 1   
    17    9   41 1   
    18    9   42 1   
    19    9   43 1   
    20   10   11 1   
    21   10   44 1   
    22   10   45 1   
    23   11   46 1   
    24   11   47 1   
    25   11   48 1   
    26   12   49 1   
    27   12   50 1   
    28   12   51 1   
    29   13   14 2   
    30   13   17 1   
    31   14   15 1   
    32   14   52 1   
    33   15   16 2   
    34   15   53 1   
    35   16   17 1   
    36   16   54 1   
    37   17   18 1   
    38   18   55 1   
    39   18   56 1   
    40   18   57 1   
    41   19   20 ar  
    42   19   22 ar  
    43   20   21 ar  
    44   20   58 1   
    45   21   24 ar  
    46   21   59 1   
    47   22   23 ar  
    48   22   60 1   
    49   23   24 ar  
    50   23   61 1   
    51   24   25 1   
    52   25   26 1   
    53   25   62 1   
    54   26   27 1   
    55   26   28 2   
    56   27   63 1   
    57   27   64 1   
    58   27   65 1   
    59   29   30 1   
    60   29   66 1   
    61   29   67 1   
    62   30   31 1   
    63   30   34 1   
    64   31   32 2   
    65   32   33 1   
    66   33   34 ar  
    67   33   35 ar  
    68   34   38 ar  
    69   35   36 ar  
    70   35   68 1   
    71   36   37 ar  
    72   36   69 1   
    73   37   38 ar  
    74   37   70 1   
    75   38   71 1   
@<TRIPOS>SUBSTRUCTURE
     1 23H         1 TEMP              0 ****  ****    0 ROOT
