@<TRIPOS>MOLECULE
23H
   72    75     1     0     0
SMALL
bcc


@<TRIPOS>ATOM
      1 O1          0.6330   -2.4200    1.0030 o         1 23H     -0.528100
      2 C1          1.5590   -1.7880    0.4800 c         1 23H      0.656100
      3 N1          2.1300   -0.7010    1.1590 n         1 23H     -0.412000
      4 C2          3.2540    0.0360    0.6270 c3        1 23H      0.159000
      5 C3          3.4770    1.3790    1.3730 c         1 23H      0.540100
      6 O2          3.2560    2.4770    0.8880 o         1 23H     -0.414100
      7 N2          4.0400    1.2720    2.7560 ny        1 23H     -0.679800
      8 C24         5.0140    2.3680    3.2090 c3        1 23H      0.165200
      9 C25         4.2470    3.6630    3.4740 c3        1 23H     -0.128600
     10 C27         5.6770    1.8640    4.5130 c3        1 23H     -0.105400
     11 C28         6.5410    2.9040    5.1790 c3        1 23H     -0.097100
     12 C26         6.0770    2.5980    2.1370 c3        1 23H     -0.128600
     13 C19         4.5610   -0.6930    0.6470 cc        1 23H     -0.267600
     14 C20         5.0120   -1.6830    1.5470 cd        1 23H     -0.166000
     15 C21         6.3230   -2.0670    1.1380 cd        1 23H     -0.195000
     16 C22         6.6410   -1.3060   -0.0030 cc        1 23H     -0.111300
     17 N7          5.5760   -0.4680   -0.2990 na        1 23H     -0.038100
     18 C23         5.4870    0.4080   -1.4270 c3        1 23H     -0.004400
     19 C11         1.5630   -0.2820    2.3980 ca        1 23H     -0.055400
     20 C12         0.4460    0.5790    2.4180 ca        1 23H     -0.111000
     21 C13        -0.0950    1.0110    3.6210 ca        1 23H     -0.167500
     22 C16         2.0640   -0.7630    3.6270 ca        1 23H     -0.111000
     23 C15         1.5390   -0.3190    4.8310 ca        1 23H     -0.167500
     24 C14         0.4590    0.5950    4.8560 ca        1 23H      0.097600
     25 N6         -0.0750    1.0750    6.0550 ns        1 23H     -0.486100
     26 C17         0.6390    1.2120    7.2480 c         1 23H      0.675100
     27 C18        -0.1440    1.6550    8.4560 c3        1 23H     -0.177100
     28 O3          1.8630    0.9890    7.2910 o         1 23H     -0.597100
     29 C4          2.0960   -2.2170   -0.8990 c3        1 23H      0.003300
     30 N3          1.4610   -1.5340   -1.9880 na        1 23H      0.021900
     31 N4          1.9330   -0.3990   -2.5920 nc        1 23H     -0.178400
     32 N5          1.2050   -0.0350   -3.5490 nd        1 23H     -0.183400
     33 C10         0.1110   -0.9440   -3.6880 ca        1 23H      0.006400
     34 C5          0.2780   -1.9390   -2.6480 ca        1 23H     -0.056200
     35 C9         -0.9700   -1.0180   -4.5700 ca        1 23H     -0.038000
     36 C8         -1.8590   -2.0720   -4.4020 ca        1 23H     -0.147000
     37 C7         -1.6930   -3.0330   -3.3870 ca        1 23H     -0.080000
     38 C6         -0.6300   -2.9890   -2.4930 ca        1 23H     -0.128000
     39 H1          3.0080    0.3510   -0.4400 h1        1 23H      0.133700
     40 H2          3.2480    1.2650    3.4190 hn        1 23H      0.470300
     41 H3          3.6760    3.9950    2.5720 hc        1 23H      0.075533
     42 H4          4.9850    4.4650    3.7260 hc        1 23H      0.075533
     43 H5          3.5470    3.5460    4.3360 hc        1 23H      0.075533
     44 H6          4.8820    1.5490    5.2440 hc        1 23H      0.064700
     45 H7          6.3080    0.9650    4.2770 hc        1 23H      0.064700
     46 H8          5.9300    3.7680    5.5380 hc        1 23H      0.057700
     47 H9          7.3330    3.2850    4.4900 hc        1 23H      0.057700
     48 H10         7.0440    2.4440    6.0660 hc        1 23H      0.057700
     49 H11         6.6660    1.6690    1.9430 hc        1 23H      0.075533
     50 H12         5.6170    2.9540    1.1820 hc        1 23H      0.075533
     51 H13         6.7790    3.3910    2.4950 hc        1 23H      0.075533
     52 H14         4.4480   -2.1110    2.3720 ha        1 23H      0.161000
     53 H15         6.9570   -2.8150    1.6070 ha        1 23H      0.178000
     54 H16         7.5470   -1.3130   -0.6140 h4        1 23H      0.191000
     55 H17         4.6980    0.0460   -2.1420 h1        1 23H      0.073367
     56 H18         5.2200    1.4450   -1.0830 h1        1 23H      0.073367
     57 H19         6.4760    0.4390   -1.9580 h1        1 23H      0.073367
     58 H20        -0.0170    0.9110    1.4730 ha        1 23H      0.155000
     59 H21        -0.9730    1.6760    3.6000 ha        1 23H      0.168000
     60 H22         2.8580   -1.5280    3.6440 ha        1 23H      0.155000
     61 H23         1.9610   -0.7010    5.7780 ha        1 23H      0.168000
     62 H24        -1.0240    1.3740    6.0350 hn        1 23H      0.333500
     63 H25        -0.9280    0.9000    8.7090 hc        1 23H      0.081700
     64 H26         0.5580    1.7510    9.3210 hc        1 23H      0.081700
     65 H27        -0.6320    2.6430    8.2730 hc        1 23H      0.081700
     66 H28         3.2140   -2.0790   -0.9460 h1        1 23H      0.102200
     67 H29         1.8600   -3.3200   -0.9910 h1        1 23H      0.102200
     68 H30        -1.1030   -0.2700   -5.3640 ha        1 23H      0.162000
     69 H31        -2.7220   -2.1620   -5.0810 ha        1 23H      0.151000
     70 H32        -2.4320   -3.8460   -3.2990 ha        1 23H      0.150000
     71 H33        -0.5140   -3.7380   -1.6970 ha        1 23H      0.156000
     72 H221        4.5260    0.3650    2.8250 hn        1 23H      0.470300
@<TRIPOS>BOND
     1    1    2 2   
     2    2    3 1   
     3    2   29 1   
     4    3    4 1   
     5    3   19 1   
     6    4    5 1   
     7    4   13 1   
     8    4   39 1   
     9    5    6 2   
    10    5    7 1   
    11    7    8 1   
    12    7   40 1   
    13    7   72 1   
    14    8    9 1   
    15    8   10 1   
    16    8   12 1   
    17    9   41 1   
    18    9   42 1   
    19    9   43 1   
    20   10   11 1   
    21   10   44 1   
    22   10   45 1   
    23   11   46 1   
    24   11   47 1   
    25   11   48 1   
    26   12   49 1   
    27   12   50 1   
    28   12   51 1   
    29   13   14 2   
    30   13   17 1   
    31   14   15 1   
    32   14   52 1   
    33   15   16 2   
    34   15   53 1   
    35   16   17 1   
    36   16   54 1   
    37   17   18 1   
    38   18   55 1   
    39   18   56 1   
    40   18   57 1   
    41   19   20 ar  
    42   19   22 ar  
    43   20   21 ar  
    44   20   58 1   
    45   21   24 ar  
    46   21   59 1   
    47   22   23 ar  
    48   22   60 1   
    49   23   24 ar  
    50   23   61 1   
    51   24   25 1   
    52   25   26 1   
    53   25   62 1   
    54   26   27 1   
    55   26   28 2   
    56   27   63 1   
    57   27   64 1   
    58   27   65 1   
    59   29   30 1   
    60   29   66 1   
    61   29   67 1   
    62   30   31 1   
    63   30   34 1   
    64   31   32 2   
    65   32   33 1   
    66   33   34 ar  
    67   33   35 ar  
    68   34   38 ar  
    69   35   36 ar  
    70   35   68 1   
    71   36   37 ar  
    72   36   69 1   
    73   37   38 ar  
    74   37   70 1   
    75   38   71 1   
@<TRIPOS>SUBSTRUCTURE
     1 23H         1 TEMP              0 ****  ****    0 ROOT
