@<TRIPOS>MOLECULE
23H
   71    74     1     0     0
SMALL
bcc


@<TRIPOS>ATOM
      1 O1         -2.0770   -1.0100    0.9840 o         1 23H     -0.553100
      2 C1         -1.7230    0.0490    0.4430 c         1 23H      0.639100
      3 N1         -0.3600    0.3670    0.2950 n         1 23H     -0.377000
      4 C2          0.0230    1.5490   -0.4590 c3        1 23H      0.114000
      5 C3          1.4770    2.0410   -0.1790 c         1 23H      0.656100
      6 O2          2.1380    2.5450   -1.1070 o         1 23H     -0.602100
      7 N2          1.9050    2.0390    1.1280 n         1 23H     -0.547900
      8 C24         3.2680    2.4200    1.5240 c3        1 23H      0.123400
      9 C25         4.3290    1.6300    0.7410 c3        1 23H     -0.112600
     10 C27         3.4750    3.9360    1.2860 c3        1 23H     -0.088400
     11 C28         4.8470    4.4340    1.6570 c3        1 23H     -0.091100
     12 C26         3.4590    2.1160    3.0210 c3        1 23H     -0.112600
     13 C19        -0.2030    1.4200   -1.9380 cc        1 23H     -0.171600
     14 C20        -0.3250    0.2470   -2.7080 cd        1 23H     -0.172000
     15 C21        -0.5570    0.6430   -4.0620 cd        1 23H     -0.203000
     16 C22        -0.5690    2.0460   -4.0860 cc        1 23H     -0.145300
     17 N7         -0.3680    2.5200   -2.7930 na        1 23H     -0.038100
     18 C23        -0.2400    3.8970   -2.4360 c3        1 23H      0.008600
     19 C11         0.6220   -0.6370    0.5430 ca        1 23H     -0.006400
     20 C12         0.5570   -1.4150    1.7190 ca        1 23H     -0.112500
     21 C13         1.5160   -2.3810    1.9830 ca        1 23H     -0.161500
     22 C16         1.6870   -0.8690   -0.3500 ca        1 23H     -0.112500
     23 C15         2.6560   -1.8270   -0.0820 ca        1 23H     -0.161500
     24 C14         2.5900   -2.6100    1.0890 ca        1 23H      0.065600
     25 N6          3.5240   -3.6070    1.4060 n         1 23H     -0.474100
     26 C17         4.7170   -3.8910    0.7500 c         1 23H      0.665100
     27 C18         5.5190   -5.0430    1.3120 c3        1 23H     -0.179100
     28 O3          5.1190   -3.2510   -0.2370 o         1 23H     -0.585100
     29 C4         -2.7480    1.0910   -0.0370 c3        1 23H     -0.012700
     30 N3         -4.1270    0.7050    0.1120 na        1 23H      0.050900
     31 N4         -4.7620    0.6140    1.3290 nc        1 23H     -0.122400
     32 N5         -5.8230   -0.0520    1.2640 nd        1 23H     -0.196400
     33 C10        -5.9800   -0.5700   -0.0640 ca        1 23H      0.014400
     34 C5         -4.8380   -0.0970   -0.8180 ca        1 23H     -0.063200
     35 C9         -6.9580   -1.3510   -0.6770 ca        1 23H     -0.045000
     36 C8         -6.7830   -1.6580   -2.0230 ca        1 23H     -0.155000
     37 C7         -5.6720   -1.1980   -2.7490 ca        1 23H     -0.095000
     38 C6         -4.6830   -0.4100   -2.1690 ca        1 23H     -0.126000
     39 H1         -0.6220    2.4070   -0.0780 h1        1 23H      0.069700
     40 H2          1.4130    1.4840    1.7900 hn        1 23H      0.319500
     41 H3          4.3420    1.9580   -0.3270 hc        1 23H      0.048200
     42 H4          5.3350    1.8090    1.1890 hc        1 23H      0.048200
     43 H5          4.1160    0.5340    0.7780 hc        1 23H      0.048200
     44 H6          3.2930    4.1510    0.1980 hc        1 23H      0.053700
     45 H7          2.7090    4.5020    1.8800 hc        1 23H      0.053700
     46 H8          5.0600    4.2800    2.7430 hc        1 23H      0.034700
     47 H9          5.6390    3.9180    1.0630 hc        1 23H      0.034700
     48 H10         4.9130    5.5300    1.4450 hc        1 23H      0.034700
     49 H11         3.2650    1.0370    3.2370 hc        1 23H      0.048200
     50 H12         4.5130    2.3420    3.3090 hc        1 23H      0.048200
     51 H13         2.7760    2.7410    3.6440 hc        1 23H      0.048200
     52 H14        -0.2550   -0.7740   -2.3410 ha        1 23H      0.161000
     53 H15        -0.6920   -0.0170   -4.9120 ha        1 23H      0.155000
     54 H16        -0.7050    2.7300   -4.9240 h4        1 23H      0.168000
     55 H17         0.7950    4.1000   -2.0420 h1        1 23H      0.059700
     56 H18        -0.4240    4.5370   -3.3380 h1        1 23H      0.059700
     57 H19        -0.9910    4.1570   -1.6420 h1        1 23H      0.059700
     58 H20        -0.2760   -1.2830    2.4300 ha        1 23H      0.160500
     59 H21         1.4210   -2.9750    2.9060 ha        1 23H      0.156000
     60 H22         1.7720   -0.2800   -1.2820 ha        1 23H      0.160500
     61 H23         3.4780   -1.9660   -0.8060 ha        1 23H      0.156000
     62 H24         3.3020   -4.1640    2.2010 hn        1 23H      0.315500
     63 H25         4.9330   -5.9920    1.2610 hc        1 23H      0.069367
     64 H26         6.4490   -5.1580    0.7020 hc        1 23H      0.069367
     65 H27         5.8050   -4.8450    2.3730 hc        1 23H      0.069367
     66 H28        -2.5910    2.0400    0.5540 h1        1 23H      0.097700
     67 H29        -2.5710    1.2890   -1.1350 h1        1 23H      0.097700
     68 H30        -7.8320   -1.7090   -0.1140 ha        1 23H      0.153000
     69 H31        -7.5330   -2.2790   -2.5350 ha        1 23H      0.138000
     70 H32        -5.5800   -1.4730   -3.8120 ha        1 23H      0.138000
     71 H33        -3.8190   -0.0560   -2.7480 ha        1 23H      0.150000
@<TRIPOS>BOND
     1    1    2 2   
     2    2    3 1   
     3    2   29 1   
     4    3    4 1   
     5    3   19 1   
     6    4    5 1   
     7    4   13 1   
     8    4   39 1   
     9    5    6 2   
    10    5    7 1   
    11    7    8 1   
    12    7   40 1   
    13    8    9 1   
    14    8   10 1   
    15    8   12 1   
    16    9   41 1   
    17    9   42 1   
    18    9   43 1   
    19   10   11 1   
    20   10   44 1   
    21   10   45 1   
    22   11   46 1   
    23   11   47 1   
    24   11   48 1   
    25   12   49 1   
    26   12   50 1   
    27   12   51 1   
    28   13   14 2   
    29   13   17 1   
    30   14   15 1   
    31   14   52 1   
    32   15   16 2   
    33   15   53 1   
    34   16   17 1   
    35   16   54 1   
    36   17   18 1   
    37   18   55 1   
    38   18   56 1   
    39   18   57 1   
    40   19   20 ar  
    41   19   22 ar  
    42   20   21 ar  
    43   20   58 1   
    44   21   24 ar  
    45   21   59 1   
    46   22   23 ar  
    47   22   60 1   
    48   23   24 ar  
    49   23   61 1   
    50   24   25 1   
    51   25   26 1   
    52   25   62 1   
    53   26   27 1   
    54   26   28 2   
    55   27   63 1   
    56   27   64 1   
    57   27   65 1   
    58   29   30 1   
    59   29   66 1   
    60   29   67 1   
    61   30   31 1   
    62   30   34 1   
    63   31   32 2   
    64   32   33 1   
    65   33   34 ar  
    66   33   35 ar  
    67   34   38 ar  
    68   35   36 ar  
    69   35   68 1   
    70   36   37 ar  
    71   36   69 1   
    72   37   38 ar  
    73   37   70 1   
    74   38   71 1   
@<TRIPOS>SUBSTRUCTURE
     1 23H         1 TEMP              0 ****  ****    0 ROOT
