@<TRIPOS>MOLECULE
23J
   17    17     1     0     0
SMALL
bcc


@<TRIPOS>ATOM
      1 C01         0.0340   -0.0930    0.0230 ca        1 23J     -0.158000
      2 C02         1.3970    0.2010    0.0640 ca        1 23J     -0.127000
      3 C03         2.0470    0.3000    1.2890 ca        1 23J     -0.174000
      4 C04         1.3540    0.0970    2.4910 ca        1 23J      0.038900
      5 C05        -0.0170   -0.2000    2.4500 ca        1 23J     -0.117600
      6 C06        -0.6670   -0.2840    1.2100 ca        1 23J     -0.083000
      7 C07        -0.8640   -0.4080    3.6660 c         1 23J      0.462700
      8 O08        -0.5590   -1.2380    4.5280 o         1 23J     -0.558100
      9 C09        -2.1690    0.4190    3.6980 c         1 23J      0.867600
     10 O10        -2.2020    1.4320    4.4380 o         1 23J     -0.805300
     11 O11        -3.1010    0.0040    2.9560 o         1 23J     -0.805300
     12 S12         2.1640    0.2060    3.9840 sh        1 23J     -0.213700
     13 H1         -0.4870   -0.1630   -0.9410 ha        1 23J      0.119000
     14 H2          1.9570    0.3600   -0.8680 ha        1 23J      0.110000
     15 H3          3.1210    0.5390    1.3110 ha        1 23J      0.110000
     16 H4         -1.7580   -0.4780    1.2060 ha        1 23J      0.187000
     17 H6          3.3080    0.7070    3.5610 hs        1 23J      0.145800
@<TRIPOS>BOND
     1    1    2 ar  
     2    1    6 ar  
     3    1   13 1   
     4    2    3 ar  
     5    2   14 1   
     6    3    4 ar  
     7    3   15 1   
     8    4    5 ar  
     9    4   12 1   
    10    5    6 ar  
    11    5    7 1   
    12    6   16 1   
    13    7    8 2   
    14    7    9 1   
    15    9   10 1   
    16    9   11 1   
    17   12   17 1   
@<TRIPOS>SUBSTRUCTURE
     1 23J         1 TEMP              0 ****  ****    0 ROOT
