@<TRIPOS>MOLECULE
23K
   76    78     1     0     0
SMALL
bcc


@<TRIPOS>ATOM
      1 C1          1.4680   -0.6530   -0.5140 ca        1 23K     -0.185000
      2 C2          2.3930    0.3400   -0.1110 ca        1 23K      0.248900
      3 C3          2.6600    0.5290    1.2550 ca        1 23K     -0.199000
      4 C4          2.0180   -0.2510    2.2240 ca        1 23K      0.104700
      5 C5          1.0930   -1.2410    1.8360 ca        1 23K     -0.464500
      6 C6          0.8470   -1.4120    0.4540 ca        1 23K     -0.003000
      7 F7          3.0110    1.0950   -1.0340 f         1 23K     -0.088900
      8 C8          2.4150    0.0140    3.6400 c3        1 23K     -0.079100
      9 S9          0.1810   -2.1700    2.8390 sy        1 23K      1.548200
     10 N10         1.1050   -2.5160    4.1460 n3        1 23K     -0.814500
     11 O11        -1.0210   -1.5740    3.2440 o         1 23K     -0.714800
     12 O12        -0.1150   -3.4480    2.2000 o         1 23K     -0.714800
     13 C13         2.0080   -3.6210    4.2760 c3        1 23K      0.219800
     14 C14         1.1600   -1.5120    5.1970 c3        1 23K      0.193800
     15 C15         1.2940   -0.0720    4.6680 c3        1 23K     -0.102700
     16 C16         1.5630    0.8870    5.8370 c3        1 23K     -0.054700
     17 C17         1.4410   -4.9940    3.8470 c3        1 23K      0.101100
     18 C18         0.0750   -5.3060    4.5110 c3        1 23K      0.115500
     19 O19         2.3280   -6.0580    4.1080 oh        1 23K     -0.607800
     20 N20        -0.4910   -6.6020    3.9290 ny        1 23K     -0.657800
     21 C21         0.2060   -5.4240    6.0360 c3        1 23K     -0.050100
     22 C22        -1.0340   -5.9320    6.6780 ca        1 23K     -0.186300
     23 C23        -1.1090   -7.2700    7.0940 ca        1 23K     -0.136000
     24 C24        -2.2490   -7.7350    7.7470 ca        1 23K     -0.106500
     25 C25        -3.3180   -6.8710    7.9930 ca        1 23K     -0.084000
     26 C26        -3.2440   -5.5380    7.5850 ca        1 23K     -0.106500
     27 C27        -2.1060   -5.0680    6.9320 ca        1 23K     -0.136000
     28 C28        -1.5560   -6.3620    2.9140 c         1 23K      0.513100
     29 N29        -1.1830   -5.8500    1.5790 ny        1 23K     -0.655800
     30 O30        -2.7220   -6.5920    3.2070 o         1 23K     -0.328100
     31 C31        -1.1430   -6.9680    0.5000 c3        1 23K      0.175200
     32 C32        -0.4690   -6.3760   -0.7380 c3        1 23K     -0.145100
     33 C33        -0.3350   -8.1490    1.0250 c3        1 23K     -0.145100
     34 C34         1.2960    2.3200    5.4150 c3        1 23K     -0.101100
     35 C35         0.7130    0.5650    7.0500 c3        1 23K     -0.101100
     36 C36        -2.5690   -7.3960    0.1640 c3        1 23K     -0.145100
     37 H1          1.2540   -0.7950   -1.5850 ha        1 23K      0.179000
     38 H2          3.3810    1.3090    1.5530 ha        1 23K      0.181000
     39 H3          0.1200   -2.1830    0.1370 ha        1 23K      0.139000
     40 H4          3.2390   -0.7050    3.9110 hc        1 23K      0.086200
     41 H5          2.8740    1.0420    3.6950 hc        1 23K      0.086200
     42 H6          2.3500   -3.7120    5.3490 h1        1 23K      0.080700
     43 H7          2.9320   -3.4540    3.6430 h1        1 23K      0.080700
     44 H8          2.0280   -1.7130    5.8870 h1        1 23K      0.075200
     45 H9          0.2060   -1.5930    5.7970 h1        1 23K      0.075200
     46 H10         0.3170    0.2410    4.1960 hc        1 23K      0.087700
     47 H11         2.6480    0.7900    6.1260 hc        1 23K      0.056700
     48 H12         1.3370   -4.9980    2.7190 h1        1 23K      0.085700
     49 H13        -0.6710   -4.4920    4.2620 hx        1 23K      0.124700
     50 H14         2.9100   -5.8300    4.8490 ho        1 23K      0.452000
     51 H15        -0.9340   -7.1370    4.7150 hn        1 23K      0.501800
     52 H16         1.0810   -6.0820    6.2920 hc        1 23K      0.098700
     53 H17         0.4350   -4.3860    6.4120 hc        1 23K      0.098700
     54 H18        -0.2470   -7.9420    6.9630 ha        1 23K      0.139000
     55 H19        -2.2980   -8.7820    8.0910 ha        1 23K      0.166500
     56 H20        -4.2130   -7.2370    8.5230 ha        1 23K      0.171000
     57 H21        -4.0800   -4.8500    7.7950 ha        1 23K      0.166500
     58 H22        -2.0430   -4.0080    6.6380 ha        1 23K      0.139000
     59 H23        -1.8950   -5.1480    1.3050 hn        1 23K      0.512300
     60 H24        -1.0250   -5.4870   -1.1270 hc        1 23K      0.090256
     61 H25         0.5930   -6.0920   -0.5360 hc        1 23K      0.090256
     62 H26        -0.4730   -7.1600   -1.5400 hc        1 23K      0.090256
     63 H27         0.7050   -7.8540    1.3080 hc        1 23K      0.090256
     64 H28        -0.2530   -8.9080    0.2000 hc        1 23K      0.090256
     65 H29        -0.8460   -8.6490    1.8830 hc        1 23K      0.090256
     66 H30         1.5600    3.0140    6.2510 hc        1 23K      0.047867
     67 H31         1.9020    2.6070    4.5240 hc        1 23K      0.047867
     68 H32         0.2150    2.4620    5.1690 hc        1 23K      0.047867
     69 H33        -0.3650    0.4840    6.7690 hc        1 23K      0.047867
     70 H34         0.8140    1.3810    7.8070 hc        1 23K      0.047867
     71 H35         1.0370   -0.3880    7.5310 hc        1 23K      0.047867
     72 H36        -2.5170   -8.2270   -0.5870 hc        1 23K      0.090256
     73 H37        -3.1510   -6.5580   -0.2940 hc        1 23K      0.090256
     74 H38        -3.1140   -7.7750    1.0630 hc        1 23K      0.090256
     75 H202        0.2830   -7.1620    3.5380 hn        1 23K      0.501800
     76 H292       -0.2700   -5.3490    1.5910 hn        1 23K      0.512300
@<TRIPOS>BOND
     1    1    2 ar  
     2    1    6 ar  
     3    1   37 1   
     4    2    3 ar  
     5    2    7 1   
     6    3    4 ar  
     7    3   38 1   
     8    4    5 ar  
     9    4    8 1   
    10    5    6 ar  
    11    5    9 1   
    12    6   39 1   
    13    8   15 1   
    14    8   40 1   
    15    8   41 1   
    16    9   10 1   
    17    9   11 2   
    18    9   12 2   
    19   10   13 1   
    20   10   14 1   
    21   13   17 1   
    22   13   42 1   
    23   13   43 1   
    24   14   15 1   
    25   14   44 1   
    26   14   45 1   
    27   15   16 1   
    28   15   46 1   
    29   16   34 1   
    30   16   35 1   
    31   16   47 1   
    32   17   18 1   
    33   17   19 1   
    34   17   48 1   
    35   18   20 1   
    36   18   21 1   
    37   18   49 1   
    38   19   50 1   
    39   20   28 1   
    40   20   51 1   
    41   20   75 1   
    42   21   22 1   
    43   21   52 1   
    44   21   53 1   
    45   22   23 ar  
    46   22   27 ar  
    47   23   24 ar  
    48   23   54 1   
    49   24   25 ar  
    50   24   55 1   
    51   25   26 ar  
    52   25   56 1   
    53   26   27 ar  
    54   26   57 1   
    55   27   58 1   
    56   28   29 1   
    57   28   30 2   
    58   29   31 1   
    59   29   59 1   
    60   29   76 1   
    61   31   32 1   
    62   31   33 1   
    63   31   36 1   
    64   32   60 1   
    65   32   61 1   
    66   32   62 1   
    67   33   63 1   
    68   33   64 1   
    69   33   65 1   
    70   34   66 1   
    71   34   67 1   
    72   34   68 1   
    73   35   69 1   
    74   35   70 1   
    75   35   71 1   
    76   36   72 1   
    77   36   73 1   
    78   36   74 1   
@<TRIPOS>SUBSTRUCTURE
     1 23K         1 TEMP              0 ****  ****    0 ROOT
