@<TRIPOS>MOLECULE
23K
   76    78     1     0     0
SMALL
bcc


@<TRIPOS>ATOM
      1 C1          1.4090   -0.6680   -0.5420 ca        1 23K     -0.185000
      2 C2          2.3200    0.3410   -0.1500 ca        1 23K      0.248900
      3 C3          2.5900    0.5450    1.2130 ca        1 23K     -0.199000
      4 C4          1.9630   -0.2360    2.1910 ca        1 23K      0.104700
      5 C5          1.0500   -1.2420    1.8140 ca        1 23K     -0.464500
      6 C6          0.8020   -1.4280    0.4340 ca        1 23K     -0.003000
      7 F7          2.9240    1.0980   -1.0810 f         1 23K     -0.088900
      8 C8          2.3600    0.0460    3.6030 c3        1 23K     -0.079100
      9 S9          0.1550   -2.1760    2.8280 sy        1 23K      1.548200
     10 N10         1.0890   -2.4980    4.1340 n3        1 23K     -0.814500
     11 O11        -1.0540   -1.5940    3.2320 o         1 23K     -0.714800
     12 O12        -0.1240   -3.4630    2.2000 o         1 23K     -0.714800
     13 C13         2.0080   -3.5880    4.2700 c3        1 23K      0.219800
     14 C14         1.1320   -1.4840    5.1770 c3        1 23K      0.192800
     15 C15         1.2440   -0.0460    4.6350 c3        1 23K     -0.102700
     16 C16         1.5030    0.9260    5.7950 c3        1 23K     -0.054700
     17 C17         1.4610   -4.9730    3.8530 c3        1 23K      0.101100
     18 C18         0.1020   -5.3000    4.5250 c3        1 23K      0.115500
     19 O19         2.3650   -6.0210    4.1210 oh        1 23K     -0.607800
     20 N20        -0.4470   -6.6090    3.9550 n4        1 23K     -0.657800
     21 C21         0.2390   -5.4040    6.0500 c3        1 23K     -0.050100
     22 C22        -0.9910   -5.9260    6.7000 ca        1 23K     -0.186300
     23 C23        -1.0450   -7.2610    7.1270 ca        1 23K     -0.136000
     24 C24        -2.1750   -7.7390    7.7870 ca        1 23K     -0.106500
     25 C25        -3.2570   -6.8890    8.0290 ca        1 23K     -0.084000
     26 C26        -3.2040   -5.5580    7.6120 ca        1 23K     -0.106500
     27 C27        -2.0750   -5.0760    6.9510 ca        1 23K     -0.136000
     28 C28        -1.5180   -6.3940    2.9410 c         1 23K      0.513100
     29 N29        -1.1570   -5.8860    1.6010 n4        1 23K     -0.655800
     30 O30        -2.6790   -6.6380    3.2400 o         1 23K     -0.328100
     31 C31        -1.1030   -7.0120    0.5310 c3        1 23K      0.175200
     32 C32        -0.4420   -6.4190   -0.7140 c3        1 23K     -0.145100
     33 C33        -0.2760   -8.1760    1.0620 c3        1 23K     -0.145100
     34 C34         1.2140    2.3520    5.3620 c3        1 23K     -0.101100
     35 C35         0.6610    0.6020    7.0130 c3        1 23K     -0.101100
     36 C36        -2.5230   -7.4640    0.2020 c3        1 23K     -0.145100
     37 H1          1.1930   -0.8220   -1.6110 ha        1 23K      0.179000
     38 H2          3.3010    1.3380    1.5020 ha        1 23K      0.181000
     39 H3          0.0860   -2.2110    0.1260 ha        1 23K      0.139000
     40 H4          3.1960   -0.6580    3.8770 hc        1 23K      0.086200
     41 H5          2.8050    1.0810    3.6480 hc        1 23K      0.086200
     42 H6          2.3540   -3.6650    5.3440 h1        1 23K      0.080700
     43 H7          2.9280   -3.4120    3.6340 h1        1 23K      0.080700
     44 H8          0.1820   -1.5730    5.7810 h1        1 23K      0.075200
     45 H9          2.0050   -1.6670    5.8660 h1        1 23K      0.075200
     46 H10         0.2610    0.2480    4.1640 hc        1 23K      0.087700
     47 H11         2.5900    0.8460    6.0820 hc        1 23K      0.056700
     48 H12         1.3530   -4.9870    2.7270 h1        1 23K      0.085700
     49 H13        -0.6570   -4.5000    4.2720 hx        1 23K      0.124700
     50 H14         2.9450   -5.7780    4.8580 ho        1 23K      0.452000
     51 H15         0.3350   -7.1600    3.5660 hn        1 23K      0.501800
     52 H16         0.4540   -4.3600    6.4170 hc        1 23K      0.098700
     53 H17         1.1250   -6.0460    6.3090 hc        1 23K      0.098700
     54 H18        -0.1730   -7.9220    6.9980 ha        1 23K      0.139000
     55 H19        -2.2070   -8.7840    8.1390 ha        1 23K      0.166500
     56 H20        -4.1440   -7.2650    8.5660 ha        1 23K      0.171000
     57 H21        -4.0500   -4.8810    7.8190 ha        1 23K      0.166500
     58 H22        -2.0290   -4.0180    6.6490 ha        1 23K      0.139000
     59 H23        -1.8800   -5.1970    1.3240 hn        1 23K      0.512300
     60 H24        -0.4360   -7.2090   -1.5100 hc        1 23K      0.090256
     61 H25         0.6160   -6.1180   -0.5180 hc        1 23K      0.090256
     62 H26        -1.0130   -5.5430   -1.1080 hc        1 23K      0.090256
     63 H27        -0.7760   -8.6770    1.9260 hc        1 23K      0.090256
     64 H28        -0.1850   -8.9400    0.2430 hc        1 23K      0.090256
     65 H29         0.7610   -7.8640    1.3390 hc        1 23K      0.090256
     66 H30         0.1310    2.4750    5.1180 hc        1 23K      0.047867
     67 H31         1.4700    3.0560    6.1920 hc        1 23K      0.047867
     68 H32         1.8140    2.6390    4.4670 hc        1 23K      0.047867
     69 H33         0.7530    1.4260    7.7640 hc        1 23K      0.047867
     70 H34        -0.4170    0.5030    6.7370 hc        1 23K      0.047867
     71 H35         1.0000   -0.3430    7.5020 hc        1 23K      0.047867
     72 H36        -3.0600   -7.8450    1.1060 hc        1 23K      0.090256
     73 H37        -3.1190   -6.6380   -0.2600 hc        1 23K      0.090256
     74 H38        -2.4610   -8.3010   -0.5420 hc        1 23K      0.090256
     75 H202       -0.8780   -7.1440    4.7460 hn        1 23K      0.501800
     76 H292       -0.2520   -5.3720    1.6070 hn        1 23K      0.512300
@<TRIPOS>BOND
     1    1    2 ar  
     2    1    6 ar  
     3    1   37 1   
     4    2    3 ar  
     5    2    7 1   
     6    3    4 ar  
     7    3   38 1   
     8    4    5 ar  
     9    4    8 1   
    10    5    6 ar  
    11    5    9 1   
    12    6   39 1   
    13    8   15 1   
    14    8   40 1   
    15    8   41 1   
    16    9   10 1   
    17    9   11 2   
    18    9   12 2   
    19   10   13 1   
    20   10   14 1   
    21   13   17 1   
    22   13   42 1   
    23   13   43 1   
    24   14   15 1   
    25   14   44 1   
    26   14   45 1   
    27   15   16 1   
    28   15   46 1   
    29   16   34 1   
    30   16   35 1   
    31   16   47 1   
    32   17   18 1   
    33   17   19 1   
    34   17   48 1   
    35   18   20 1   
    36   18   21 1   
    37   18   49 1   
    38   19   50 1   
    39   20   28 1   
    40   20   51 1   
    41   20   75 1   
    42   21   22 1   
    43   21   52 1   
    44   21   53 1   
    45   22   23 ar  
    46   22   27 ar  
    47   23   24 ar  
    48   23   54 1   
    49   24   25 ar  
    50   24   55 1   
    51   25   26 ar  
    52   25   56 1   
    53   26   27 ar  
    54   26   57 1   
    55   27   58 1   
    56   28   29 1   
    57   28   30 2   
    58   29   31 1   
    59   29   59 1   
    60   29   76 1   
    61   31   32 1   
    62   31   33 1   
    63   31   36 1   
    64   32   60 1   
    65   32   61 1   
    66   32   62 1   
    67   33   63 1   
    68   33   64 1   
    69   33   65 1   
    70   34   66 1   
    71   34   67 1   
    72   34   68 1   
    73   35   69 1   
    74   35   70 1   
    75   35   71 1   
    76   36   72 1   
    77   36   73 1   
    78   36   74 1   
@<TRIPOS>SUBSTRUCTURE
     1 23K         1 TEMP              0 ****  ****    0 ROOT
