@<TRIPOS>MOLECULE
23K
   76    78     1     0     0
SMALL
bcc


@<TRIPOS>ATOM
      1 C1          1.3690   -0.6320   -0.5020 ca        1 23K     -0.185000
      2 C2          2.3010    0.3610   -0.1140 ca        1 23K      0.248900
      3 C3          2.5960    0.5440    1.2470 ca        1 23K     -0.199000
      4 C4          1.9760   -0.2410    2.2250 ca        1 23K      0.104700
      5 C5          1.0430   -1.2300    1.8520 ca        1 23K     -0.464500
      6 C6          0.7680   -1.3950    0.4750 ca        1 23K     -0.003000
      7 F7          2.9000    1.1210   -1.0460 f         1 23K     -0.088900
      8 C8          2.4010    0.0180    3.6350 c3        1 23K     -0.079100
      9 S9          0.1520   -2.1640    2.8700 sy        1 23K      1.548200
     10 N10         1.1040   -2.5140    4.1560 n3        1 23K     -0.814500
     11 O11        -1.0410   -1.5710    3.3010 o         1 23K     -0.714800
     12 O12        -0.1550   -3.4400    2.2310 o         1 23K     -0.714800
     13 C13         2.0110   -3.6180    4.2620 c3        1 23K      0.219800
     14 C14         1.1790   -1.5150    5.2100 c3        1 23K      0.192800
     15 C15         1.3010   -0.0720    4.6840 c3        1 23K     -0.102700
     16 C16         1.5930    0.8820    5.8510 c3        1 23K     -0.054700
     17 C17         1.4390   -4.9900    3.8370 c3        1 23K      0.101100
     18 C18         0.0880   -5.3100    4.5270 c3        1 23K      0.115500
     19 O19         2.3350   -6.0530    4.0740 oh        1 23K     -0.607800
     20 N20        -0.4870   -6.6040    3.9490 n4        1 23K     -0.657800
     21 C21         0.2500   -5.4370    6.0480 c3        1 23K     -0.050100
     22 C22        -0.9740   -5.9540    6.7130 ca        1 23K     -0.186300
     23 C23        -1.0360   -7.2940    7.1220 ca        1 23K     -0.136000
     24 C24        -2.1610   -7.7680    7.7950 ca        1 23K     -0.106500
     25 C25        -3.2280   -6.9090    8.0680 ca        1 23K     -0.084000
     26 C26        -3.1670   -5.5730    7.6680 ca        1 23K     -0.106500
     27 C27        -2.0440   -5.0950    6.9940 ca        1 23K     -0.136000
     28 C28        -1.5730   -6.3610    2.9580 c         1 23K      0.513100
     29 N29        -1.2280   -5.8410    1.6180 n4        1 23K     -0.655800
     30 O30        -2.7320   -6.5950    3.2740 o         1 23K     -0.328100
     31 C31        -1.2090   -6.9520    0.5320 c3        1 23K      0.175200
     32 C32        -0.5610   -6.3520   -0.7160 c3        1 23K     -0.145100
     33 C33        -0.3880   -8.1340    1.0330 c3        1 23K     -0.145100
     34 C34         1.3170    2.3170    5.4410 c3        1 23K     -0.101100
     35 C35         0.7680    0.5540    7.0800 c3        1 23K     -0.101100
     36 C36        -2.6400   -7.3810    0.2230 c3        1 23K     -0.145100
     37 H1          1.1330   -0.7680   -1.5700 ha        1 23K      0.179000
     38 H2          3.3240    1.3230    1.5340 ha        1 23K      0.181000
     39 H3          0.0360   -2.1640    0.1700 ha        1 23K      0.139000
     40 H4          2.8610    1.0460    3.6840 hc        1 23K      0.086200
     41 H5          3.2310   -0.7010    3.8850 hc        1 23K      0.086200
     42 H6          2.9230   -3.4460    3.6130 h1        1 23K      0.080700
     43 H7          2.3730   -3.7140    5.3290 h1        1 23K      0.080700
     44 H8          2.0600   -1.7180    5.8820 h1        1 23K      0.075200
     45 H9          0.2370   -1.5980    5.8290 h1        1 23K      0.075200
     46 H10         0.3150    0.2420    4.2340 hc        1 23K      0.087700
     47 H11         2.6840    0.7840    6.1180 hc        1 23K      0.056700
     48 H12         1.3120   -4.9870    2.7120 h1        1 23K      0.085700
     49 H13        -0.6650   -4.4970    4.2990 hx        1 23K      0.124700
     50 H14         2.9310   -5.8280    4.8040 ho        1 23K      0.452000
     51 H15        -0.9110   -7.1450    4.7410 hn        1 23K      0.501300
     52 H16         0.4840   -4.4010    6.4260 hc        1 23K      0.098700
     53 H17         1.1330   -6.0930    6.2820 hc        1 23K      0.098700
     54 H18        -0.1750   -7.9630    6.9680 ha        1 23K      0.139000
     55 H19        -2.1980   -8.8170    8.1330 ha        1 23K      0.166500
     56 H20        -4.1100   -7.2820    8.6140 ha        1 23K      0.171000
     57 H21        -4.0010   -4.8890    7.8990 ha        1 23K      0.166500
     58 H22        -1.9910   -4.0330    6.7060 ha        1 23K      0.139000
     59 H23        -0.3170   -5.3380    1.6140 hn        1 23K      0.512300
     60 H24         0.5040   -6.0670   -0.5340 hc        1 23K      0.090256
     61 H25        -1.1270   -5.4630   -1.0880 hc        1 23K      0.090256
     62 H26        -0.5800   -7.1310   -1.5220 hc        1 23K      0.090256
     63 H27        -0.8800   -8.6410    1.8990 hc        1 23K      0.090256
     64 H28        -0.3210   -8.8890    0.2030 hc        1 23K      0.090256
     65 H29         0.6570   -7.8400    1.2960 hc        1 23K      0.090256
     66 H30         0.2320    2.4580    5.2170 hc        1 23K      0.047867
     67 H31         1.9050    2.6070    4.5390 hc        1 23K      0.047867
     68 H32         1.5970    3.0070    6.2740 hc        1 23K      0.047867
     69 H33         1.1030   -0.4010    7.5510 hc        1 23K      0.047867
     70 H34        -0.3160    0.4740    6.8210 hc        1 23K      0.047867
     71 H35         0.8850    1.3670    7.8390 hc        1 23K      0.047867
     72 H36        -2.6020   -8.2090   -0.5330 hc        1 23K      0.090256
     73 H37        -3.1660   -7.7670    1.1310 hc        1 23K      0.090256
     74 H38        -3.2330   -6.5420   -0.2190 hc        1 23K      0.090256
     75 H202        0.2810   -7.1600    3.5380 hn        1 23K      0.501300
     76 H292       -1.9480   -5.1380    1.3630 hn        1 23K      0.512300
@<TRIPOS>BOND
     1    1    2 ar  
     2    1    6 ar  
     3    1   37 1   
     4    2    3 ar  
     5    2    7 1   
     6    3    4 ar  
     7    3   38 1   
     8    4    5 ar  
     9    4    8 1   
    10    5    6 ar  
    11    5    9 1   
    12    6   39 1   
    13    8   15 1   
    14    8   40 1   
    15    8   41 1   
    16    9   10 1   
    17    9   11 2   
    18    9   12 2   
    19   10   13 1   
    20   10   14 1   
    21   13   17 1   
    22   13   42 1   
    23   13   43 1   
    24   14   15 1   
    25   14   44 1   
    26   14   45 1   
    27   15   16 1   
    28   15   46 1   
    29   16   34 1   
    30   16   35 1   
    31   16   47 1   
    32   17   18 1   
    33   17   19 1   
    34   17   48 1   
    35   18   20 1   
    36   18   21 1   
    37   18   49 1   
    38   19   50 1   
    39   20   28 1   
    40   20   51 1   
    41   20   75 1   
    42   21   22 1   
    43   21   52 1   
    44   21   53 1   
    45   22   23 ar  
    46   22   27 ar  
    47   23   24 ar  
    48   23   54 1   
    49   24   25 ar  
    50   24   55 1   
    51   25   26 ar  
    52   25   56 1   
    53   26   27 ar  
    54   26   57 1   
    55   27   58 1   
    56   28   29 1   
    57   28   30 2   
    58   29   31 1   
    59   29   59 1   
    60   29   76 1   
    61   31   32 1   
    62   31   33 1   
    63   31   36 1   
    64   32   60 1   
    65   32   61 1   
    66   32   62 1   
    67   33   63 1   
    68   33   64 1   
    69   33   65 1   
    70   34   66 1   
    71   34   67 1   
    72   34   68 1   
    73   35   69 1   
    74   35   70 1   
    75   35   71 1   
    76   36   72 1   
    77   36   73 1   
    78   36   74 1   
@<TRIPOS>SUBSTRUCTURE
     1 23K         1 TEMP              0 ****  ****    0 ROOT
