@<TRIPOS>MOLECULE
23L
   73    76     1     0     0
SMALL
bcc


@<TRIPOS>ATOM
      1 C1          2.3800   -1.6480   -0.3600 ca        1 23L     -0.188000
      2 C2          3.0940   -0.4750   -0.0350 ca        1 23L      0.220900
      3 C3          2.9860    0.0770    1.2510 ca        1 23L     -0.203000
      4 C4          2.1670   -0.5200    2.2180 ca        1 23L      0.087700
      5 C5          1.4350   -1.6790    1.8990 ca        1 23L     -0.428500
      6 C6          1.5730   -2.2210    0.6040 ca        1 23L     -0.004000
      7 F7          3.8830    0.1110   -0.9570 f         1 23L     -0.108900
      8 C8          2.1870    0.1180    3.5700 c3        1 23L     -0.069100
      9 S9          0.3330   -2.4550    2.8840 sy        1 23L      1.519200
     10 N10         0.9690   -2.3650    4.3880 n3        1 23L     -0.808500
     11 O11        -0.9250   -1.8300    2.8430 o         1 23L     -0.678800
     12 O12         0.2640   -3.8400    2.5090 o         1 23L     -0.678800
     13 C13         1.9760   -3.2110    4.9640 c3        1 23L      0.211800
     14 C14         0.6830   -1.1550    5.1390 c3        1 23L      0.197800
     15 C15         0.8630    0.1390    4.3200 c3        1 23L     -0.104700
     16 C16         0.7900    1.3560    5.2510 c3        1 23L     -0.054700
     17 C17         2.0260   -4.6640    4.4480 c3        1 23L      0.102100
     18 C18         0.7450   -5.4580    4.7960 c3        1 23L      0.158500
     19 O19         3.0930   -5.3670    5.0670 oh        1 23L     -0.609800
     20 N20         0.7050   -6.7270    3.9740 ny        1 23L     -0.641800
     21 C21         0.6590   -5.7880    6.2930 c3        1 23L     -0.056100
     22 C22        -0.5130   -6.6490    6.6050 ca        1 23L     -0.154300
     23 C23        -0.3400   -8.0230    6.8160 ca        1 23L     -0.131500
     24 C24        -1.4330   -8.8260    7.1360 ca        1 23L     -0.115000
     25 C25        -2.7060   -8.2640    7.2470 ca        1 23L     -0.101000
     26 C26        -2.8830   -6.8950    7.0420 ca        1 23L     -0.115000
     27 C27        -1.7910   -6.0880    6.7240 ca        1 23L     -0.131500
     28 C28         0.3640   -6.4480    2.5420 c         1 23L      0.656100
     29 O29        -0.9700   -6.4300    2.3690 os        1 23L     -0.390900
     30 O30         1.2280   -6.3310    1.6850 o         1 23L     -0.438000
     31 C31        -1.4490   -5.9320    1.0770 c3        1 23L      0.139100
     32 C32        -2.9540   -5.7060    1.2900 c3        1 23L      0.122400
     33 O33        -3.6440   -6.7880    0.6690 os        1 23L     -0.405600
     34 C34        -2.7880   -7.4340   -0.2820 c3        1 23L      0.121400
     35 C35        -1.3470   -7.0160    0.0060 c3        1 23L     -0.139400
     36 C36         0.5550    2.6240    4.4500 c3        1 23L     -0.099100
     37 C37        -0.3090    1.2190    6.2860 c3        1 23L     -0.099100
     38 H1          2.4690   -2.0840   -1.3670 ha        1 23L      0.171000
     39 H2          3.5550    0.9910    1.4880 ha        1 23L      0.168000
     40 H3          1.0170   -3.1450    0.3520 ha        1 23L      0.156000
     41 H4          2.5520    1.1780    3.4560 hc        1 23L      0.074700
     42 H5          2.9650   -0.4120    4.1890 hc        1 23L      0.074700
     43 H6          1.8340   -3.2490    6.0840 h1        1 23L      0.061700
     44 H7          3.0010   -2.7670    4.7750 h1        1 23L      0.061700
     45 H8         -0.3890   -1.2140    5.4900 h1        1 23L      0.072700
     46 H9          1.3460   -1.0960    6.0480 h1        1 23L      0.072700
     47 H10         0.0110    0.2270    3.5850 hc        1 23L      0.091700
     48 H11         1.7770    1.4450    5.7890 hc        1 23L      0.050700
     49 H12         2.1890   -4.6650    3.3270 h1        1 23L      0.089700
     50 H13        -0.1650   -4.8610    4.4860 hx        1 23L      0.130700
     51 H14         3.9090   -4.8800    4.8950 ho        1 23L      0.438000
     52 H15        -0.0050   -7.3560    4.3830 hn        1 23L      0.476300
     53 H16         1.6140   -6.2740    6.6340 hc        1 23L      0.094700
     54 H17         0.5710   -4.8080    6.8370 hc        1 23L      0.094700
     55 H18         0.6670   -8.4660    6.7690 ha        1 23L      0.136000
     56 H19        -1.2900   -9.9030    7.3120 ha        1 23L      0.153000
     57 H20        -3.5680   -8.8990    7.5040 ha        1 23L      0.155000
     58 H21        -3.8850   -6.4480    7.1390 ha        1 23L      0.153000
     59 H22        -1.9320   -5.0060    6.5780 ha        1 23L      0.136000
     60 H23        -0.8770   -4.9970    0.8420 h1        1 23L      0.113700
     61 H24        -3.2470   -5.7180    2.3710 h1        1 23L      0.080700
     62 H25        -3.2670   -4.7450    0.8060 h1        1 23L      0.080700
     63 H26        -3.1130   -7.1200   -1.3080 h1        1 23L      0.067200
     64 H27        -2.9560   -8.5330   -0.1480 h1        1 23L      0.067200
     65 H28        -0.7380   -7.8800    0.3680 hc        1 23L      0.076700
     66 H29        -0.8560   -6.6100   -0.9130 hc        1 23L      0.076700
     67 H30         0.5600    3.5090    5.1320 hc        1 23L      0.044200
     68 H31         1.3470    2.7750    3.6790 hc        1 23L      0.044200
     69 H32        -0.4360    2.5820    3.9350 hc        1 23L      0.044200
     70 H33        -0.4410    2.1880    6.8280 hc        1 23L      0.044200
     71 H34        -0.0580    0.4370    7.0430 hc        1 23L      0.044200
     72 H35        -1.2790    0.9550    5.8000 hc        1 23L      0.044200
     73 H202        1.6300   -7.1740    4.0100 hn        1 23L      0.476300
@<TRIPOS>BOND
     1    1    2 ar  
     2    1    6 ar  
     3    1   38 1   
     4    2    3 ar  
     5    2    7 1   
     6    3    4 ar  
     7    3   39 1   
     8    4    5 ar  
     9    4    8 1   
    10    5    6 ar  
    11    5    9 1   
    12    6   40 1   
    13    8   15 1   
    14    8   41 1   
    15    8   42 1   
    16    9   10 1   
    17    9   11 2   
    18    9   12 2   
    19   10   13 1   
    20   10   14 1   
    21   13   17 1   
    22   13   43 1   
    23   13   44 1   
    24   14   15 1   
    25   14   45 1   
    26   14   46 1   
    27   15   16 1   
    28   15   47 1   
    29   16   36 1   
    30   16   37 1   
    31   16   48 1   
    32   17   18 1   
    33   17   19 1   
    34   17   49 1   
    35   18   20 1   
    36   18   21 1   
    37   18   50 1   
    38   19   51 1   
    39   20   28 1   
    40   20   52 1   
    41   20   73 1   
    42   21   22 1   
    43   21   53 1   
    44   21   54 1   
    45   22   23 ar  
    46   22   27 ar  
    47   23   24 ar  
    48   23   55 1   
    49   24   25 ar  
    50   24   56 1   
    51   25   26 ar  
    52   25   57 1   
    53   26   27 ar  
    54   26   58 1   
    55   27   59 1   
    56   28   29 1   
    57   28   30 2   
    58   29   31 1   
    59   31   32 1   
    60   31   35 1   
    61   31   60 1   
    62   32   33 1   
    63   32   61 1   
    64   32   62 1   
    65   33   34 1   
    66   34   35 1   
    67   34   63 1   
    68   34   64 1   
    69   35   65 1   
    70   35   66 1   
    71   36   67 1   
    72   36   68 1   
    73   36   69 1   
    74   37   70 1   
    75   37   71 1   
    76   37   72 1   
@<TRIPOS>SUBSTRUCTURE
     1 23L         1 TEMP              0 ****  ****    0 ROOT
