@<TRIPOS>MOLECULE
23L
   73    76     1     0     0
SMALL
bcc


@<TRIPOS>ATOM
      1 C1          2.2550   -1.5600   -0.3800 ca        1 23L     -0.188000
      2 C2          2.9740   -0.3900   -0.0530 ca        1 23L      0.219900
      3 C3          2.9010    0.1360    1.2470 ca        1 23L     -0.203000
      4 C4          2.1120   -0.4830    2.2240 ca        1 23L      0.087700
      5 C5          1.3760   -1.6380    1.9030 ca        1 23L     -0.428500
      6 C6          1.4780   -2.1550    0.5950 ca        1 23L     -0.004000
      7 F7          3.7350    0.2160   -0.9850 f         1 23L     -0.108900
      8 C8          2.1680    0.1290    3.5870 c3        1 23L     -0.069100
      9 S9          0.3040   -2.4380    2.9040 sy        1 23L      1.519200
     10 N10         0.9830   -2.3750    4.3910 n3        1 23L     -0.808500
     11 O11        -0.9570   -1.8180    2.9110 o         1 23L     -0.678800
     12 O12         0.2300   -3.8160    2.5040 o         1 23L     -0.678800
     13 C13         2.0090   -3.2280    4.9210 c3        1 23L      0.211800
     14 C14         0.7150   -1.1810    5.1730 c3        1 23L      0.197800
     15 C15         0.8660    0.1300    4.3750 c3        1 23L     -0.104700
     16 C16         0.8160    1.3280    5.3320 c3        1 23L     -0.054700
     17 C17         2.0510   -4.6700    4.3750 c3        1 23L      0.102100
     18 C18         0.7830   -5.4770    4.7430 c3        1 23L      0.158500
     19 O19         3.1370   -5.3810    4.9490 oh        1 23L     -0.609800
     20 N20         0.7240   -6.7290    3.8960 n4        1 23L     -0.641800
     21 C21         0.7420   -5.8380    6.2340 c3        1 23L     -0.056100
     22 C22        -0.4180   -6.7100    6.5630 ca        1 23L     -0.154300
     23 C23        -0.2330   -8.0870    6.7400 ca        1 23L     -0.131500
     24 C24        -1.3130   -8.9020    7.0750 ca        1 23L     -0.115000
     25 C25        -2.5840   -8.3480    7.2340 ca        1 23L     -0.101000
     26 C26        -2.7720   -6.9760    7.0640 ca        1 23L     -0.115000
     27 C27        -1.6930   -6.1580    6.7310 ca        1 23L     -0.131500
     28 C28         0.3400   -6.4220    2.4810 c         1 23L      0.656100
     29 O29        -0.9980   -6.4070    2.3470 os        1 23L     -0.390900
     30 O30         1.1790   -6.2840    1.6020 o         1 23L     -0.438000
     31 C31        -1.5160   -5.8850    1.0800 c3        1 23L      0.139100
     32 C32        -3.0150   -5.6710    1.3420 c3        1 23L      0.122400
     33 O33        -3.7190   -6.7430    0.7200 os        1 23L     -0.405600
     34 C34        -2.8890   -7.3660   -0.2700 c3        1 23L      0.121400
     35 C35        -1.4420   -6.9470   -0.0150 c3        1 23L     -0.139400
     36 C36         0.5530    2.6100    4.5630 c3        1 23L     -0.099100
     37 C37        -0.2530    1.1660    6.3950 c3        1 23L     -0.099100
     38 H1          2.3180   -1.9760   -1.3970 ha        1 23L      0.171000
     39 H2          3.4730    1.0470    1.4860 ha        1 23L      0.168000
     40 H3          0.9190   -3.0760    0.3410 ha        1 23L      0.156000
     41 H4          2.5260    1.1920    3.4840 hc        1 23L      0.074700
     42 H5          2.9660   -0.4100    4.1730 hc        1 23L      0.074700
     43 H6          3.0270   -2.7750    4.7130 h1        1 23L      0.061700
     44 H7          1.8990   -3.2890    6.0440 h1        1 23L      0.061700
     45 H8          1.4030   -1.1370    6.0640 h1        1 23L      0.072700
     46 H9         -0.3470   -1.2510    5.5530 h1        1 23L      0.072700
     47 H10        -0.0070    0.2280    3.6660 hc        1 23L      0.091700
     48 H11         1.8170    1.4110    5.8430 hc        1 23L      0.050700
     49 H12         2.1810   -4.6480    3.2500 h1        1 23L      0.089700
     50 H13        -0.1380   -4.8770    4.4720 hx        1 23L      0.130700
     51 H14         3.9470   -4.8860    4.7630 ho        1 23L      0.438000
     52 H15         1.6520   -7.1720    3.8970 hn        1 23L      0.476300
     53 H16         1.7080   -6.3260    6.5380 hc        1 23L      0.094700
     54 H17         0.6660   -4.8700    6.8010 hc        1 23L      0.094700
     55 H18         0.7740   -8.5250    6.6540 ha        1 23L      0.136000
     56 H19        -1.1610   -9.9820    7.2250 ha        1 23L      0.153000
     57 H20        -3.4360   -8.9920    7.5040 ha        1 23L      0.155000
     58 H21        -3.7720   -6.5350    7.2000 ha        1 23L      0.153000
     59 H22        -1.8430   -5.0740    6.6120 ha        1 23L      0.136000
     60 H23        -0.9550   -4.9440    0.8480 h1        1 23L      0.113700
     61 H24        -3.2770   -5.7070    2.4300 h1        1 23L      0.080700
     62 H25        -3.3460   -4.7020    0.8870 h1        1 23L      0.080700
     63 H26        -3.0480   -8.4680   -0.1530 h1        1 23L      0.067200
     64 H27        -3.2440   -7.0330   -1.2790 h1        1 23L      0.067200
     65 H28        -0.9790   -6.5210   -0.9390 hc        1 23L      0.076700
     66 H29        -0.8180   -7.8160    0.3110 hc        1 23L      0.076700
     67 H30         0.5750    3.4810    5.2610 hc        1 23L      0.044200
     68 H31        -0.4520    2.5740    4.0760 hc        1 23L      0.044200
     69 H32         1.3210    2.7790    3.7720 hc        1 23L      0.044200
     70 H33         0.0230    0.3710    7.1280 hc        1 23L      0.044200
     71 H34        -1.2360    0.9080    5.9320 hc        1 23L      0.044200
     72 H35        -0.3730    2.1240    6.9590 hc        1 23L      0.044200
     73 H202        0.0290   -7.3690    4.3130 hn        1 23L      0.476300
@<TRIPOS>BOND
     1    1    2 ar  
     2    1    6 ar  
     3    1   38 1   
     4    2    3 ar  
     5    2    7 1   
     6    3    4 ar  
     7    3   39 1   
     8    4    5 ar  
     9    4    8 1   
    10    5    6 ar  
    11    5    9 1   
    12    6   40 1   
    13    8   15 1   
    14    8   41 1   
    15    8   42 1   
    16    9   10 1   
    17    9   11 2   
    18    9   12 2   
    19   10   13 1   
    20   10   14 1   
    21   13   17 1   
    22   13   43 1   
    23   13   44 1   
    24   14   15 1   
    25   14   45 1   
    26   14   46 1   
    27   15   16 1   
    28   15   47 1   
    29   16   36 1   
    30   16   37 1   
    31   16   48 1   
    32   17   18 1   
    33   17   19 1   
    34   17   49 1   
    35   18   20 1   
    36   18   21 1   
    37   18   50 1   
    38   19   51 1   
    39   20   28 1   
    40   20   52 1   
    41   20   73 1   
    42   21   22 1   
    43   21   53 1   
    44   21   54 1   
    45   22   23 ar  
    46   22   27 ar  
    47   23   24 ar  
    48   23   55 1   
    49   24   25 ar  
    50   24   56 1   
    51   25   26 ar  
    52   25   57 1   
    53   26   27 ar  
    54   26   58 1   
    55   27   59 1   
    56   28   29 1   
    57   28   30 2   
    58   29   31 1   
    59   31   32 1   
    60   31   35 1   
    61   31   60 1   
    62   32   33 1   
    63   32   61 1   
    64   32   62 1   
    65   33   34 1   
    66   34   35 1   
    67   34   63 1   
    68   34   64 1   
    69   35   65 1   
    70   35   66 1   
    71   36   67 1   
    72   36   68 1   
    73   36   69 1   
    74   37   70 1   
    75   37   71 1   
    76   37   72 1   
@<TRIPOS>SUBSTRUCTURE
     1 23L         1 TEMP              0 ****  ****    0 ROOT
