@<TRIPOS>MOLECULE
23L
   73    76     1     0     0
SMALL
bcc


@<TRIPOS>ATOM
      1 C1          2.3750   -1.6560   -0.3620 ca        1 23L     -0.188000
      2 C2          3.0850   -0.4790   -0.0400 ca        1 23L      0.220900
      3 C3          2.9740    0.0750    1.2460 ca        1 23L     -0.203000
      4 C4          2.1570   -0.5230    2.2130 ca        1 23L      0.087700
      5 C5          1.4300   -1.6850    1.8960 ca        1 23L     -0.428500
      6 C6          1.5700   -2.2290    0.6030 ca        1 23L     -0.004000
      7 F7          3.8720    0.1070   -0.9630 f         1 23L     -0.108900
      8 C8          2.1740    0.1180    3.5630 c3        1 23L     -0.069100
      9 S9          0.3290   -2.4630    2.8820 sy        1 23L      1.519200
     10 N10         0.9640   -2.3670    4.3860 n3        1 23L     -0.808500
     11 O11        -0.9310   -1.8420    2.8390 o         1 23L     -0.678800
     12 O12         0.2660   -3.8490    2.5100 o         1 23L     -0.678800
     13 C13         1.9740   -3.2090    4.9650 c3        1 23L      0.211800
     14 C14         0.6740   -1.1570    5.1340 c3        1 23L      0.197800
     15 C15         0.8490    0.1360    4.3140 c3        1 23L     -0.104700
     16 C16         0.7720    1.3550    5.2420 c3        1 23L     -0.054700
     17 C17         2.0300   -4.6630    4.4520 c3        1 23L      0.102100
     18 C18         0.7510   -5.4610    4.8010 c3        1 23L      0.158500
     19 O19         3.0980   -5.3610    5.0730 oh        1 23L     -0.609800
     20 N20         0.7160   -6.7310    3.9810 n4        1 23L     -0.641800
     21 C21         0.6660   -5.7880    6.2980 c3        1 23L     -0.056100
     22 C22        -0.5040   -6.6520    6.6120 ca        1 23L     -0.154300
     23 C23        -0.3260   -8.0250    6.8250 ca        1 23L     -0.131500
     24 C24        -1.4170   -8.8310    7.1460 ca        1 23L     -0.115000
     25 C25        -2.6920   -8.2730    7.2550 ca        1 23L     -0.101000
     26 C26        -2.8730   -6.9050    7.0480 ca        1 23L     -0.115000
     27 C27        -1.7830   -6.0950    6.7290 ca        1 23L     -0.131500
     28 C28         0.3740   -6.4560    2.5480 c         1 23L      0.656100
     29 O29        -0.9590   -6.4430    2.3750 os        1 23L     -0.390900
     30 O30         1.2380   -6.3370    1.6920 o         1 23L     -0.438000
     31 C31        -1.4400   -5.9490    1.0810 c3        1 23L      0.139100
     32 C32        -2.9450   -5.7290    1.2940 c3        1 23L      0.122400
     33 O33        -3.6320   -6.8140    0.6750 os        1 23L     -0.405600
     34 C34        -2.7730   -7.4590   -0.2750 c3        1 23L      0.121400
     35 C35        -1.3340   -7.0350    0.0130 c3        1 23L     -0.139400
     36 C36         0.5320    2.6200    4.4380 c3        1 23L     -0.099100
     37 C37        -0.3270    1.2160    6.2770 c3        1 23L     -0.099100
     38 H1          2.4660   -2.0930   -1.3680 ha        1 23L      0.171000
     39 H2          3.5400    0.9920    1.4810 ha        1 23L      0.168000
     40 H3          1.0170   -3.1550    0.3520 ha        1 23L      0.156000
     41 H4          2.5360    1.1790    3.4480 hc        1 23L      0.074700
     42 H5          2.9540   -0.4080    4.1840 hc        1 23L      0.074700
     43 H6          2.9980   -2.7610    4.7760 h1        1 23L      0.061700
     44 H7          1.8320   -3.2450    6.0850 h1        1 23L      0.061700
     45 H8         -0.3980   -1.2180    5.4850 h1        1 23L      0.072700
     46 H9          1.3360   -1.0930    6.0440 h1        1 23L      0.072700
     47 H10        -0.0020    0.2190    3.5770 hc        1 23L      0.091700
     48 H11         1.7580    1.4490    5.7800 hc        1 23L      0.050700
     49 H12         2.1930   -4.6660    3.3310 h1        1 23L      0.089700
     50 H13        -0.1610   -4.8670    4.4890 hx        1 23L      0.130700
     51 H14         3.9130   -4.8710    4.9000 ho        1 23L      0.438000
     52 H15         0.0080   -7.3620    4.3910 hn        1 23L      0.476300
     53 H16         0.5750   -4.8080    6.8400 hc        1 23L      0.094700
     54 H17         1.6220   -6.2700    6.6410 hc        1 23L      0.094700
     55 H18         0.6820   -8.4650    6.7790 ha        1 23L      0.136000
     56 H19        -1.2700   -9.9080    7.3240 ha        1 23L      0.153000
     57 H20        -3.5520   -8.9100    7.5140 ha        1 23L      0.155000
     58 H21        -3.8760   -6.4610    7.1440 ha        1 23L      0.153000
     59 H22        -1.9280   -5.0140    6.5810 ha        1 23L      0.136000
     60 H23        -0.8710   -5.0130    0.8450 h1        1 23L      0.113700
     61 H24        -3.2400   -5.7390    2.3740 h1        1 23L      0.080700
     62 H25        -3.2620   -4.7700    0.8080 h1        1 23L      0.080700
     63 H26        -3.0990   -7.1480   -1.3010 h1        1 23L      0.067200
     64 H27        -2.9370   -8.5580   -0.1380 h1        1 23L      0.067200
     65 H28        -0.8440   -6.6300   -0.9070 hc        1 23L      0.076700
     66 H29        -0.7210   -7.8960    0.3770 hc        1 23L      0.076700
     67 H30         1.3240    2.7720    3.6670 hc        1 23L      0.044200
     68 H31         0.5350    3.5060    5.1180 hc        1 23L      0.044200
     69 H32        -0.4580    2.5730    3.9230 hc        1 23L      0.044200
     70 H33        -0.4630    2.1860    6.8160 hc        1 23L      0.044200
     71 H34        -1.2960    0.9480    5.7910 hc        1 23L      0.044200
     72 H35        -0.0730    0.4370    7.0350 hc        1 23L      0.044200
     73 H202        1.6430   -7.1750    4.0190 hn        1 23L      0.476300
@<TRIPOS>BOND
     1    1    2 ar  
     2    1    6 ar  
     3    1   38 1   
     4    2    3 ar  
     5    2    7 1   
     6    3    4 ar  
     7    3   39 1   
     8    4    5 ar  
     9    4    8 1   
    10    5    6 ar  
    11    5    9 1   
    12    6   40 1   
    13    8   15 1   
    14    8   41 1   
    15    8   42 1   
    16    9   10 1   
    17    9   11 2   
    18    9   12 2   
    19   10   13 1   
    20   10   14 1   
    21   13   17 1   
    22   13   43 1   
    23   13   44 1   
    24   14   15 1   
    25   14   45 1   
    26   14   46 1   
    27   15   16 1   
    28   15   47 1   
    29   16   36 1   
    30   16   37 1   
    31   16   48 1   
    32   17   18 1   
    33   17   19 1   
    34   17   49 1   
    35   18   20 1   
    36   18   21 1   
    37   18   50 1   
    38   19   51 1   
    39   20   28 1   
    40   20   52 1   
    41   20   73 1   
    42   21   22 1   
    43   21   53 1   
    44   21   54 1   
    45   22   23 ar  
    46   22   27 ar  
    47   23   24 ar  
    48   23   55 1   
    49   24   25 ar  
    50   24   56 1   
    51   25   26 ar  
    52   25   57 1   
    53   26   27 ar  
    54   26   58 1   
    55   27   59 1   
    56   28   29 1   
    57   28   30 2   
    58   29   31 1   
    59   31   32 1   
    60   31   35 1   
    61   31   60 1   
    62   32   33 1   
    63   32   61 1   
    64   32   62 1   
    65   33   34 1   
    66   34   35 1   
    67   34   63 1   
    68   34   64 1   
    69   35   65 1   
    70   35   66 1   
    71   36   67 1   
    72   36   68 1   
    73   36   69 1   
    74   37   70 1   
    75   37   71 1   
    76   37   72 1   
@<TRIPOS>SUBSTRUCTURE
     1 23L         1 TEMP              0 ****  ****    0 ROOT
