@<TRIPOS>MOLECULE
23M
   35    37     1     0     0
SMALL
bcc


@<TRIPOS>ATOM
      1 C1         -0.0650    0.0450   -0.0160 ca        1 23M     -0.095800
      2 C2          1.3830    0.1920    0.0130 ca        1 23M     -0.009200
      3 N3          1.7940    0.1380    1.3350 na        1 23M     -0.164400
      4 C4          0.6580   -0.0290    2.1540 cc        1 23M      0.050700
      5 C5         -0.4900   -0.0920    1.3530 cd        1 23M     -0.175200
      6 C6          0.7390   -0.1110    3.6030 ca        1 23M     -0.074800
      7 C7         -0.3210    0.3880    4.3740 ca        1 23M     -0.102000
      8 C8         -0.2640    0.3090    5.7640 ca        1 23M     -0.120000
      9 C9          0.8400   -0.2630    6.3910 ca        1 23M     -0.104000
     10 C10         1.9040   -0.7660    5.6310 ca        1 23M     -0.065300
     11 C11         1.8490   -0.6880    4.2370 ca        1 23M     -0.117000
     12 C12         3.0770   -1.3680    6.3070 c3        1 23M     -0.061800
     13 C13         2.1160    0.3540   -1.1770 ca        1 23M     -0.119000
     14 C14         1.4210    0.3630   -2.3720 ca        1 23M     -0.109000
     15 C15         0.0160    0.2170   -2.4020 ca        1 23M     -0.310900
     16 C16        -0.7330    0.0630   -1.2340 ca        1 23M     -0.025000
     17 C17        -0.6840    0.2700   -3.6970 ce        1 23M      0.606800
     18 N18        -1.4960    1.1130   -4.2050 n2        1 23M     -0.724100
     19 N19        -0.3480   -0.9340   -4.5470 nz        1 23M     -0.828600
     20 HN3         2.7200    0.2440    1.6630 hn        1 23M      0.319700
     21 H5         -1.5110   -0.2270    1.7000 ha        1 23M      0.176000
     22 H7         -1.1920    0.8440    3.8800 ha        1 23M      0.140000
     23 H8         -1.0970    0.7010    6.3670 ha        1 23M      0.147000
     24 H9          0.8800   -0.3240    7.4900 ha        1 23M      0.148000
     25 H11         2.6780   -1.1020    3.6440 ha        1 23M      0.129000
     26 H121        3.7150   -0.5640    6.7520 hc        1 23M      0.053700
     27 H122        2.7490   -2.0490    7.1310 hc        1 23M      0.053700
     28 H123        3.7020   -1.9570    5.5920 hc        1 23M      0.053700
     29 H13         3.2090    0.4790   -1.1570 ha        1 23M      0.160000
     30 H14         1.9740    0.5180   -3.3110 ha        1 23M      0.130000
     31 H16        -1.8280   -0.0410   -1.2650 ha        1 23M      0.149000
     32 HN18       -1.7280    1.9260   -3.6720 hn        1 23M      0.488400
     33 H191       -0.7220   -1.7660   -4.0800 hn        1 23M      0.466800
     34 H192        0.6740   -1.0090   -4.5950 hn        1 23M      0.466800
     35 H193       -0.7370   -0.8670   -5.4940 hn        1 23M      0.466800
@<TRIPOS>BOND
     1    1    2 ar  
     2    1    5 1   
     3    1   16 ar  
     4    2    3 1   
     5    2   13 ar  
     6    3    4 1   
     7    3   20 1   
     8    4    5 2   
     9    4    6 1   
    10    5   21 1   
    11    6    7 ar  
    12    6   11 ar  
    13    7    8 ar  
    14    7   22 1   
    15    8    9 ar  
    16    8   23 1   
    17    9   10 ar  
    18    9   24 1   
    19   10   11 ar  
    20   10   12 1   
    21   11   25 1   
    22   12   26 1   
    23   12   27 1   
    24   12   28 1   
    25   13   14 ar  
    26   13   29 1   
    27   14   15 ar  
    28   14   30 1   
    29   15   16 ar  
    30   15   17 1   
    31   16   31 1   
    32   17   18 2   
    33   17   19 1   
    34   18   32 1   
    35   19   33 1   
    36   19   34 1   
    37   19   35 1   
@<TRIPOS>SUBSTRUCTURE
     1 23M         1 TEMP              0 ****  ****    0 ROOT
