@<TRIPOS>MOLECULE
23M
   35    37     1     0     0
SMALL
bcc


@<TRIPOS>ATOM
      1 C1         -0.0580    0.0570   -0.0180 ca        1 23M     -0.095800
      2 C2          1.3930    0.1730    0.0130 ca        1 23M     -0.009200
      3 N3          1.8000    0.1150    1.3350 na        1 23M     -0.164400
      4 C4          0.6590   -0.0250    2.1530 cc        1 23M      0.050700
      5 C5         -0.4880   -0.0660    1.3510 cd        1 23M     -0.175200
      6 C6          0.7370   -0.1030    3.6030 ca        1 23M     -0.074800
      7 C7         -0.3130    0.4220    4.3700 ca        1 23M     -0.102000
      8 C8         -0.2610    0.3460    5.7600 ca        1 23M     -0.120000
      9 C9          0.8300   -0.2470    6.3920 ca        1 23M     -0.104000
     10 C10         1.8840   -0.7760    5.6350 ca        1 23M     -0.065300
     11 C11         1.8320   -0.7010    4.2400 ca        1 23M     -0.117000
     12 C12         3.0420   -1.4010    6.3150 c3        1 23M     -0.061800
     13 C13         2.1310    0.3150   -1.1770 ca        1 23M     -0.119000
     14 C14         1.4380    0.3340   -2.3730 ca        1 23M     -0.109000
     15 C15         0.0300    0.2190   -2.4050 ca        1 23M     -0.310900
     16 C16        -0.7240    0.0850   -1.2370 ca        1 23M     -0.025000
     17 C17        -0.6660    0.2830   -3.7010 ce        1 23M      0.606800
     18 N18        -1.4590    1.1410   -4.2140 n2        1 23M     -0.724100
     19 N19        -0.3550   -0.9320   -4.5460 n4        1 23M     -0.828600
     20 HN3         2.7280    0.2030    1.6650 hn        1 23M      0.319700
     21 H5         -1.5120   -0.1770    1.6960 ha        1 23M      0.176000
     22 H7         -1.1740    0.8940    3.8730 ha        1 23M      0.140000
     23 H8         -1.0860    0.7590    6.3610 ha        1 23M      0.147000
     24 H9          0.8670   -0.3040    7.4910 ha        1 23M      0.148000
     25 H11         2.6540   -1.1350    3.6510 ha        1 23M      0.129000
     26 H121        3.6830   -0.6110    6.7830 hc        1 23M      0.053700
     27 H122        2.6950   -2.0910    7.1240 hc        1 23M      0.053700
     28 H123        3.6700   -1.9850    5.5990 hc        1 23M      0.053700
     29 H13         3.2270    0.4160   -1.1560 ha        1 23M      0.160000
     30 H14         1.9960    0.4740   -3.3120 ha        1 23M      0.130000
     31 H16        -1.8210    0.0050   -1.2700 ha        1 23M      0.149000
     32 HN18       -1.6740    1.9610   -3.6840 hn        1 23M      0.488400
     33 H191       -0.7490   -1.7540   -4.0770 hn        1 23M      0.466800
     34 H192        0.6650   -1.0290   -4.5920 hn        1 23M      0.466800
     35 H193       -0.7420   -0.8600   -5.4940 hn        1 23M      0.466800
@<TRIPOS>BOND
     1    1    2 ar  
     2    1    5 1   
     3    1   16 ar  
     4    2    3 1   
     5    2   13 ar  
     6    3    4 1   
     7    3   20 1   
     8    4    5 2   
     9    4    6 1   
    10    5   21 1   
    11    6    7 ar  
    12    6   11 ar  
    13    7    8 ar  
    14    7   22 1   
    15    8    9 ar  
    16    8   23 1   
    17    9   10 ar  
    18    9   24 1   
    19   10   11 ar  
    20   10   12 1   
    21   11   25 1   
    22   12   26 1   
    23   12   27 1   
    24   12   28 1   
    25   13   14 ar  
    26   13   29 1   
    27   14   15 ar  
    28   14   30 1   
    29   15   16 ar  
    30   15   17 1   
    31   16   31 1   
    32   17   18 2   
    33   17   19 1   
    34   18   32 1   
    35   19   33 1   
    36   19   34 1   
    37   19   35 1   
@<TRIPOS>SUBSTRUCTURE
     1 23M         1 TEMP              0 ****  ****    0 ROOT
