@<TRIPOS>MOLECULE
23M
   34    25     1     0     0
SMALL
bcc


@<TRIPOS>ATOM
      1 C1          0.1640   -1.3200   -0.5310 c1        1 23M     -0.039000
      2 C2          1.5040   -1.6330   -0.5020 c1        1 23M     -0.039000
      3 N3          1.9370   -1.5420    0.8130 n1        1 23M     -0.207000
      4 C4          0.8680   -1.1750    1.5870 c2        1 23M      0.011000
      5 C5         -0.2340   -1.0360    0.7580 c1        1 23M     -0.175000
      6 C6          0.5350    0.1310    1.9870 c1        1 23M     -0.024000
      7 C7          1.1390    1.2220    1.3670 c1        1 23M     -0.125000
      8 C8          0.7220    2.5150    1.6710 c1        1 23M     -0.125000
      9 C9         -0.2970    2.7180    2.5940 c1        1 23M     -0.125000
     10 C10        -0.9020    1.6270    3.2150 c1        1 23M     -0.066000
     11 C11        -0.4850    0.3340    2.9110 c1        1 23M     -0.111000
     12 C12        -2.0800    1.8470    4.1750 c3        1 23M     -0.181000
     13 C13         2.2090   -1.8290   -1.7060 c1        1 23M     -0.125000
     14 C14         1.5500   -1.7070   -2.9250 c1        1 23M     -0.125000
     15 C15         0.1930   -1.3900   -2.9550 c1        1 23M     -0.149000
     16 C16        -0.5030   -1.1960   -1.7660 c1        1 23M     -0.041000
     17 C17        -0.6120   -0.6510   -4.0240 c2        1 23M      0.120000
     18 N18        -0.3830    0.6260   -4.2560 n1        1 23M     -0.309000
     19 N19        -1.6160   -1.3470   -4.7730 n3        1 23M     -0.333000
     20 HN3         2.7930   -1.7000    1.1130 DU        1 23M      0.187000
     21 H5         -1.1390   -0.7800    1.0390 DU        1 23M      0.187000
     22 H7          1.8590    1.0790    0.7140 ha        1 23M      0.134000
     23 H8          1.1470    3.2800    1.2360 ha        1 23M      0.134000
     24 H9         -0.5900    3.6270    2.8080 ha        1 23M      0.135000
     25 H11        -0.9130   -0.4380    3.3500 ha        1 23M      0.140000
     26 H121       -1.9420    1.3160    4.9900 hc        1 23M      0.086333
     27 H122       -2.1380    2.7990    4.4090 hc        1 23M      0.086333
     28 H123       -2.9170    1.5650    3.7370 hc        1 23M      0.086333
     29 H13         3.1660   -2.0520   -1.6850 ha        1 23M      0.134000
     30 H14         2.0440   -1.8440   -3.7690 ha        1 23M      0.134000
     31 H16        -1.4570   -0.9740   -1.7870 ha        1 23M      0.152000
     32 HN18        0.2590    1.0700   -3.7770 DU        1 23M      0.187000
     33 H191       -2.1680   -0.8820   -5.3440 hn        1 23M      0.192000
     34 H192       -1.7140   -2.2570   -4.6760 hn        1 23M      0.192000
@<TRIPOS>BOND
     1    1    2 1   
     2    3    4 1   
     3    4    5 1   
     4    4    6 1   
     5    6   11 1   
     6    7    8 1   
     7    7   22 1   
     8    8   23 1   
     9    9   10 1   
    10    9   24 1   
    11   10   12 1   
    12   11   25 1   
    13   12   26 1   
    14   12   27 1   
    15   12   28 1   
    16   13   14 1   
    17   13   29 1   
    18   14   30 1   
    19   15   16 1   
    20   15   17 1   
    21   16   31 1   
    22   17   18 1   
    23   17   19 1   
    24   19   33 1   
    25   19   34 1   
@<TRIPOS>SUBSTRUCTURE
     1 23M         1 TEMP              0 ****  ****    0 ROOT
