@<TRIPOS>MOLECULE
23M
   34    36     1     0     0
SMALL
bcc


@<TRIPOS>ATOM
      1 C1         -1.2170   -0.4170   -0.1200 ca        1 23M     -0.107800
      2 C2         -0.9440    0.9920    0.0720 ca        1 23M     -0.028200
      3 N3          0.4350    1.1590    0.1630 na        1 23M     -0.185400
      4 C4          1.0460   -0.1050    0.0470 cc        1 23M     -0.008300
      5 C5          0.0610   -1.0840   -0.1300 cd        1 23M     -0.161200
      6 C6          2.4850   -0.2960    0.1090 ca        1 23M     -0.033800
      7 C7          2.9940   -1.5050    0.6080 ca        1 23M     -0.115000
      8 C8          4.3700   -1.7100    0.6660 ca        1 23M     -0.124000
      9 C9          5.2500   -0.7200    0.2320 ca        1 23M     -0.125000
     10 C10         4.7550    0.4890   -0.2710 ca        1 23M     -0.073300
     11 C11         3.3720    0.6960   -0.3300 ca        1 23M     -0.126000
     12 C12         5.6850    1.5350   -0.7540 c3        1 23M     -0.055800
     13 C13        -1.9900    1.9290    0.1270 ca        1 23M     -0.155000
     14 C14        -3.2860    1.4600   -0.0020 ca        1 23M     -0.090000
     15 C15        -3.5590    0.0860   -0.1820 ca        1 23M     -0.176900
     16 C16        -2.5360   -0.8520   -0.2550 ca        1 23M     -0.035000
     17 C17        -4.9810   -0.3650   -0.3140 ce        1 23M      0.654800
     18 N18        -5.3060   -1.1160   -1.3230 n2        1 23M     -0.828100
     19 N19        -5.8480    0.1510    0.6770 nh        1 23M     -0.957800
     20 HN3         0.9070    2.0050    0.3350 hn        1 23M      0.300700
     21 H5          0.2250   -2.1490   -0.2660 ha        1 23M      0.160000
     22 H7          2.3010   -2.2860    0.9540 ha        1 23M      0.140000
     23 H8          4.7650   -2.6590    1.0580 ha        1 23M      0.135000
     24 H9          6.3360   -0.8870    0.2830 ha        1 23M      0.134000
     25 H11         2.9910    1.6420   -0.7420 ha        1 23M      0.130000
     26 H121        5.8770    1.3970   -1.8490 hc        1 23M      0.045700
     27 H122        5.2550    2.5560   -0.6020 hc        1 23M      0.045700
     28 H123        6.6640    1.4800   -0.2180 hc        1 23M      0.045700
     29 H13        -1.7860    2.9990    0.2610 ha        1 23M      0.135000
     30 H14        -4.1220    2.1770    0.0230 ha        1 23M      0.142000
     31 H16        -2.7530   -1.9170   -0.4230 ha        1 23M      0.150000
     32 HN18       -6.2610   -1.4020   -1.3760 hn        1 23M      0.379400
     33 H191       -5.4000    0.4730    1.5040 hn        1 23M      0.395800
     34 H192       -6.6880   -0.3540    0.8410 hn        1 23M      0.395800
@<TRIPOS>BOND
     1    1    2 ar  
     2    1    5 1   
     3    1   16 ar  
     4    2    3 1   
     5    2   13 ar  
     6    3    4 1   
     7    3   20 1   
     8    4    5 2   
     9    4    6 1   
    10    5   21 1   
    11    6    7 ar  
    12    6   11 ar  
    13    7    8 ar  
    14    7   22 1   
    15    8    9 ar  
    16    8   23 1   
    17    9   10 ar  
    18    9   24 1   
    19   10   11 ar  
    20   10   12 1   
    21   11   25 1   
    22   12   26 1   
    23   12   27 1   
    24   12   28 1   
    25   13   14 ar  
    26   13   29 1   
    27   14   15 ar  
    28   14   30 1   
    29   15   16 ar  
    30   15   17 1   
    31   16   31 1   
    32   17   18 2   
    33   17   19 1   
    34   18   32 1   
    35   19   33 1   
    36   19   34 1   
@<TRIPOS>SUBSTRUCTURE
     1 23M         1 TEMP              0 ****  ****    0 ROOT
