@<TRIPOS>MOLECULE
23M
   35    37     1     0     0
SMALL
bcc


@<TRIPOS>ATOM
      1 C1         -0.0430   -0.0380   -0.0240 ca        1 23M     -0.095800
      2 C2          1.3790   -0.3490   -0.0110 ca        1 23M     -0.009200
      3 N3          1.8070   -0.3480    1.3060 na        1 23M     -0.164400
      4 C4          0.7080   -0.0470    2.1380 cc        1 23M      0.050700
      5 C5         -0.4330    0.1490    1.3500 cd        1 23M     -0.174200
      6 C6          0.8190    0.0370    3.5850 ca        1 23M     -0.073800
      7 C7         -0.0010    0.9390    4.2790 ca        1 23M     -0.103000
      8 C8          0.0830    1.0240    5.6670 ca        1 23M     -0.120000
      9 C9          0.9770    0.2180    6.3690 ca        1 23M     -0.104000
     10 C10         1.7980   -0.6880    5.6860 ca        1 23M     -0.065300
     11 C11         1.7150   -0.7750    4.2930 ca        1 23M     -0.116000
     12 C12         2.7490   -1.5390    6.4390 c3        1 23M     -0.062800
     13 C13         2.0750   -0.5950   -1.2090 ca        1 23M     -0.119000
     14 C14         1.3690   -0.5270   -2.3960 ca        1 23M     -0.109000
     15 C15        -0.0120   -0.2250   -2.4100 ca        1 23M     -0.309900
     16 C16        -0.7240    0.0160   -1.2340 ca        1 23M     -0.025000
     17 C17        -0.7290   -0.2040   -3.6950 ce        1 23M      0.606800
     18 N18        -1.6420   -0.9490   -4.1860 n2        1 23M     -0.724100
     19 N19        -0.2650    0.9460   -4.5600 n4        1 23M     -0.828600
     20 HN3         2.7270   -0.5250    1.6210 hn        1 23M      0.319700
     21 H5         -1.4320    0.3840    1.7100 ha        1 23M      0.176000
     22 H7         -0.7060    1.5780    3.7270 ha        1 23M      0.139000
     23 H8         -0.5610    1.7330    6.2110 ha        1 23M      0.147000
     24 H9          1.0390    0.2890    7.4660 ha        1 23M      0.148000
     25 H11         2.3480   -1.5030    3.7630 ha        1 23M      0.129000
     26 H121        2.2560   -1.9690    7.3460 hc        1 23M      0.053700
     27 H122        3.6250   -0.9280    6.7750 hc        1 23M      0.053700
     28 H123        3.1280   -2.3810    5.8110 hc        1 23M      0.053700
     29 H13         3.1470   -0.8410   -1.2020 ha        1 23M      0.159000
     30 H14         1.8900   -0.7440   -3.3410 ha        1 23M      0.130000
     31 H16        -1.8010    0.2410   -1.2520 ha        1 23M      0.149000
     32 HN18       -1.9610   -1.7260   -3.6440 hn        1 23M      0.488400
     33 H191        0.7570    0.9000   -4.6220 hn        1 23M      0.466800
     34 H192       -0.5340    1.8190   -4.0970 hn        1 23M      0.466800
     35 H193       -0.6730    0.9180   -5.5020 hn        1 23M      0.466800
@<TRIPOS>BOND
     1    1    2 ar  
     2    1    5 1   
     3    1   16 ar  
     4    2    3 1   
     5    2   13 ar  
     6    3    4 1   
     7    3   20 1   
     8    4    5 2   
     9    4    6 1   
    10    5   21 1   
    11    6    7 ar  
    12    6   11 ar  
    13    7    8 ar  
    14    7   22 1   
    15    8    9 ar  
    16    8   23 1   
    17    9   10 ar  
    18    9   24 1   
    19   10   11 ar  
    20   10   12 1   
    21   11   25 1   
    22   12   26 1   
    23   12   27 1   
    24   12   28 1   
    25   13   14 ar  
    26   13   29 1   
    27   14   15 ar  
    28   14   30 1   
    29   15   16 ar  
    30   15   17 1   
    31   16   31 1   
    32   17   18 2   
    33   17   19 1   
    34   18   32 1   
    35   19   33 1   
    36   19   34 1   
    37   19   35 1   
@<TRIPOS>SUBSTRUCTURE
     1 23M         1 TEMP              0 ****  ****    0 ROOT
