@<TRIPOS>MOLECULE
23N
   25    25     1     0     0
SMALL
bcc


@<TRIPOS>ATOM
      1 CAH        -0.1720    0.8310    0.1750 ca        1 23N     -0.129500
      2 CAF         1.2110    0.9230    0.0250 ca        1 23N     -0.144500
      3 CAE         2.0560    0.2400    0.8960 ca        1 23N     -0.152000
      4 CAG         1.5130   -0.5400    1.9180 ca        1 23N     -0.144500
      5 CAI         0.1320   -0.6360    2.0730 ca        1 23N     -0.129500
      6 CAM        -0.7230    0.0530    1.2010 ca        1 23N     -0.063300
      7 CAJ        -2.2000   -0.0140    1.3780 c3        1 23N     -0.031100
      8 CAN        -2.7170   -1.4270    1.5970 c3        1 23N     -0.212700
      9 CAL        -2.9710   -1.6750    3.1240 c         1 23N      0.923600
     10 OAD        -2.0250   -2.1770    3.7870 o         1 23N     -0.821800
     11 OAA        -4.1020   -1.3610    3.5820 o         1 23N     -0.821800
     12 CAK        -4.0510   -1.6640    0.9090 c3        1 23N     -0.033700
     13 NAO        -3.9830   -1.6770   -0.6080 no        1 23N      0.216300
     14 OAC        -3.8040   -2.7170   -1.1860 o         1 23N     -0.252000
     15 OAB        -4.1380   -0.6490   -1.2170 o         1 23N     -0.252000
     16 HAH        -0.8350    1.3680   -0.5190 ha        1 23N      0.163500
     17 HAF         1.6330    1.5350   -0.7840 ha        1 23N      0.115500
     18 HAE         3.1460    0.3120    0.7780 ha        1 23N      0.110000
     19 HAG         2.1760   -1.0840    2.6070 ha        1 23N      0.115500
     20 HAI        -0.3120   -1.2580    2.8780 ha        1 23N      0.163500
     21 HAJ1       -2.4790    0.6120    2.2720 hc        1 23N      0.055200
     22 HAJ2       -2.7030    0.4530    0.4880 hc        1 23N      0.055200
     23 HAN        -1.9620   -2.1790    1.2490 hc        1 23N      0.069700
     24 HAK1       -4.4530   -2.6700    1.2120 h1        1 23N      0.101200
     25 HAK2       -4.7760   -0.8540    1.1960 h1        1 23N      0.101200
@<TRIPOS>BOND
     1    1    2 ar  
     2    1    6 ar  
     3    1   16 1   
     4    2    3 ar  
     5    2   17 1   
     6    3    4 ar  
     7    3   18 1   
     8    4    5 ar  
     9    4   19 1   
    10    5    6 ar  
    11    5   20 1   
    12    6    7 1   
    13    7    8 1   
    14    7   21 1   
    15    7   22 1   
    16    8    9 1   
    17    8   12 1   
    18    8   23 1   
    19    9   10 1   
    20    9   11 1   
    21   12   13 1   
    22   12   24 1   
    23   12   25 1   
    24   13   14 1   
    25   13   15 1   
@<TRIPOS>SUBSTRUCTURE
     1 23N         1 TEMP              0 ****  ****    0 ROOT
