@<TRIPOS>MOLECULE
23N
   25    25     1     0     0
SMALL
bcc


@<TRIPOS>ATOM
      1 CAH        -1.6550    1.9180   -0.4360 ca        1 23N     -0.129500
      2 CAF        -2.9580    2.2420   -0.0630 ca        1 23N     -0.144500
      3 CAE        -3.8590    1.2350    0.2760 ca        1 23N     -0.152000
      4 CAG        -3.4510   -0.0990    0.2420 ca        1 23N     -0.144500
      5 CAI        -2.1500   -0.4280   -0.1310 ca        1 23N     -0.129500
      6 CAM        -1.2400    0.5820   -0.4760 ca        1 23N     -0.063300
      7 CAJ         0.1430    0.2390   -0.9100 c3        1 23N     -0.031100
      8 CAN         0.8230   -0.7790   -0.0090 c3        1 23N     -0.212700
      9 CAL         0.7440   -2.2050   -0.6580 c         1 23N      0.923600
     10 OAD        -0.2330   -2.9290   -0.3330 o         1 23N     -0.821800
     11 OAA         1.6660   -2.5300   -1.4530 o         1 23N     -0.821800
     12 CAK         2.3010   -0.4870    0.1770 c3        1 23N     -0.033700
     13 NAO         2.5980    0.7660    0.9830 no        1 23N      0.216300
     14 OAC         2.7370    0.6860    2.1760 o         1 23N     -0.252000
     15 OAB         2.7180    1.8220    0.4150 o         1 23N     -0.252000
     16 HAH        -0.9460    2.7180   -0.6970 ha        1 23N      0.163500
     17 HAF        -3.2730    3.2950   -0.0330 ha        1 23N      0.115500
     18 HAE        -4.8860    1.4900    0.5710 ha        1 23N      0.110000
     19 HAG        -4.1570   -0.8970    0.5110 ha        1 23N      0.115500
     20 HAI        -1.8120   -1.4860   -0.1560 ha        1 23N      0.163500
     21 HAJ1        0.0930   -0.1810   -1.9540 hc        1 23N      0.055200
     22 HAJ2        0.7570    1.1790   -0.9700 hc        1 23N      0.055200
     23 HAN         0.3070   -0.8280    0.9860 hc        1 23N      0.069700
     24 HAK1        2.7830   -1.3370    0.7340 h1        1 23N      0.101200
     25 HAK2        2.7910   -0.3520   -0.8260 h1        1 23N      0.101200
@<TRIPOS>BOND
     1    1    2 ar  
     2    1    6 ar  
     3    1   16 1   
     4    2    3 ar  
     5    2   17 1   
     6    3    4 ar  
     7    3   18 1   
     8    4    5 ar  
     9    4   19 1   
    10    5    6 ar  
    11    5   20 1   
    12    6    7 1   
    13    7    8 1   
    14    7   21 1   
    15    7   22 1   
    16    8    9 1   
    17    8   12 1   
    18    8   23 1   
    19    9   10 1   
    20    9   11 1   
    21   12   13 1   
    22   12   24 1   
    23   12   25 1   
    24   13   14 1   
    25   13   15 1   
@<TRIPOS>SUBSTRUCTURE
     1 23N         1 TEMP              0 ****  ****    0 ROOT
