@<TRIPOS>MOLECULE
23N
   25    21     1     0     0
SMALL
bcc


@<TRIPOS>ATOM
      1 CAH         1.5330    0.6030   -1.1100 c1        1 23N     -0.139000
      2 CAF         2.9310    0.6420   -1.1160 c1        1 23N     -0.140250
      3 CAE         3.6230    0.8680    0.0630 c1        1 23N     -0.140250
      4 CAG         2.9270    1.0560    1.2530 c1        1 23N     -0.140250
      5 CAI         1.5390    1.0170    1.2600 c1        1 23N     -0.140250
      6 CAM         0.8410    0.7890    0.0720 c1        1 23N     -0.056000
      7 CAJ        -0.6990    0.8680    0.0600 c2        1 23N     -0.117000
      8 CAN        -1.2680   -0.4950   -0.1960 c3        1 23N     -0.202000
      9 CAL        -0.9830   -1.3870    0.9880 c2        1 23N      0.343000
     10 OAD        -1.3990   -1.0690    2.1240 o         1 23N     -0.556500
     11 OAA        -0.3340   -2.4720    0.8270 o         1 23N     -0.556500
     12 CAK        -2.7860   -0.3880   -0.4000 c3        1 23N     -0.093000
     13 NAO        -3.3030   -1.6620   -0.8620 no        1 23N      0.497000
     14 OAC        -3.2770   -2.7460   -0.0360 o         1 23N     -0.402000
     15 OAB        -3.8420   -1.7410   -1.9540 o         1 23N     -0.402000
     16 HAH         1.0490    0.4440   -1.9360 ha        1 23N      0.125000
     17 HAF         3.4240    0.5080   -1.9600 ha        1 23N      0.135750
     18 HAE         4.6030    0.8170    0.0720 ha        1 23N      0.135750
     19 HAG         3.4130    1.2160    2.0820 ha        1 23N      0.135750
     20 HAI         1.0520    1.1920    2.0850 ha        1 23N      0.135750
     21 HAJ1       -1.0170    1.1970    0.9290 ha        1 23N      0.094500
     22 HAJ2       -0.9840    1.4680   -0.6330 ha        1 23N      0.094500
     23 HAN        -0.8560   -0.8750   -0.9990 hc        1 23N      0.109000
     24 HAK1       -2.9770    0.3010   -1.0630 h1        1 23N      0.140500
     25 HAK2       -3.2120   -0.1520    0.4490 h1        1 23N      0.140500
@<TRIPOS>BOND
     1    1    6 1   
     2    1   16 1   
     3    2    3 1   
     4    2   17 1   
     5    3   18 1   
     6    4    5 1   
     7    4   19 1   
     8    5   20 1   
     9    7    8 1   
    10    7   21 1   
    11    7   22 1   
    12    8    9 1   
    13    8   12 1   
    14    8   23 1   
    15    9   10 1   
    16    9   11 1   
    17   12   13 1   
    18   12   24 1   
    19   12   25 1   
    20   13   14 1   
    21   13   15 1   
@<TRIPOS>SUBSTRUCTURE
     1 23N         1 TEMP              0 ****  ****    0 ROOT
