@<TRIPOS>MOLECULE
23P
   22    21     1     0     0
SMALL
bcc


@<TRIPOS>ATOM
      1 N          -1.0660    1.8020    0.4030 n3        1 23P     -0.899800
      2 CA         -1.4100    0.5960   -0.3370 c3        1 23P     -0.008500
      3 CB         -0.3240   -0.4940   -0.2400 c3        1 23P      0.084000
      4 NG          0.9680   -0.0680   -0.7320 n         1 23P     -0.531900
      5 CD          2.1320   -0.2720   -0.0240 c         1 23P      0.638100
      6 CE          3.3610    0.4930   -0.5030 c3        1 23P     -0.158400
      7 CZ          4.6060    0.0340    0.2070 c3        1 23P     -0.080100
      8 C          -2.7750   -0.0600    0.0610 c         1 23P      0.895600
      9 O          -3.4720    0.5220    0.9390 o         1 23P     -0.834800
     10 OE          2.2120   -1.0830    0.9240 o         1 23P     -0.631100
     11 O1         -3.1060   -1.1150   -0.5440 o         1 23P     -0.834800
     12 H1         -1.9020    2.3610    0.4650 hn        1 23P      0.336300
     13 H2         -0.8340    1.5420    1.3460 hn        1 23P      0.336300
     14 H4         -1.5180    0.9040   -1.4190 h1        1 23P      0.040700
     15 H5         -0.2250   -0.8470    0.8250 h1        1 23P      0.071200
     16 H6         -0.6730   -1.3670   -0.8650 h1        1 23P      0.071200
     17 H7          0.9460    0.7260   -1.3320 hn        1 23P      0.294500
     18 H8          3.4810    0.3560   -1.6090 hc        1 23P      0.052200
     19 H9          3.1910    1.5860   -0.3100 hc        1 23P      0.052200
     20 H10         4.4920    0.1570    1.3110 hc        1 23P      0.036033
     21 H11         4.7930   -1.0480    0.0030 hc        1 23P      0.036033
     22 H12         5.4880    0.6260   -0.1370 hc        1 23P      0.036033
@<TRIPOS>BOND
     1    1    2 1   
     2    1   12 1   
     3    1   13 1   
     4    2    3 1   
     5    2    8 1   
     6    2   14 1   
     7    3    4 1   
     8    3   15 1   
     9    3   16 1   
    10    4    5 1   
    11    4   17 1   
    12    5    6 1   
    13    5   10 2   
    14    6    7 1   
    15    6   18 1   
    16    6   19 1   
    17    7   20 1   
    18    7   21 1   
    19    7   22 1   
    20    8    9 1   
    21    8   11 1   
@<TRIPOS>SUBSTRUCTURE
     1 23P         1 TEMP              0 ****  ****    0 ROOT
