@<TRIPOS>MOLECULE
23P
   22    20     1     0     0
SMALL
bcc


@<TRIPOS>ATOM
      1 N           0.9280   -2.8890    1.3640 n3        1 23P     -0.315000
      2 CA         -0.0200   -2.2560    0.5130 c3        1 23P     -0.147000
      3 CB          0.6030   -1.0270   -0.1080 c3        1 23P     -0.014000
      4 NG         -0.2140    0.1060    0.1630 n3        1 23P     -0.348000
      5 CD          0.1840    1.3910   -0.2870 c1        1 23P      0.288000
      6 CE         -0.6970    2.5920   -0.0200 c2        1 23P     -0.183000
      7 CZ         -0.1020    3.8120   -0.6880 c3        1 23P     -0.208000
      8 C          -0.4360   -3.2160   -0.5790 c2        1 23P      0.305000
      9 O          -1.6570   -3.4350   -0.7920 o         1 23P     -0.578000
     10 OE          1.2260    1.5260   -0.8970 o         1 23P     -0.426000
     11 O1          0.4390   -3.7950   -1.2740 o         1 23P     -0.578000
     12 H1          0.6630   -3.7500    1.5300 hn        1 23P      0.129000
     13 H2          0.9830   -2.4300    2.1550 hn        1 23P      0.129000
     14 H4         -0.8040   -1.9970    1.0350 h1        1 23P      0.089000
     15 H5          0.6770   -1.1510   -1.0760 h1        1 23P      0.084000
     16 H6          1.4940   -0.8850    0.2730 h1        1 23P      0.084000
     17 H7         -0.9950    0.0050    0.6240 hn        1 23P      0.270000
     18 H8         -1.5920    2.4270   -0.3810 ha        1 23P      0.096500
     19 H9         -0.7580    2.7450    0.9440 ha        1 23P      0.096500
     20 H10         0.7900    3.9840   -0.3200 hc        1 23P      0.076000
     21 H11        -0.0330    3.6550   -1.6530 hc        1 23P      0.076000
     22 H12        -0.6780    4.5880   -0.5240 hc        1 23P      0.076000
@<TRIPOS>BOND
     1    1    2 1   
     2    1   12 1   
     3    1   13 1   
     4    2    3 1   
     5    2    8 1   
     6    2   14 1   
     7    3    4 1   
     8    3   15 1   
     9    3   16 1   
    10    4    5 1   
    11    4   17 1   
    12    5   10 1   
    13    6    7 1   
    14    6   18 1   
    15    6   19 1   
    16    7   20 1   
    17    7   21 1   
    18    7   22 1   
    19    8    9 1   
    20    8   11 1   
@<TRIPOS>SUBSTRUCTURE
     1 23P         1 TEMP              0 ****  ****    0 ROOT
