@<TRIPOS>MOLECULE
23Q
   55    56     1     0     0
SMALL
bcc


@<TRIPOS>ATOM
      1 N1         -0.3120   -1.0870   -1.4820 nx        1 23Q      0.179000
      2 C4          2.1230   -0.8340   -1.1770 c3        1 23Q      0.027000
      3 C5          0.5940   -0.8960    0.8390 c3        1 23Q     -0.178000
      4 C6          1.0000   -1.4040   -1.9130 c2        1 23Q     -0.750000
      5 C7         -2.9520   -1.0540   -0.4750 ca        1 23Q     -0.063000
      6 C8          1.9790   -1.2950    0.3090 c3        1 23Q     -0.109000
      7 C10         3.4060   -1.2300   -1.8210 c2        1 23Q      0.236000
      8 C13        -4.5180   -0.5930    1.3210 ca        1 23Q      0.098000
      9 C15         4.8240    0.5760    5.1680 c2        1 23Q     -0.203000
     10 C22         4.5290   -1.4890   -1.1670 c1        1 23Q     -0.664000
     11 C26        -6.8370   -0.2210    0.9450 c3        1 23Q     -0.085000
     12 F21         3.1470    0.8800    3.4950 f         1 23Q     -0.235000
     13 C18         5.9970    0.9590    5.5850 c1        1 23Q     -0.125000
     14 C25         7.1660    1.3170    6.0180 c2        1 23Q     -0.146000
     15 C23         5.6680   -1.7690   -0.6650 c1        1 23Q      0.224000
     16 N17         3.0580   -0.7590    1.2010 nz        1 23Q     -0.072000
     17 C2         -0.5190   -1.4970   -0.0280 c3        1 23Q     -0.037000
     18 C3         -1.9020   -1.1440    0.4440 ca        1 23Q     -0.126000
     19 C9         -2.1610   -0.9730    1.8140 ca        1 23Q     -0.173000
     20 C16        -2.7570   -1.2300   -1.9410 c3        1 23Q     -0.150000
     21 C14        -1.3680   -1.7220   -2.3230 c3        1 23Q     -0.105000
     22 C12        -4.2550   -0.7730   -0.0330 ca        1 23Q     -0.181000
     23 O20        -5.7470   -0.3130    1.8610 os        1 23Q     -0.172000
     24 C11        -3.4490   -0.6990    2.2610 ca        1 23Q      0.074000
     25 O19        -3.8090   -0.5000    3.5730 os        1 23Q     -0.171000
     26 C27        -2.8020   -0.7360    4.5520 c3        1 23Q     -0.083000
     27 H4          2.1030    0.3030   -1.1740 hc        1 23Q      0.090000
     28 H5          0.4900    0.2210    0.8720 hc        1 23Q      0.110000
     29 H5A         0.4730   -1.2880    1.8840 hc        1 23Q      0.110000
     30 H6         -0.4490   -0.0670   -1.5140 hn        1 23Q      0.201000
     31 H6A         1.1190   -2.1770   -2.6660 hx        1 23Q      0.176000
     32 H8          2.0770   -2.4210    0.3300 hx        1 23Q      0.152000
     33 H15         4.4770   -0.4610    5.3120 ha        1 23Q      0.145000
     34 H22         3.3700   -1.2690   -2.9320 ha        1 23Q      0.171000
     35 H24         3.0960    1.8510    5.2890 h1        1 23Q      0.107500
     36 H24A        4.3640    2.4070    4.0880 h1        1 23Q      0.107500
     37 H26        -6.9850   -1.1900    0.4100 h1        1 23Q      0.095000
     38 H26A       -6.6720    0.6120    0.2200 h1        1 23Q      0.095000
     39 H26B       -7.7090    0.0010    1.6130 h1        1 23Q      0.095000
     40 H25         8.0730    1.2420    5.3980 ha        1 23Q      0.153000
     41 H23         7.3200    1.7150    7.0340 ha        1 23Q      0.153000
     42 HN17        3.9730   -1.1240    0.8870 hn        1 23Q      0.254333
     43 HN1A        2.8950   -1.0300    2.1760 hn        1 23Q      0.254333
     44 H2         -0.4120   -2.6250   -0.0050 hx        1 23Q      0.141000
     45 H9         -1.3510   -1.0640    2.5500 ha        1 23Q      0.135000
     46 H16        -1.2910   -2.8380   -2.1950 hx        1 23Q      0.139000
     47 H16A       -2.9660   -0.2500   -2.4530 hc        1 23Q      0.122500
     48 H14        -3.5030   -1.9730   -2.3360 hc        1 23Q      0.122500
     49 H14A       -1.1480   -1.4730   -3.4000 hx        1 23Q      0.139000
     50 H12        -5.0670   -0.7020   -0.7730 ha        1 23Q      0.156000
     51 H27        -1.9700    0.0010    4.4440 h1        1 23Q      0.089000
     52 H27A       -3.3470   -0.5780    5.5180 h1        1 23Q      0.089000
     53 H27B       -2.4170   -1.7820    4.4820 h1        1 23Q      0.089000
     54 C24         3.8470    1.5060    4.5210 c3        1 23Q      0.048000
     55 H173        3.0780    0.2640    1.1620 hn        1 23Q      0.254333
@<TRIPOS>BOND
     1    1    4 1   
     2    1   17 1   
     3    1   21 1   
     4    1   30 1   
     5    2    4 1   
     6    2    6 1   
     7    2    7 1   
     8    2   27 1   
     9    3    6 1   
    10    3   17 1   
    11    3   28 1   
    12    3   29 1   
    13    4   31 1   
    14    5   18 1   
    15    5   20 1   
    16    5   22 1   
    17    6   16 1   
    18    6   32 1   
    19    7   10 1   
    20    7   34 1   
    21    8   22 1   
    22    8   23 1   
    23    8   24 1   
    24    9   13 1   
    25    9   33 1   
    26    9   54 1   
    27   10   15 1   
    28   11   23 1   
    29   11   37 1   
    30   11   38 1   
    31   11   39 1   
    32   12   54 1   
    33   13   14 1   
    34   14   40 1   
    35   14   41 1   
    36   16   42 1   
    37   16   43 1   
    38   16   55 1   
    39   17   18 1   
    40   17   44 1   
    41   18   19 1   
    42   19   24 1   
    43   19   45 1   
    44   20   21 1   
    45   20   47 1   
    46   20   48 1   
    47   21   46 1   
    48   21   49 1   
    49   22   50 1   
    50   24   25 1   
    51   25   26 1   
    52   26   51 1   
    53   26   52 1   
    54   26   53 1   
    55   35   54 1   
    56   36   54 1   
@<TRIPOS>SUBSTRUCTURE
     1 23Q         1 TEMP              0 ****  ****    0 ROOT
