@<TRIPOS>MOLECULE
23Q
   54    57     1     0     0
SMALL
bcc


@<TRIPOS>ATOM
      1 N1          0.1140   -1.3390   -0.0800 n3        1 23Q     -0.736600
      2 C4         -2.0410   -0.1420    0.1720 c3        1 23Q     -0.024400
      3 C5          0.1460    1.0920    0.2480 c3        1 23Q     -0.068400
      4 C6         -1.2820   -1.3140   -0.4750 c3        1 23Q      0.184800
      5 C7          2.9430   -1.3640    0.0890 ca        1 23Q     -0.061300
      6 C8         -1.3320    1.1880   -0.1690 c3        1 23Q      0.179500
      7 C10        -3.4640   -0.1420   -0.2870 ca        1 23Q     -0.082300
      8 C13         5.0790   -0.2240    0.2200 ca        1 23Q      0.106100
      9 C15        -4.4920   -0.2770    0.6510 ca        1 23Q     -0.115000
     10 C22        -3.7910   -0.0080   -1.6430 ca        1 23Q     -0.129000
     11 C26         7.0980   -1.3590    0.7510 c3        1 23Q      0.110700
     12 F21        -8.1800   -0.4110    0.7930 f         1 23Q     -0.242300
     13 C18        -5.8310   -0.2810    0.2430 ca        1 23Q     -0.126300
     14 C25        -6.1450   -0.1490   -1.1110 ca        1 23Q     -0.111000
     15 C23        -5.1230   -0.0130   -2.0500 ca        1 23Q     -0.128000
     16 N17        -1.9830    2.3220    0.4660 n3        1 23Q     -0.913800
     17 C2          0.8110   -0.1030   -0.4580 c3        1 23Q      0.238800
     18 C3          2.2970   -0.1550   -0.1940 ca        1 23Q     -0.069300
     19 C9          3.0540    1.0210   -0.3060 ca        1 23Q     -0.175000
     20 C16         2.1860   -2.6410    0.1740 c3        1 23Q     -0.032100
     21 C14         0.8160   -2.5380   -0.4950 c3        1 23Q      0.181800
     22 C12         4.3290   -1.3930    0.3020 ca        1 23Q     -0.181000
     23 O20         6.4430   -0.1410    0.4140 os        1 23Q     -0.303900
     24 C11         4.4310    1.0000   -0.0970 ca        1 23Q      0.100100
     25 O19         5.2610    2.1000   -0.1870 os        1 23Q     -0.304900
     26 C27         4.6190    3.3510   -0.4000 c3        1 23Q      0.110700
     27 H4         -2.0110   -0.2760    1.2920 hc        1 23Q      0.083700
     28 H5          0.6700    2.0360   -0.0440 hc        1 23Q      0.059700
     29 H5A         0.2300    0.9780    1.3590 hc        1 23Q      0.059700
     30 H6         -1.4020   -1.2540   -1.5970 h1        1 23Q      0.035200
     31 H6A        -1.7580   -2.2760   -0.1320 h1        1 23Q      0.035200
     32 H8         -1.3530    1.2880   -1.3020 h1        1 23Q      0.004700
     33 H15        -4.2480   -0.3780    1.7200 ha        1 23Q      0.139000
     34 H22        -2.9920    0.1000   -2.3930 ha        1 23Q      0.133000
     35 H24        -6.7920    0.4130    2.0390 h1        1 23Q      0.052700
     36 H24A       -6.7380   -1.4050    1.8360 h1        1 23Q      0.052700
     37 H26         8.1670   -1.0510    0.8740 h1        1 23Q      0.043367
     38 H26A        6.6950   -1.7750    1.7070 h1        1 23Q      0.043367
     39 H26B        6.9950   -2.1040   -0.0740 h1        1 23Q      0.043367
     40 H25        -7.1990   -0.1540   -1.4300 ha        1 23Q      0.148000
     41 H23        -5.3720    0.0900   -3.1170 ha        1 23Q      0.135000
     42 HN17       -1.5880    3.1770    0.1310 hn        1 23Q      0.353300
     43 HN1A       -2.9660    2.3090    0.2770 hn        1 23Q      0.353300
     44 H2          0.7070    0.0690   -1.5800 h1        1 23Q      0.024700
     45 H9          2.5610    1.9670   -0.5710 ha        1 23Q      0.139000
     46 H16         2.7610   -3.4670   -0.3210 hc        1 23Q      0.056700
     47 H16A        2.0580   -2.9150    1.2560 hc        1 23Q      0.056700
     48 H14         0.1990   -3.4310   -0.1950 h1        1 23Q      0.033200
     49 H14A        0.9520   -2.5800   -1.6170 h1        1 23Q      0.033200
     50 H12         4.8120   -2.3530    0.5330 ha        1 23Q      0.139000
     51 H27         4.1120    3.3690   -1.3960 h1        1 23Q      0.043033
     52 H27A        3.8870    3.5680    0.4150 h1        1 23Q      0.043033
     53 H27B        5.4650    4.0830   -0.3760 h1        1 23Q      0.043033
     54 C24        -6.8920   -0.4280    1.2940 c3        1 23Q      0.206200
@<TRIPOS>BOND
     1    1    4 1   
     2    1   17 1   
     3    1   21 1   
     4    2    4 1   
     5    2    6 1   
     6    2    7 1   
     7    2   27 1   
     8    3    6 1   
     9    3   17 1   
    10    3   28 1   
    11    3   29 1   
    12    4   30 1   
    13    4   31 1   
    14    5   18 ar  
    15    5   20 1   
    16    5   22 ar  
    17    6   16 1   
    18    6   32 1   
    19    7    9 ar  
    20    7   10 ar  
    21    8   22 ar  
    22    8   23 1   
    23    8   24 ar  
    24    9   13 ar  
    25    9   33 1   
    26   10   15 ar  
    27   10   34 1   
    28   11   23 1   
    29   11   37 1   
    30   11   38 1   
    31   11   39 1   
    32   12   54 1   
    33   13   14 ar  
    34   13   54 1   
    35   14   15 ar  
    36   14   40 1   
    37   15   41 1   
    38   16   42 1   
    39   16   43 1   
    40   17   18 1   
    41   17   44 1   
    42   18   19 ar  
    43   19   24 ar  
    44   19   45 1   
    45   20   21 1   
    46   20   46 1   
    47   20   47 1   
    48   21   48 1   
    49   21   49 1   
    50   22   50 1   
    51   24   25 1   
    52   25   26 1   
    53   26   51 1   
    54   26   52 1   
    55   26   53 1   
    56   35   54 1   
    57   36   54 1   
@<TRIPOS>SUBSTRUCTURE
     1 23Q         1 TEMP              0 ****  ****    0 ROOT
