@<TRIPOS>MOLECULE
23Q
   55    56     1     0     0
SMALL
bcc


@<TRIPOS>ATOM
      1 N1         -0.3310    1.0330   -0.6510 n4        1 23Q      0.035000
      2 C4          1.5170    0.3200    1.1030 c3        1 23Q     -0.101000
      3 C5          0.1020    1.0100    3.0690 c3        1 23Q     -0.264000
      4 C6          0.5000   -0.0380    0.0240 cx        1 23Q     -0.009000
      5 C7         -3.3480   -0.0060    0.0920 ca        1 23Q     -0.157000
      6 C8          0.9080   -0.1250    2.4530 c3        1 23Q     -0.045000
      7 C10         2.8750   -0.2670    0.7360 c3        1 23Q      0.042000
      8 C13        -4.5170   -2.0350    0.6990 ca        1 23Q      0.039000
      9 C15         4.0370    0.3180    1.5630 c2        1 23Q     -0.246000
     10 C22         3.0660   -1.6900    0.9410 c1        1 23Q     -0.238000
     11 C26        -6.8870   -2.2040    0.6540 c3        1 23Q     -0.081000
     12 F21         7.2130    2.1800    4.5400 f         1 23Q     -0.048000
     13 C18         5.0260   -0.3820    2.1510 c2        1 23Q     -0.164000
     14 C25         5.1700   -1.9070    2.1670 c3        1 23Q     -0.024000
     15 C23         3.9720   -2.3150    1.4670 c1        1 23Q     -0.144000
     16 N17         1.9390   -0.6280    3.4300 n4        1 23Q     -0.079000
     17 C2         -0.9090    0.1350    0.3150 cu        1 23Q     -0.464000
     18 C3         -2.1140   -0.6080    0.3720 ca        1 23Q      0.059000
     19 C9         -2.0830   -1.9470    0.8120 ca        1 23Q     -0.223000
     20 C16        -0.4570    1.9590   -2.9190 c2        1 23Q     -0.180000
     21 C14        -0.5660    0.9350   -2.0670 c2        1 23Q     -0.170000
     22 C12        -4.5390   -0.7140    0.2500 ca        1 23Q     -0.154000
     23 O20        -5.6300   -2.8270    0.8970 os        1 23Q     -0.185000
     24 C11        -3.2710   -2.6530    0.9850 ca        1 23Q      0.074000
     25 O19        -3.3370   -3.9440    1.4720 os        1 23Q     -0.186000
     26 C27        -2.1760   -4.7400    1.2660 c3        1 23Q     -0.075000
     27 H4          1.6510    1.4400    1.1430 hc        1 23Q      0.117000
     28 H5          0.7260    1.9180    3.2440 hc        1 23Q      0.125000
     29 H5A        -0.3790    0.7000    4.0290 hc        1 23Q      0.125000
     30 H6         -0.2060    1.9890   -0.3380 hn        1 23Q      0.228000
     31 H6A         0.9050   -0.7800   -0.7080 hx        1 23Q      0.137000
     32 H8          0.2080   -1.0030    2.2650 hx        1 23Q      0.176000
     33 H15         4.0450    1.4190    1.5730 ha        1 23Q      0.153000
     34 H22         3.0750   -0.0070   -0.3480 hc        1 23Q      0.151000
     35 H24         5.8600    0.1360    2.6790 ha        1 23Q      0.204000
     36 H24A        8.5660    0.9990    3.6620 ha        1 23Q      0.030000
     37 H26        -7.0320   -1.3260    1.3280 h1        1 23Q      0.086000
     38 H26A       -7.6230   -3.0130    0.8950 h1        1 23Q      0.086000
     39 H26B       -6.9760   -1.8970   -0.4160 h1        1 23Q      0.086000
     40 H25         6.1070   -2.2080    1.6240 hc        1 23Q      0.138000
     41 H23         5.2400   -2.2920    3.2170 hc        1 23Q      0.138000
     42 HN17        2.3100   -1.5310    3.1060 hn        1 23Q      0.251000
     43 HN1A        1.5070   -0.7410    4.3500 hn        1 23Q      0.251000
     44 H2         -0.7190    1.2570    2.3360 hc        1 23Q      0.125000
     45 H9         -1.1190   -2.4340    1.0060 ha        1 23Q      0.118000
     46 H16        -3.3840    1.0360   -0.2520 ha        1 23Q      0.128000
     47 H16A       -0.6740    1.8180   -3.9890 ha        1 23Q      0.144000
     48 H14        -0.1660    2.9780   -2.6320 ha        1 23Q      0.144000
     49 H14A       -0.8820   -0.0810   -2.3780 hx        1 23Q      0.184000
     50 H12        -5.4940   -0.2210    0.0170 ha        1 23Q      0.144000
     51 H27        -1.3630   -4.4250    1.9660 h1        1 23Q      0.079333
     52 H27A       -2.5220   -5.7760    1.5100 h1        1 23Q      0.079333
     53 H27B       -1.8220   -4.6780    0.2090 h1        1 23Q      0.079333
     54 C24         7.4660    1.1720    3.7810 c1        1 23Q      0.031000
     55 H173        2.7170    0.0380    3.4970 hn        1 23Q      0.251000
@<TRIPOS>BOND
     1    1    4 1   
     2    1   17 1   
     3    1   21 1   
     4    1   30 1   
     5    2    4 1   
     6    2    6 1   
     7    2    7 1   
     8    2   27 1   
     9    3    6 1   
    10    3   28 1   
    11    3   29 1   
    12    3   44 1   
    13    4   17 1   
    14    4   31 1   
    15    5   18 1   
    16    5   22 1   
    17    5   46 1   
    18    6   16 1   
    19    6   32 1   
    20    7    9 1   
    21    7   10 1   
    22    7   34 1   
    23    8   22 1   
    24    8   23 1   
    25    8   24 1   
    26    9   13 1   
    27    9   33 1   
    28   10   15 1   
    29   11   23 1   
    30   11   37 1   
    31   11   38 1   
    32   11   39 1   
    33   12   54 1   
    34   13   14 1   
    35   13   35 1   
    36   14   15 1   
    37   14   40 1   
    38   14   41 1   
    39   16   42 1   
    40   16   43 1   
    41   16   55 1   
    42   17   18 1   
    43   18   19 1   
    44   19   24 1   
    45   19   45 1   
    46   20   21 1   
    47   20   47 1   
    48   20   48 1   
    49   21   49 1   
    50   22   50 1   
    51   24   25 1   
    52   25   26 1   
    53   26   51 1   
    54   26   52 1   
    55   26   53 1   
    56   36   54 1   
@<TRIPOS>SUBSTRUCTURE
     1 23Q         1 TEMP              0 ****  ****    0 ROOT
