@<TRIPOS>MOLECULE
23Q
   54    54     1     0     0
SMALL
bcc


@<TRIPOS>ATOM
      1 N1          0.0500    0.5870   -1.2220 n3        1 23Q     -0.263000
      2 C4          2.1410    0.5610    0.1560 c3        1 23Q     -0.064000
      3 C5          0.0830   -0.5640    0.9560 c3        1 23Q     -0.191000
      4 C6          1.5700    0.6090   -1.2240 c3        1 23Q     -0.056000
      5 C7         -2.8530    0.4560   -1.0470 c1        1 23Q     -0.033000
      6 C8          1.5870   -0.5520    0.9580 c3        1 23Q     -0.029000
      7 C10         3.7420    0.3840    0.0510 c2        1 23Q     -0.052000
      8 C13        -4.9180   -0.5160   -0.1980 c1        1 23Q      0.057000
      9 C15         4.5050    1.4650    0.4840 c2        1 23Q     -0.118000
     10 C22         4.3610   -0.7270   -0.5030 c1        1 23Q     -0.112000
     11 C24         6.7190    2.6300    0.7570 c3        1 23Q      0.051000
     12 C26        -7.1450   -0.6350   -0.9500 c3        1 23Q     -0.077000
     13 F21         7.3400    2.3800    1.9160 f         1 23Q     -0.172000
     14 C18         5.8970    1.4310    0.3610 c2        1 23Q     -0.119000
     15 C25         6.5160    0.3230   -0.1920 c2        1 23Q     -0.111000
     16 C23         5.7490   -0.7620   -0.6270 c1        1 23Q     -0.127000
     17 N17         2.0470   -0.4150    2.3230 n3        1 23Q     -0.330000
     18 C2         -0.5000   -0.5100   -0.4500 c3        1 23Q      0.038000
     19 C3         -2.0920   -0.5290   -0.2970 c2        1 23Q     -0.083000
     20 C9         -2.7560   -1.4780    0.4790 c2        1 23Q     -0.111000
     21 C16        -2.0600    1.3680   -2.0910 c2        1 23Q     -0.122000
     22 C14        -0.6770    1.0300   -2.3220 c3        1 23Q     -0.057000
     23 C12        -4.2470    0.4510   -0.9890 c2        1 23Q     -0.194000
     24 O20        -6.2910   -0.4350    0.1320 o         1 23Q     -0.206000
     25 C11        -4.1720   -1.4810    0.5370 c2        1 23Q      0.027000
     26 O19        -4.8420   -2.5040    1.2220 os        1 23Q     -0.215000
     27 C27        -5.1400   -2.1940    2.5800 c3        1 23Q     -0.074000
     28 H4          1.9450    1.4110    0.6100 hc        1 23Q      0.104000
     29 H5         -0.2320   -1.3950    1.3990 hc        1 23Q      0.092000
     30 H5A        -0.2440    0.2210    1.4740 hc        1 23Q      0.092000
     31 H6          1.8920   -0.1940   -1.7230 h1        1 23Q      0.077500
     32 H6A         1.8600    1.4200   -1.6420 h1        1 23Q      0.077500
     33 H8          1.8960   -1.3590    0.6120 h1        1 23Q      0.098000
     34 H15         4.0630    2.2900    0.7540 ha        1 23Q      0.129000
     35 H22         3.8220   -1.4860   -0.8080 ha        1 23Q      0.131000
     36 H24         6.1430    3.3970    0.8610 h1        1 23Q      0.089500
     37 H24A        7.3710    2.8100    0.0770 h1        1 23Q      0.089500
     38 H26        -6.7900   -1.3080   -1.5110 h1        1 23Q      0.084333
     39 H26A       -8.0180   -0.9110   -0.6270 h1        1 23Q      0.084333
     40 H26B       -7.2300    0.1740   -1.4410 h1        1 23Q      0.084333
     41 H25         7.4720    0.3010   -0.2760 ha        1 23Q      0.145000
     42 H23         6.1850   -1.5470   -1.0170 ha        1 23Q      0.133000
     43 HN17        2.2120   -1.2650    2.6840 hn        1 23Q      0.142500
     44 HN1A        1.4170    0.0010    2.8110 hn        1 23Q      0.142500
     45 H2         -0.2320   -1.3700   -0.9210 h1        1 23Q      0.069000
     46 H9         -2.2620   -2.1180    0.9660 ha        1 23Q      0.148000
     47 H16        -2.5370    1.3200   -2.9620 ha        1 23Q      0.097500
     48 H16A       -2.0970    2.2980   -1.7720 ha        1 23Q      0.097500
     49 H14        -0.2320    1.8360   -2.6620 h1        1 23Q      0.074000
     50 H14A       -0.6590    0.3250   -2.9860 h1        1 23Q      0.074000
     51 H12        -4.7270    1.1380   -1.3810 ha        1 23Q      0.139000
     52 H27        -5.2170   -1.2100    2.6870 h1        1 23Q      0.082333
     53 H27A       -4.4190   -2.5320    3.1590 h1        1 23Q      0.082333
     54 H27B       -5.9920   -2.6210    2.8350 h1        1 23Q      0.082333
@<TRIPOS>BOND
     1    1    4 1   
     2    1   18 1   
     3    1   22 1   
     4    2    4 1   
     5    2    6 1   
     6    2    7 1   
     7    2   28 1   
     8    3    6 1   
     9    3   18 1   
    10    3   29 1   
    11    3   30 1   
    12    4   31 1   
    13    4   32 1   
    14    5   19 1   
    15    5   23 1   
    16    6   17 1   
    17    6   33 1   
    18    7    9 1   
    19    7   10 1   
    20    8   23 1   
    21    8   25 1   
    22    9   14 1   
    23    9   34 1   
    24   10   35 1   
    25   11   13 1   
    26   11   14 1   
    27   11   36 1   
    28   11   37 1   
    29   12   24 1   
    30   12   38 1   
    31   12   39 1   
    32   12   40 1   
    33   14   15 1   
    34   15   16 1   
    35   15   41 1   
    36   16   42 1   
    37   17   43 1   
    38   17   44 1   
    39   18   19 1   
    40   18   45 1   
    41   19   20 1   
    42   20   25 1   
    43   20   46 1   
    44   21   22 1   
    45   21   47 1   
    46   21   48 1   
    47   22   49 1   
    48   22   50 1   
    49   23   51 1   
    50   25   26 1   
    51   26   27 1   
    52   27   52 1   
    53   27   53 1   
    54   27   54 1   
@<TRIPOS>SUBSTRUCTURE
     1 23Q         1 TEMP              0 ****  ****    0 ROOT
