@<TRIPOS>MOLECULE
23Q
   55    56     1     0     0
SMALL
bcc


@<TRIPOS>ATOM
      1 N1          0.2090    0.3310    0.7100 n4        1 23Q     -0.032000
      2 C4          2.6700    0.5190    0.8610 c2        1 23Q     -0.075000
      3 C5         -0.0740   -0.2780    4.4330 c3        1 23Q     -0.231000
      4 C6          1.5700    0.0840    0.2270 c2        1 23Q     -0.135000
      5 C7         -2.6020   -0.1410    0.1920 ca        1 23Q      0.034000
      6 C8          0.7210    0.9940    4.1930 c3        1 23Q     -0.105000
      7 C10         4.0250    0.2680    0.3610 cx        1 23Q     -0.019000
      8 C13        -4.4710   -1.6780    0.1720 ca        1 23Q      0.199000
      9 C15         4.7200   -1.0280    0.6960 cx        1 23Q      0.053000
     10 C22         4.2630   -0.7470   -0.6970 cu        1 23Q     -0.576000
     11 C26        -6.6260   -1.0590   -0.6360 c3        1 23Q     -0.091000
     12 F21         5.5130   -1.1110    3.3640 f         1 23Q     -0.176000
     13 C18         6.1500   -1.0350    1.0370 c2        1 23Q     -0.167000
     14 C25         7.1230   -0.7230    0.1760 c2        1 23Q     -0.154000
     15 C23         4.1750   -1.1340   -1.9260 c1        1 23Q      0.279000
     16 N17         0.1650    1.8330    3.1420 n3        1 23Q     -0.380000
     17 C2         -0.4050   -0.9450    1.0480 c1        1 23Q      0.066000
     18 C3         -1.7670   -1.1500    0.7420 ca        1 23Q     -0.262000
     19 C9         -2.3110   -2.4330    1.0160 ca        1 23Q     -0.043000
     20 C16        -2.0300    1.2120   -0.0350 c3        1 23Q     -0.157000
     21 C14        -0.5280    1.1670   -0.2920 c3        1 23Q     -0.147000
     22 C12        -3.9350   -0.4020   -0.0860 ca        1 23Q     -0.237000
     23 O20        -5.7540   -2.0420   -0.0680 os        1 23Q     -0.147000
     24 C11        -3.6380   -2.7020    0.7350 ca        1 23Q      0.015000
     25 O19        -4.2770   -3.9010    0.9510 os        1 23Q     -0.176000
     26 C27        -3.4710   -4.9580    1.4690 c3        1 23Q     -0.087000
     27 H4          2.6340    1.1020    1.8010 ha        1 23Q      0.155000
     28 H5         -0.1430   -0.8950    3.5020 hc        1 23Q      0.093000
     29 H5A        -1.1070   -0.0470    4.7890 hc        1 23Q      0.093000
     30 H6          0.2520    0.8720    1.6440 hn        1 23Q      0.306000
     31 H6A         1.6060   -0.5270   -0.6960 hx        1 23Q      0.189000
     32 H8          1.7700    0.7190    3.8810 h1        1 23Q      0.091500
     33 H15         4.1400   -1.7990    1.2540 hc        1 23Q      0.150000
     34 H22         4.6390    1.1960    0.3100 hc        1 23Q      0.161000
     35 H24         7.4600   -1.0340    2.7630 h1        1 23Q      0.103000
     36 H24A        6.5640   -2.6020    2.4520 h1        1 23Q      0.103000
     37 H26        -6.7340   -0.1890    0.0560 h1        1 23Q      0.107000
     38 H26A       -6.2510   -0.7370   -1.6370 h1        1 23Q      0.107000
     39 H26B       -7.5940   -1.6170   -0.7310 h1        1 23Q      0.107000
     40 H25         6.9160   -0.4460   -0.8680 ha        1 23Q      0.133500
     41 H23         8.1850   -0.7380    0.4580 ha        1 23Q      0.133500
     42 HN17        0.8010    1.5550    5.1700 h1        1 23Q      0.091500
     43 HN1A        0.6810    2.6910    3.0810 hn        1 23Q      0.163500
     44 H2          0.4430   -0.8800    5.2190 hc        1 23Q      0.093000
     45 H9         -1.6490   -3.2030    1.4490 ha        1 23Q      0.178000
     46 H16        -0.3390    0.7370   -1.3170 hx        1 23Q      0.134500
     47 H16A       -2.2520    1.8520    0.8640 hc        1 23Q      0.130000
     48 H14        -2.5140    1.7060   -0.9210 hc        1 23Q      0.130000
     49 H14A       -0.1070    2.2110   -0.2670 hx        1 23Q      0.134500
     50 H12        -4.5760    0.3870   -0.5100 ha        1 23Q      0.164000
     51 H27        -3.0770   -4.6920    2.4800 h1        1 23Q      0.098000
     52 H27A       -2.6360   -5.1980    0.7670 h1        1 23Q      0.098000
     53 H27B       -4.1930   -5.8130    1.5360 h1        1 23Q      0.098000
     54 C24         6.4750   -1.4770    2.4410 c3        1 23Q      0.043000
     55 H173       -0.7950    2.0500    3.3400 hn        1 23Q      0.163500
@<TRIPOS>BOND
     1    1    4 1   
     2    1   17 1   
     3    1   21 1   
     4    1   30 1   
     5    2    4 1   
     6    2    7 1   
     7    2   27 1   
     8    3    6 1   
     9    3   28 1   
    10    3   29 1   
    11    3   44 1   
    12    4   31 1   
    13    5   18 1   
    14    5   20 1   
    15    5   22 1   
    16    6   16 1   
    17    6   32 1   
    18    6   42 1   
    19    7    9 1   
    20    7   10 1   
    21    7   34 1   
    22    8   22 1   
    23    8   23 1   
    24    8   24 1   
    25    9   10 1   
    26    9   13 1   
    27    9   33 1   
    28   10   15 1   
    29   11   23 1   
    30   11   37 1   
    31   11   38 1   
    32   11   39 1   
    33   12   54 1   
    34   13   14 1   
    35   13   54 1   
    36   14   40 1   
    37   14   41 1   
    38   16   43 1   
    39   16   55 1   
    40   17   18 1   
    41   18   19 1   
    42   19   24 1   
    43   19   45 1   
    44   20   21 1   
    45   20   47 1   
    46   20   48 1   
    47   21   46 1   
    48   21   49 1   
    49   22   50 1   
    50   24   25 1   
    51   25   26 1   
    52   26   51 1   
    53   26   52 1   
    54   26   53 1   
    55   35   54 1   
    56   36   54 1   
@<TRIPOS>SUBSTRUCTURE
     1 23Q         1 TEMP              0 ****  ****    0 ROOT
