@<TRIPOS>MOLECULE
23R
   79    82     1     0     0
SMALL
bcc


@<TRIPOS>ATOM
      1 O3          8.1780   -0.6470   -1.1420 oh        1 23R     -0.595800
      2 C3          6.8170   -0.8700   -0.7880 c3        1 23R      0.145100
      3 C2          6.8150   -1.9040    0.3410 c3        1 23R     -0.087700
      4 C29         7.4420   -3.2030   -0.1130 c3        1 23R     -0.087100
      5 C1          5.3840   -2.1430    0.8440 c3        1 23R      0.182300
      6 O1          4.6010   -2.8590   -0.0980 oh        1 23R     -0.588800
      7 C10         4.7240   -0.8420    1.2270 ce        1 23R     -0.119200
      8 C19         4.1150   -0.6980    2.4090 c2        1 23R     -0.182000
      9 C4          6.1720    0.4420   -0.3420 c3        1 23R     -0.077200
     10 C5          4.8140    0.2300    0.2360 ce        1 23R     -0.090200
     11 C6          3.7810    1.0130   -0.1370 cf        1 23R     -0.107000
     12 C7          2.4270    0.8780    0.3470 cf        1 23R     -0.157000
     13 C8          1.4750    1.8250    0.2950 c2        1 23R     -0.070400
     14 C9          1.6810    3.2240   -0.1900 c3        1 23R     -0.045200
     15 C11         0.5780    3.7220   -1.1100 c3        1 23R     -0.072400
     16 C12        -0.8270    3.4070   -0.6270 c3        1 23R     -0.068400
     17 C14         0.0960    1.6210    0.8100 c3        1 23R     -0.038500
     18 C13        -0.9620    1.9290   -0.2890 c3        1 23R     -0.033000
     19 C18        -0.7380    1.0710   -1.5200 c3        1 23R     -0.079100
     20 C15        -0.3430    0.2770    1.3730 c3        1 23R     -0.071400
     21 C16        -1.8700    0.3110    1.2920 c3        1 23R     -0.077400
     22 C17        -2.2660    1.5320    0.4380 c3        1 23R     -0.054700
     23 C20        -3.5240    1.2630   -0.3970 c3        1 23R      0.162800
     24 C22        -4.7090    0.9030    0.5280 c3        1 23R     -0.103400
     25 C21        -3.8870    2.4540   -1.2750 c3        1 23R     -0.103100
     26 O20        -3.3020    0.1310   -1.2650 os        1 23R     -0.416600
     27 C24        -4.3410   -0.8360   -1.1110 c3        1 23R      0.128400
     28 C23        -5.0960   -0.5350    0.1860 c3        1 23R     -0.087700
     29 C25        -6.5950   -0.7130    0.0600 c3        1 23R     -0.100400
     30 C26        -7.0540   -2.1740    0.1510 c3        1 23R      0.148800
     31 C28        -7.0140   -2.6800    1.5890 c3        1 23R     -0.103600
     32 C27        -8.4740   -2.2860   -0.3980 c3        1 23R     -0.103600
     33 O26        -6.1870   -3.0370   -0.5840 oh        1 23R     -0.595800
     34 HO3         8.1750    0.0140   -1.8440 ho        1 23R      0.399000
     35 H3          6.2670   -1.2830   -1.6820 h1        1 23R      0.033700
     36 H2          7.4160   -1.4830    1.1940 hc        1 23R      0.069700
     37 H29         8.4530   -3.0060   -0.5450 hc        1 23R      0.043700
     38 H29A        7.5440   -3.9020    0.7510 hc        1 23R      0.043700
     39 H29B        6.8040   -3.6910   -0.8890 hc        1 23R      0.043700
     40 H1          5.4250   -2.8420    1.7310 h1        1 23R      0.079700
     41 HO1         4.4530   -2.2770   -0.8530 ho        1 23R      0.401000
     42 H19         4.0620   -1.5130    3.1430 ha        1 23R      0.119500
     43 H19A        3.6390    0.2440    2.7120 ha        1 23R      0.119500
     44 H4          6.8290    0.9180    0.4370 hc        1 23R      0.055200
     45 H4A         6.1280    1.1440   -1.2160 hc        1 23R      0.055200
     46 H6          3.9570    1.8020   -0.8900 ha        1 23R      0.122000
     47 H7          2.1830   -0.1080    0.7880 ha        1 23R      0.136000
     48 H9          1.7320    3.8910    0.7150 hc        1 23R      0.046200
     49 H9A         2.6610    3.3240   -0.7260 hc        1 23R      0.046200
     50 H11         0.6830    4.8340   -1.2200 hc        1 23R      0.040700
     51 H11A        0.7220    3.2740   -2.1290 hc        1 23R      0.040700
     52 H12        -1.0620    4.0230    0.2800 hc        1 23R      0.040200
     53 H12A       -1.5590    3.6910   -1.4260 hc        1 23R      0.040200
     54 H14        -0.0440    2.3840    1.6360 hc        1 23R      0.051700
     55 H18         0.3160    1.1610   -1.8790 hc        1 23R      0.042700
     56 H18A       -0.9430   -0.0020   -1.2840 hc        1 23R      0.042700
     57 H18B       -1.4290    1.3820   -2.3410 hc        1 23R      0.042700
     58 H15         0.0610   -0.5670    0.7600 hc        1 23R      0.047200
     59 H15A        0.0090    0.1400    2.4240 hc        1 23R      0.047200
     60 H16        -2.2590   -0.6270    0.8190 hc        1 23R      0.045700
     61 H16A       -2.3180    0.3940    2.3130 hc        1 23R      0.045700
     62 H17        -2.5350    2.3840    1.1250 hc        1 23R      0.044700
     63 H22        -4.4200    0.9870    1.6040 hc        1 23R      0.053700
     64 H22A       -5.5650    1.6020    0.3530 hc        1 23R      0.053700
     65 H21        -3.1620    2.5430   -2.1200 hc        1 23R      0.043367
     66 H21A       -4.9050    2.3150   -1.7100 hc        1 23R      0.043367
     67 H21B       -3.8700    3.3920   -0.6720 hc        1 23R      0.043367
     68 H24        -5.0090   -0.7670   -2.0090 h1        1 23R      0.045700
     69 H24A       -3.8420   -1.8380   -1.0880 h1        1 23R      0.045700
     70 H23        -4.7150   -1.2250    0.9890 hc        1 23R      0.069700
     71 H25        -7.1050   -0.1410    0.8790 hc        1 23R      0.048700
     72 H25A       -6.9400   -0.2790   -0.9160 hc        1 23R      0.048700
     73 H28        -7.7030   -2.0720    2.2200 hc        1 23R      0.044200
     74 H28A       -7.3310   -3.7500    1.6200 hc        1 23R      0.044200
     75 H28B       -5.9780   -2.6090    1.9970 hc        1 23R      0.044200
     76 H27        -8.5040   -1.9730   -1.4690 hc        1 23R      0.044200
     77 H27A       -8.8230   -3.3440   -0.3290 hc        1 23R      0.044200
     78 H27B       -9.1630   -1.6350    0.1890 hc        1 23R      0.044200
     79 HO26       -6.1770   -2.7140   -1.4920 ho        1 23R      0.399000
@<TRIPOS>BOND
     1    1    2 1   
     2    1   34 1   
     3    2    3 1   
     4    2    9 1   
     5    2   35 1   
     6    3    4 1   
     7    3    5 1   
     8    3   36 1   
     9    4   37 1   
    10    4   38 1   
    11    4   39 1   
    12    5    6 1   
    13    5    7 1   
    14    5   40 1   
    15    6   41 1   
    16    7    8 2   
    17    7   10 1   
    18    8   42 1   
    19    8   43 1   
    20    9   10 1   
    21    9   44 1   
    22    9   45 1   
    23   10   11 2   
    24   11   12 1   
    25   11   46 1   
    26   12   13 2   
    27   12   47 1   
    28   13   14 1   
    29   13   17 1   
    30   14   15 1   
    31   14   48 1   
    32   14   49 1   
    33   15   16 1   
    34   15   50 1   
    35   15   51 1   
    36   16   18 1   
    37   16   52 1   
    38   16   53 1   
    39   17   18 1   
    40   17   20 1   
    41   17   54 1   
    42   18   19 1   
    43   18   22 1   
    44   19   55 1   
    45   19   56 1   
    46   19   57 1   
    47   20   21 1   
    48   20   58 1   
    49   20   59 1   
    50   21   22 1   
    51   21   60 1   
    52   21   61 1   
    53   22   23 1   
    54   22   62 1   
    55   23   24 1   
    56   23   25 1   
    57   23   26 1   
    58   24   28 1   
    59   24   63 1   
    60   24   64 1   
    61   25   65 1   
    62   25   66 1   
    63   25   67 1   
    64   26   27 1   
    65   27   28 1   
    66   27   68 1   
    67   27   69 1   
    68   28   29 1   
    69   28   70 1   
    70   29   30 1   
    71   29   71 1   
    72   29   72 1   
    73   30   31 1   
    74   30   32 1   
    75   30   33 1   
    76   31   73 1   
    77   31   74 1   
    78   31   75 1   
    79   32   76 1   
    80   32   77 1   
    81   32   78 1   
    82   33   79 1   
@<TRIPOS>SUBSTRUCTURE
     1 23R         1 TEMP              0 ****  ****    0 ROOT
