@<TRIPOS>MOLECULE
23R
   79    82     1     0     0
SMALL
bcc


@<TRIPOS>ATOM
      1 O3         -0.5630   -0.6380    0.0530 oh        1 23R     -0.602800
      2 C3          0.8380   -0.4090    0.1670 c3        1 23R      0.148100
      3 C2          1.2340   -0.7530    1.6050 c3        1 23R     -0.092700
      4 C29         0.4200    0.0420    2.6000 c3        1 23R     -0.094100
      5 C1          2.7400   -0.5230    1.7870 c3        1 23R      0.184300
      6 O1          3.1030    0.8470    1.6490 oh        1 23R     -0.589800
      7 C10         3.5320   -1.2950    0.7610 ce        1 23R     -0.068200
      8 C19         4.5810   -2.0380    1.1350 c2        1 23R     -0.195000
      9 C4          1.6010   -1.2850   -0.8250 c3        1 23R     -0.072200
     10 C5          3.0760   -1.1960   -0.6240 ce        1 23R     -0.070200
     11 C6          3.8980   -1.0510   -1.6840 cf        1 23R     -0.108000
     12 C7          5.3350   -0.9180   -1.6060 cf        1 23R     -0.149000
     13 C8          6.2040   -1.2160   -2.5870 c2        1 23R     -0.079400
     14 C9          5.8360   -1.8340   -3.8970 c3        1 23R     -0.043200
     15 C11         6.5160   -1.1860   -5.0920 c3        1 23R     -0.072400
     16 C12         7.9980   -0.9180   -4.8980 c3        1 23R     -0.068400
     17 C14         7.6740   -1.0490   -2.4520 c3        1 23R     -0.036500
     18 C13         8.2440   -0.1650   -3.5990 c3        1 23R     -0.033000
     19 C18         7.5700    1.1950   -3.6280 c3        1 23R     -0.079100
     20 C15         8.2850   -0.4500   -1.1930 c3        1 23R     -0.072400
     21 C16         9.6700    0.0270   -1.6320 c3        1 23R     -0.076400
     22 C17         9.7240   -0.0440   -3.1710 c3        1 23R     -0.053700
     23 C20        10.5750    1.0840   -3.7670 c3        1 23R      0.163800
     24 C22        12.0210    1.0010   -3.2260 c3        1 23R     -0.104400
     25 C21        10.5850    1.0410   -5.2910 c3        1 23R     -0.103100
     26 O20        10.0410    2.3620   -3.3670 os        1 23R     -0.419600
     27 C24        11.0650    3.1880   -2.8100 c3        1 23R      0.130400
     28 C23        12.2790    2.3150   -2.4870 c3        1 23R     -0.087700
     29 C25        13.5930    2.9390   -2.9030 c3        1 23R     -0.059400
     30 C26        13.9740    4.2170   -2.1450 c3        1 23R      0.148800
     31 C28        13.8040    4.0730   -0.6380 c3        1 23R     -0.124100
     32 C27        15.4240    4.5740   -2.4670 c3        1 23R     -0.124100
     33 O26        13.1120    5.2440   -2.6380 oh        1 23R     -0.599800
     34 HO3        -0.7990   -0.4440   -0.8610 ho        1 23R      0.400000
     35 H3          1.0590    0.6780   -0.0300 h1        1 23R      0.051700
     36 H2          1.0330   -1.8490    1.7720 hc        1 23R      0.069700
     37 H29         0.4880    1.1370    2.3890 hc        1 23R      0.041367
     38 H29A       -0.6550   -0.2560    2.5250 hc        1 23R      0.041367
     39 H29B        0.7790   -0.1490    3.6390 hc        1 23R      0.041367
     40 H1          3.0250   -0.8640    2.8260 h1        1 23R      0.035700
     41 HO1         2.5800    1.3370    2.2950 ho        1 23R      0.400000
     42 H19         4.9150   -2.0990    2.1780 ha        1 23R      0.119500
     43 H19A        5.1630   -2.6310    0.4160 ha        1 23R      0.119500
     44 H4          1.3230   -0.9800   -1.8690 hc        1 23R      0.052700
     45 H4A         1.2760   -2.3530   -0.6920 hc        1 23R      0.052700
     46 H6          3.4570   -0.9910   -2.6960 ha        1 23R      0.122000
     47 H7          5.7150   -0.5220   -0.6440 ha        1 23R      0.138000
     48 H9          4.7270   -1.8010   -4.0590 hc        1 23R      0.045200
     49 H9A         6.1300   -2.9190   -3.8530 hc        1 23R      0.045200
     50 H11         5.9990   -0.2170   -5.3250 hc        1 23R      0.040700
     51 H11A        6.3820   -1.8550   -5.9840 hc        1 23R      0.040700
     52 H12         8.5590   -1.8890   -4.8800 hc        1 23R      0.039700
     53 H12A        8.3790   -0.3250   -5.7690 hc        1 23R      0.039700
     54 H14         8.1190   -2.0840   -2.5710 hc        1 23R      0.049700
     55 H18         6.4590    1.0860   -3.6570 hc        1 23R      0.043033
     56 H18A        7.9020    1.7740   -4.5240 hc        1 23R      0.043033
     57 H18B        7.8470    1.7810   -2.7170 hc        1 23R      0.043033
     58 H15         8.3510   -1.2050   -0.3730 hc        1 23R      0.046700
     59 H15A        7.6750    0.4110   -0.8210 hc        1 23R      0.046700
     60 H16         9.8490    1.0790   -1.2930 hc        1 23R      0.044200
     61 H16A       10.4670   -0.6190   -1.1880 hc        1 23R      0.044200
     62 H17        10.2350   -1.0020   -3.4720 hc        1 23R      0.043700
     63 H22        12.1420    0.1320   -2.5340 hc        1 23R      0.052200
     64 H22A       12.7440    0.8630   -4.0680 hc        1 23R      0.052200
     65 H21         9.5980    1.3740   -5.6910 hc        1 23R      0.042700
     66 H21A       10.7960    0.0040   -5.6430 hc        1 23R      0.042700
     67 H21B       11.3670    1.7310   -5.6880 hc        1 23R      0.042700
     68 H24        10.6240    3.6540   -1.8910 h1        1 23R      0.056200
     69 H24A       11.3140    3.9890   -3.5550 h1        1 23R      0.056200
     70 H23        12.3020    2.1120   -1.3810 hc        1 23R      0.054700
     71 H25        14.4140    2.1920   -2.7430 hc        1 23R      0.053200
     72 H25A       13.5560    3.1870   -3.9980 hc        1 23R      0.053200
     73 H28        12.7180    4.0450   -0.3760 hc        1 23R      0.043700
     74 H28A       14.2720    4.9390   -0.1120 hc        1 23R      0.043700
     75 H28B       14.2900    3.1330   -0.2850 hc        1 23R      0.043700
     76 H27        16.1090    3.7850   -2.0800 hc        1 23R      0.043700
     77 H27A       15.5570    4.6670   -3.5710 hc        1 23R      0.043700
     78 H27B       15.6940    5.5490   -1.9940 hc        1 23R      0.043700
     79 HO26       13.3470    6.0540   -2.1710 ho        1 23R      0.399000
@<TRIPOS>BOND
     1    1    2 1   
     2    1   34 1   
     3    2    3 1   
     4    2    9 1   
     5    2   35 1   
     6    3    4 1   
     7    3    5 1   
     8    3   36 1   
     9    4   37 1   
    10    4   38 1   
    11    4   39 1   
    12    5    6 1   
    13    5    7 1   
    14    5   40 1   
    15    6   41 1   
    16    7    8 2   
    17    7   10 1   
    18    8   42 1   
    19    8   43 1   
    20    9   10 1   
    21    9   44 1   
    22    9   45 1   
    23   10   11 2   
    24   11   12 1   
    25   11   46 1   
    26   12   13 2   
    27   12   47 1   
    28   13   14 1   
    29   13   17 1   
    30   14   15 1   
    31   14   48 1   
    32   14   49 1   
    33   15   16 1   
    34   15   50 1   
    35   15   51 1   
    36   16   18 1   
    37   16   52 1   
    38   16   53 1   
    39   17   18 1   
    40   17   20 1   
    41   17   54 1   
    42   18   19 1   
    43   18   22 1   
    44   19   55 1   
    45   19   56 1   
    46   19   57 1   
    47   20   21 1   
    48   20   58 1   
    49   20   59 1   
    50   21   22 1   
    51   21   60 1   
    52   21   61 1   
    53   22   23 1   
    54   22   62 1   
    55   23   24 1   
    56   23   25 1   
    57   23   26 1   
    58   24   28 1   
    59   24   63 1   
    60   24   64 1   
    61   25   65 1   
    62   25   66 1   
    63   25   67 1   
    64   26   27 1   
    65   27   28 1   
    66   27   68 1   
    67   27   69 1   
    68   28   29 1   
    69   28   70 1   
    70   29   30 1   
    71   29   71 1   
    72   29   72 1   
    73   30   31 1   
    74   30   32 1   
    75   30   33 1   
    76   31   73 1   
    77   31   74 1   
    78   31   75 1   
    79   32   76 1   
    80   32   77 1   
    81   32   78 1   
    82   33   79 1   
@<TRIPOS>SUBSTRUCTURE
     1 23R         1 TEMP              0 ****  ****    0 ROOT
