@<TRIPOS>MOLECULE
23R
   79    79     1     0     0
SMALL
bcc


@<TRIPOS>ATOM
      1 O3          1.3150    5.8590    6.6250 oh        1 23R     -0.328000
      2 C3          0.4360    4.9140    5.9030 c3        1 23R      0.040000
      3 C2         -0.4600    5.5870    5.3010 c3        1 23R     -0.174000
      4 C29        -1.3060    6.4070    6.4100 c3        1 23R     -0.223000
      5 C1         -1.5400    4.6830    4.3830 c3        1 23R      0.073000
      6 O1         -2.4630    4.0210    5.2140 oh        1 23R     -0.315000
      7 C10        -0.8430    3.7430    3.4690 c2        1 23R     -0.064000
      8 C19        -1.3730    3.4050    2.2530 c1        1 23R     -0.196000
      9 C4          1.4270    3.9240    4.8820 c3        1 23R     -0.119000
     10 C5          0.6440    3.1050    3.9990 c2        1 23R     -0.068000
     11 C6          1.0910    1.8220    3.5870 c1        1 23R     -0.109000
     12 C7          0.2200    0.9660    2.6330 c1        1 23R     -0.159000
     13 C8          0.7990   -0.1200    1.9260 c1        1 23R     -0.073000
     14 C9          2.3020   -0.4480    2.1090 c2        1 23R     -0.125000
     15 C11         2.7920   -1.2110    0.8500 c3        1 23R     -0.153000
     16 C12         1.9790   -2.3550    0.5400 c3        1 23R     -0.151000
     17 C14        -0.0690   -1.3360    1.5370 c3        1 23R     -0.071000
     18 C13         0.4230   -2.0200    0.4500 c3        1 23R     -0.023000
     19 C18        -0.2920   -3.3460    0.4180 c3        1 23R     -0.200000
     20 C15        -1.4190   -0.6630    0.9840 c3        1 23R     -0.151000
     21 C16        -1.3400   -0.8090   -0.6350 c3        1 23R     -0.159000
     22 C17        -0.0450   -1.2090   -0.8840 c3        1 23R     -0.101000
     23 C20        -0.0020   -2.1220   -2.0980 c3        1 23R      0.092000
     24 C22        -0.5900   -1.3450   -3.4030 c3        1 23R     -0.181000
     25 C21         1.4210   -2.5720   -2.3600 c3        1 23R     -0.216000
     26 O20        -0.7590   -3.1420   -1.9100 os        1 23R     -0.275000
     27 C24        -1.3310   -3.4860   -3.3220 c3        1 23R     -0.022000
     28 C23        -0.9800   -2.2660   -4.2260 c3        1 23R     -0.130000
     29 C25         0.2080   -2.6490   -5.2410 c3        1 23R     -0.136000
     30 C26        -0.3340   -2.6610   -6.6890 c3        1 23R      0.075000
     31 C28        -0.4290   -4.1010   -7.1850 c3        1 23R     -0.242500
     32 C27         0.6190   -1.8660   -7.6000 c3        1 23R     -0.242500
     33 O26        -1.6150   -2.0690   -6.7170 oh        1 23R     -0.327000
     34 HO3         1.5210    5.5210    7.4230 ho        1 23R      0.198000
     35 H3         -0.0030    4.3370    6.5590 h1        1 23R      0.089000
     36 H2         -0.0180    6.2290    4.7110 hc        1 23R      0.112000
     37 H29        -1.5810    5.7980    7.1270 hc        1 23R      0.078333
     38 H29A       -2.0980    6.7980    5.9920 hc        1 23R      0.078333
     39 H29B       -0.7450    7.1240    6.7870 hc        1 23R      0.078333
     40 H1         -2.1380    5.2700    3.8710 h1        1 23R      0.073000
     41 HO1        -3.2720    4.3890    5.1140 ho        1 23R      0.196000
     42 H19        -2.2400    3.7900    1.9660 DU        1 23R      0.114000
     43 H19A       -0.8960    2.7830    1.6660 ha        1 23R      0.125000
     44 H4          2.0290    3.3950    5.4460 hc        1 23R      0.100500
     45 H4A         2.0720    4.4560    4.3640 hc        1 23R      0.100500
     46 H6          1.9490    1.4780    3.9060 ha        1 23R      0.123000
     47 H7         -0.7220    1.1730    2.5190 ha        1 23R      0.134000
     48 H9          2.4700   -0.8240    3.0000 ha        1 23R      0.087500
     49 H9A         2.8380    0.3690    2.1580 ha        1 23R      0.087500
     50 H11         3.7180   -1.5110    1.0010 hc        1 23R      0.079000
     51 H11A        2.7800   -0.5990    0.0870 hc        1 23R      0.079000
     52 H12         2.1140   -3.0360    1.2370 hc        1 23R      0.083000
     53 H12A        2.2710   -2.7220   -0.3200 hc        1 23R      0.083000
     54 H14        -0.2420   -1.9260    2.2990 hc        1 23R      0.097000
     55 H18        -0.2420   -3.7660    1.3040 hc        1 23R      0.079667
     56 H18A       -1.2330   -3.2050    0.1740 hc        1 23R      0.079667
     57 H18B        0.1350   -3.9310   -0.2460 hc        1 23R      0.079667
     58 H15        -1.4560    0.2780    1.2370 hc        1 23R      0.082500
     59 H15A       -2.2000   -1.1390    1.3290 hc        1 23R      0.082500
     60 H16        -1.5190    0.0530   -1.0650 hc        1 23R      0.085500
     61 H16A       -1.9720   -1.4870   -0.9480 hc        1 23R      0.085500
     62 H17         0.5260   -0.4320   -1.0250 hc        1 23R      0.086000
     63 H22        -1.3510   -0.7790   -3.1460 hc        1 23R      0.093500
     64 H22A        0.1080   -0.8030   -3.8140 hc        1 23R      0.093500
     65 H21         1.4940   -2.9060   -3.2790 hc        1 23R      0.082333
     66 H21A        1.6590   -3.2870   -1.7330 hc        1 23R      0.082333
     67 H21B        2.0310   -1.8150   -2.2390 hc        1 23R      0.082333
     68 H24        -0.9090   -4.2960   -3.6690 h1        1 23R      0.081000
     69 H24A       -2.3010   -3.6040   -3.2750 h1        1 23R      0.081000
     70 H23        -1.7680   -1.9710   -4.7180 hc        1 23R      0.120000
     71 H25         0.9270   -1.9870   -5.1670 hc        1 23R      0.091000
     72 H25A        0.5580   -3.5380   -5.0150 hc        1 23R      0.091000
     73 H28        -0.5890   -4.1050   -8.1550 hc        1 23R      0.083167
     74 H28A        0.4120   -4.5700   -6.9910 hc        1 23R      0.083167
     75 H28B       -1.1680   -4.5550   -6.7300 hc        1 23R      0.083167
     76 H27         0.6290   -0.9240   -7.3210 hc        1 23R      0.083167
     77 H27A        0.3090   -1.9270   -8.5320 hc        1 23R      0.083167
     78 H27B        1.5220   -2.2370   -7.5310 hc        1 23R      0.083167
     79 HO26       -1.8920   -2.0010   -7.5570 ho        1 23R      0.198000
@<TRIPOS>BOND
     1    1    2 1   
     2    1   34 1   
     3    2    3 1   
     4    2    9 1   
     5    2   35 1   
     6    3    4 1   
     7    3    5 1   
     8    3   36 1   
     9    4   37 1   
    10    4   38 1   
    11    4   39 1   
    12    5    6 1   
    13    5    7 1   
    14    5   40 1   
    15    6   41 1   
    16    7    8 1   
    17    7   10 1   
    18    8   43 1   
    19    9   10 1   
    20    9   44 1   
    21    9   45 1   
    22   10   11 1   
    23   11   46 1   
    24   12   13 1   
    25   12   47 1   
    26   13   17 1   
    27   14   15 1   
    28   14   48 1   
    29   14   49 1   
    30   15   16 1   
    31   15   50 1   
    32   15   51 1   
    33   16   18 1   
    34   16   52 1   
    35   16   53 1   
    36   17   18 1   
    37   17   20 1   
    38   17   54 1   
    39   18   19 1   
    40   18   22 1   
    41   19   55 1   
    42   19   56 1   
    43   19   57 1   
    44   20   21 1   
    45   20   58 1   
    46   20   59 1   
    47   21   22 1   
    48   21   60 1   
    49   21   61 1   
    50   22   23 1   
    51   22   62 1   
    52   23   24 1   
    53   23   25 1   
    54   23   26 1   
    55   24   28 1   
    56   24   63 1   
    57   24   64 1   
    58   25   65 1   
    59   25   66 1   
    60   25   67 1   
    61   26   27 1   
    62   27   28 1   
    63   27   68 1   
    64   27   69 1   
    65   28   29 1   
    66   28   70 1   
    67   29   30 1   
    68   29   71 1   
    69   29   72 1   
    70   30   31 1   
    71   30   32 1   
    72   30   33 1   
    73   31   73 1   
    74   31   74 1   
    75   31   75 1   
    76   32   76 1   
    77   32   77 1   
    78   32   78 1   
    79   33   79 1   
@<TRIPOS>SUBSTRUCTURE
     1 23R         1 TEMP              0 ****  ****    0 ROOT
