@<TRIPOS>MOLECULE
23R
   79    82     1     0     0
SMALL
bcc


@<TRIPOS>ATOM
      1 O3         -0.5650   -0.6270    0.0630 oh        1 23R     -0.602800
      2 C3          0.8360   -0.4020    0.1750 c3        1 23R      0.148100
      3 C2          1.2340   -0.7520    1.6110 c3        1 23R     -0.092700
      4 C29         0.4230    0.0410    2.6100 c3        1 23R     -0.094100
      5 C1          2.7410   -0.5250    1.7910 c3        1 23R      0.184300
      6 O1          3.1060    0.8450    1.6570 oh        1 23R     -0.589800
      7 C10         3.5300   -1.2950    0.7610 ce        1 23R     -0.068200
      8 C19         4.5780   -2.0410    1.1300 c2        1 23R     -0.195000
      9 C4          1.5950   -1.2760   -0.8220 c3        1 23R     -0.072200
     10 C5          3.0710   -1.1900   -0.6230 ce        1 23R     -0.070200
     11 C6          3.8920   -1.0420   -1.6840 cf        1 23R     -0.108000
     12 C7          5.3290   -0.9130   -1.6070 cf        1 23R     -0.149000
     13 C8          6.1960   -1.2090   -2.5910 c2        1 23R     -0.079400
     14 C9          5.8250   -1.8210   -3.9030 c3        1 23R     -0.043200
     15 C11         6.5040   -1.1700   -5.0960 c3        1 23R     -0.072400
     16 C12         7.9870   -0.9050   -4.9040 c3        1 23R     -0.068400
     17 C14         7.6670   -1.0450   -2.4570 c3        1 23R     -0.036500
     18 C13         8.2360   -0.1580   -3.6020 c3        1 23R     -0.033000
     19 C18         7.5660    1.2040   -3.6250 c3        1 23R     -0.079100
     20 C15         8.2810   -0.4520   -1.1970 c3        1 23R     -0.072400
     21 C16         9.6670    0.0240   -1.6360 c3        1 23R     -0.076400
     22 C17         9.7170   -0.0420   -3.1760 c3        1 23R     -0.053700
     23 C20        10.5700    1.0870   -3.7690 c3        1 23R      0.163800
     24 C22        12.0170    0.9990   -3.2310 c3        1 23R     -0.104400
     25 C21        10.5780    1.0490   -5.2930 c3        1 23R     -0.103100
     26 O20        10.0400    2.3640   -3.3630 os        1 23R     -0.419600
     27 C24        11.0670    3.1870   -2.8060 c3        1 23R      0.130400
     28 C23        12.2800    2.3100   -2.4900 c3        1 23R     -0.087700
     29 C25        13.5940    2.9330   -2.9090 c3        1 23R     -0.059400
     30 C26        13.9800    4.2070   -2.1490 c3        1 23R      0.148800
     31 C28        13.8150    4.0600   -0.6420 c3        1 23R     -0.124100
     32 C27        15.4300    4.5620   -2.4750 c3        1 23R     -0.124100
     33 O26        13.1190    5.2380   -2.6380 oh        1 23R     -0.599800
     34 HO3        -0.8020   -0.4300   -0.8510 ho        1 23R      0.400000
     35 H3          1.0590    0.6860   -0.0190 h1        1 23R      0.051700
     36 H2          1.0320   -1.8470    1.7740 hc        1 23R      0.069700
     37 H29         0.4920    1.1370    2.4030 hc        1 23R      0.041367
     38 H29A       -0.6520   -0.2550    2.5360 hc        1 23R      0.041367
     39 H29B        0.7840   -0.1540    3.6480 hc        1 23R      0.041367
     40 H1          3.0270   -0.8700    2.8290 h1        1 23R      0.035700
     41 HO1         2.5850    1.3330    2.3060 ho        1 23R      0.400000
     42 H19         4.9140   -2.1070    2.1730 ha        1 23R      0.119500
     43 H19A        5.1570   -2.6320    0.4080 ha        1 23R      0.119500
     44 H4          1.2690   -2.3430   -0.6920 hc        1 23R      0.052700
     45 H4A         1.3170   -0.9660   -1.8640 hc        1 23R      0.052700
     46 H6          3.4490   -0.9780   -2.6950 ha        1 23R      0.122000
     47 H7          5.7120   -0.5210   -0.6450 ha        1 23R      0.138000
     48 H9          4.7150   -1.7860   -4.0620 hc        1 23R      0.045200
     49 H9A         6.1170   -2.9070   -3.8640 hc        1 23R      0.045200
     50 H11         5.9890   -0.1990   -5.3250 hc        1 23R      0.040700
     51 H11A        6.3680   -1.8350   -5.9900 hc        1 23R      0.040700
     52 H12         8.5460   -1.8780   -4.8910 hc        1 23R      0.039700
     53 H12A        8.3680   -0.3100   -5.7730 hc        1 23R      0.039700
     54 H14         8.1090   -2.0800   -2.5820 hc        1 23R      0.049700
     55 H18         7.8980    1.7850   -4.5190 hc        1 23R      0.043033
     56 H18A        7.8450    1.7860   -2.7130 hc        1 23R      0.043033
     57 H18B        6.4550    1.0970   -3.6530 hc        1 23R      0.043033
     58 H15         8.3470   -1.2100   -0.3800 hc        1 23R      0.046700
     59 H15A        7.6740    0.4090   -0.8210 hc        1 23R      0.046700
     60 H16         9.8480    1.0740   -1.2940 hc        1 23R      0.044200
     61 H16A       10.4630   -0.6250   -1.1960 hc        1 23R      0.044200
     62 H17        10.2270   -1.0000   -3.4820 hc        1 23R      0.043700
     63 H22        12.7380    0.8600   -4.0750 hc        1 23R      0.052200
     64 H22A       12.1360    0.1280   -2.5410 hc        1 23R      0.052200
     65 H21        11.3610    1.7400   -5.6890 hc        1 23R      0.042700
     66 H21A       10.7860    0.0140   -5.6500 hc        1 23R      0.042700
     67 H21B        9.5900    1.3860   -5.6900 hc        1 23R      0.042700
     68 H24        10.6300    3.6510   -1.8850 h1        1 23R      0.056200
     69 H24A       11.3150    3.9890   -3.5500 h1        1 23R      0.056200
     70 H23        12.3060    2.1040   -1.3850 hc        1 23R      0.054700
     71 H25        13.5540    3.1830   -4.0030 hc        1 23R      0.053200
     72 H25A       14.4140    2.1830   -2.7530 hc        1 23R      0.053200
     73 H28        12.7300    4.0350   -0.3770 hc        1 23R      0.043700
     74 H28A       14.2870    4.9250   -0.1160 hc        1 23R      0.043700
     75 H28B       14.3000    3.1190   -0.2930 hc        1 23R      0.043700
     76 H27        15.7040    5.5350   -2.0010 hc        1 23R      0.043700
     77 H27A       15.5600    4.6570   -3.5790 hc        1 23R      0.043700
     78 H27B       16.1150    3.7700   -2.0920 hc        1 23R      0.043700
     79 HO26       13.3580    6.0460   -2.1690 ho        1 23R      0.399000
@<TRIPOS>BOND
     1    1    2 1   
     2    1   34 1   
     3    2    3 1   
     4    2    9 1   
     5    2   35 1   
     6    3    4 1   
     7    3    5 1   
     8    3   36 1   
     9    4   37 1   
    10    4   38 1   
    11    4   39 1   
    12    5    6 1   
    13    5    7 1   
    14    5   40 1   
    15    6   41 1   
    16    7    8 2   
    17    7   10 1   
    18    8   42 1   
    19    8   43 1   
    20    9   10 1   
    21    9   44 1   
    22    9   45 1   
    23   10   11 2   
    24   11   12 1   
    25   11   46 1   
    26   12   13 2   
    27   12   47 1   
    28   13   14 1   
    29   13   17 1   
    30   14   15 1   
    31   14   48 1   
    32   14   49 1   
    33   15   16 1   
    34   15   50 1   
    35   15   51 1   
    36   16   18 1   
    37   16   52 1   
    38   16   53 1   
    39   17   18 1   
    40   17   20 1   
    41   17   54 1   
    42   18   19 1   
    43   18   22 1   
    44   19   55 1   
    45   19   56 1   
    46   19   57 1   
    47   20   21 1   
    48   20   58 1   
    49   20   59 1   
    50   21   22 1   
    51   21   60 1   
    52   21   61 1   
    53   22   23 1   
    54   22   62 1   
    55   23   24 1   
    56   23   25 1   
    57   23   26 1   
    58   24   28 1   
    59   24   63 1   
    60   24   64 1   
    61   25   65 1   
    62   25   66 1   
    63   25   67 1   
    64   26   27 1   
    65   27   28 1   
    66   27   68 1   
    67   27   69 1   
    68   28   29 1   
    69   28   70 1   
    70   29   30 1   
    71   29   71 1   
    72   29   72 1   
    73   30   31 1   
    74   30   32 1   
    75   30   33 1   
    76   31   73 1   
    77   31   74 1   
    78   31   75 1   
    79   32   76 1   
    80   32   77 1   
    81   32   78 1   
    82   33   79 1   
@<TRIPOS>SUBSTRUCTURE
     1 23R         1 TEMP              0 ****  ****    0 ROOT
