@<TRIPOS>MOLECULE
23S
   23    19     1     0     0
SMALL
bcc


@<TRIPOS>ATOM
      1 CD2         0.8970   -0.5040   -0.9710 c2        1 23S     -0.137000
      2 CE2         2.3400   -0.4740   -0.9960 c2        1 23S     -0.329000
      3 NE1         2.7800   -0.4420    0.2870 n2        1 23S     -0.163000
      4 CD1         1.6630   -0.4500    1.1290 c1        1 23S     -0.113000
      5 CG          0.5040   -0.4890    0.3220 c1        1 23S     -0.053000
      6 SEL         2.8140   -0.4910   -2.5590 ss        1 23S      0.436000
      7 CZ2         1.4860   -0.5350   -3.4610 c1        1 23S     -0.444000
      8 CZ3         0.3320   -0.5440   -2.5600 c1        1 23S     -0.068000
      9 CB         -0.9250   -0.5460    0.8180 c2        1 23S     -0.096000
     10 CA         -1.3810    0.8440    1.2010 c3        1 23S     -0.130000
     11 N          -1.8250    0.8430    2.5520 n3        1 23S     -0.333000
     12 C          -2.5170    1.2670    0.2990 c2        1 23S      0.309000
     13 O          -2.3620    2.2290   -0.4990 o         1 23S     -0.576500
     14 OXT        -3.6230    0.6690    0.3570 o         1 23S     -0.576500
     15 HE1         3.6520   -0.4180    0.5530 DU        1 23S      0.182000
     16 HD1         1.6820   -0.4330    2.1050 DU        1 23S      0.182000
     17 HZ2         1.4530   -0.4850   -4.4350 DU        1 23S      0.182000
     18 HZ3        -0.6050   -0.5700   -2.8320 DU        1 23S      0.182000
     19 HB1        -0.9750   -1.1320    1.6000 ha        1 23S      0.103500
     20 HB2        -1.5020   -0.8960    0.1110 ha        1 23S      0.103500
     21 HA         -0.6370    1.4700    1.1020 h1        1 23S      0.081000
     22 H          -1.1300    1.0770    3.1020 hn        1 23S      0.128500
     23 HN2        -2.1220    0.0070    2.7750 hn        1 23S      0.128500
@<TRIPOS>BOND
     1    1    2 1   
     2    1    5 1   
     3    1    8 1   
     4    2    3 1   
     5    2    6 1   
     6    3    4 1   
     7    4    5 1   
     8    6    7 1   
     9    7    8 1   
    10    9   10 1   
    11    9   19 1   
    12    9   20 1   
    13   10   11 1   
    14   10   12 1   
    15   10   21 1   
    16   11   22 1   
    17   11   23 1   
    18   12   13 1   
    19   12   14 1   
@<TRIPOS>SUBSTRUCTURE
     1 23S         1 TEMP              0 ****  ****    0 ROOT
