@<TRIPOS>MOLECULE
23S
   23    24     1     0     0
SMALL
bcc


@<TRIPOS>ATOM
      1 CD2        -0.7610   -0.0700    0.6140 cc        1 23S     -0.137000
      2 CE2        -1.7460    0.7440   -0.0610 cd        1 23S     -0.083400
      3 NE1        -1.0980    1.5550   -0.9670 na        1 23S     -0.164100
      4 CD1         0.2720    1.2450   -0.9220 cd        1 23S     -0.137300
      5 CG          0.5180    0.2630    0.0500 cc        1 23S     -0.060300
      6 SEL        -3.2890    0.4530    0.5190 ss        1 23S     -0.103800
      7 CZ2        -2.7310   -0.7090    1.6360 cd        1 23S     -0.174100
      8 CZ3        -1.3730   -0.9000    1.5960 cc        1 23S     -0.068000
      9 CB          1.8110   -0.3180    0.4350 c3        1 23S     -0.010100
     10 CA          3.0250    0.2760   -0.2830 c3        1 23S      0.017500
     11 N           3.0270    0.0480   -1.7230 n3        1 23S     -0.900800
     12 C           4.3150   -0.2310    0.4510 c         1 23S      0.889600
     13 O           5.2590   -0.6840   -0.2570 o         1 23S     -0.841800
     14 OXT         4.3460   -0.1370    1.7080 o         1 23S     -0.841800
     15 HE1        -1.5360    2.1130   -1.6470 hn        1 23S      0.283700
     16 HD1         0.9810    1.7490   -1.5810 h4        1 23S      0.188000
     17 HZ2        -3.4330   -1.2150    2.2910 h4        1 23S      0.152000
     18 HZ3        -0.8090   -1.5920    2.2270 ha        1 23S      0.154000
     19 HB1         1.9800   -0.1590    1.5390 hc        1 23S      0.064200
     20 HB2         1.7780   -1.4290    0.2660 hc        1 23S      0.064200
     21 HA          3.0050    1.3960   -0.1430 h1        1 23S      0.041700
     22 H           3.9790    0.1530   -2.0390 hn        1 23S      0.333300
     23 HN2         2.7760   -0.9090   -1.8990 hn        1 23S      0.333300
@<TRIPOS>BOND
     1    1    2 2   
     2    1    5 1   
     3    1    8 1   
     4    2    3 1   
     5    2    6 1   
     6    3    4 1   
     7    3   15 1   
     8    4    5 2   
     9    4   16 1   
    10    5    9 1   
    11    6    7 1   
    12    7    8 2   
    13    7   17 1   
    14    8   18 1   
    15    9   10 1   
    16    9   19 1   
    17    9   20 1   
    18   10   11 1   
    19   10   12 1   
    20   10   21 1   
    21   11   22 1   
    22   11   23 1   
    23   12   13 1   
    24   12   14 1   
@<TRIPOS>SUBSTRUCTURE
     1 23S         1 TEMP              0 ****  ****    0 ROOT
