@<TRIPOS>MOLECULE
23U
   63    66     1     0     0
SMALL
bcc


@<TRIPOS>ATOM
      1 C1          0.6640    0.3230    0.2980 ca        1 23U     -0.162800
      2 C2          1.4020    1.5040    0.1780 ca        1 23U     -0.133500
      3 C3          2.1940    1.9490    1.2390 ca        1 23U     -0.109750
      4 C4          2.2530    1.2200    2.4250 ca        1 23U     -0.090000
      5 C5          1.5170    0.0380    2.5520 ca        1 23U     -0.109750
      6 C6          0.7270   -0.4080    1.4980 ca        1 23U     -0.133500
      7 C7         -0.4570    0.8180   -1.9020 ca        1 23U     -0.162800
      8 C8         -0.2600   -0.1540   -0.7810 c3        1 23U      0.044900
      9 C9          0.1910   -1.5300   -1.3680 c3        1 23U      0.054500
     10 N2          1.6260   -1.8270   -1.0520 n4        1 23U     -0.829600
     11 C10        -0.7040   -2.6550   -0.8040 c         1 23U      0.655100
     12 O32        -0.3090   -3.3540    0.1530 o         1 23U     -0.603100
     13 N1         -1.9250   -2.8870   -1.3890 n         1 23U     -0.447800
     14 C11        -2.5280   -2.0920   -2.4520 c3        1 23U      0.073000
     15 C12        -4.0240   -2.4410   -2.4910 c3        1 23U     -0.091400
     16 C13        -4.2520   -3.5290   -1.4450 c3        1 23U     -0.092400
     17 C14        -2.8700   -3.8250   -0.8110 c3        1 23U      0.051700
     18 C15        -2.4780   -5.2870   -1.0850 c         1 23U      0.520100
     19 N23        -3.2500   -6.3150   -0.3010 n4        1 23U     -0.681800
     20 C16        -3.8260   -7.3990   -1.1820 c3        1 23U      0.183100
     21 C17        -4.4360   -8.4730   -0.3550 ca        1 23U     -0.194300
     22 C18        -5.8220   -8.5260   -0.1770 ca        1 23U     -0.096000
     23 C19        -6.3860   -9.5690    0.5570 ca        1 23U     -0.106000
     24 C20        -5.5770  -10.5550    1.1200 ca        1 23U     -0.064000
     25 C21        -4.1860  -10.4990    0.9430 ca        1 23U      0.020400
     26 C22        -3.6130   -9.4610    0.2020 ca        1 23U     -0.109000
     27 CL1        -3.1970  -11.6900    1.6180 cl        1 23U     -0.022400
     28 O22        -1.6180   -5.7020   -1.8440 o         1 23U     -0.396100
     29 C23        -1.6470    1.5540   -1.9580 ca        1 23U     -0.133500
     30 C24        -1.8550    2.4770   -2.9830 ca        1 23U     -0.109750
     31 C25        -0.8810    2.6690   -3.9620 ca        1 23U     -0.090000
     32 C26         0.3080    1.9380   -3.9120 ca        1 23U     -0.109750
     33 C27         0.5200    1.0200   -2.8860 ca        1 23U     -0.133500
     34 H2          1.3450    2.1060   -0.7440 ha        1 23U      0.134500
     35 H3          2.7610    2.8890    1.1380 ha        1 23U      0.162500
     36 H4          2.8680    1.5790    3.2670 ha        1 23U      0.167500
     37 H5          1.5510   -0.5320    3.4950 ha        1 23U      0.162500
     38 H6          0.1210   -1.3210    1.6170 ha        1 23U      0.134500
     39 H8         -1.2650   -0.3250   -0.2870 hc        1 23U      0.091700
     40 H9          0.1020   -1.5000   -2.4980 hx        1 23U      0.137700
     41 HN2         1.9680   -2.6070   -1.6190 hn        1 23U      0.476133
     42 HN2A        1.7050   -2.0710   -0.0500 hn        1 23U      0.476133
     43 H11        -2.0340   -2.3500   -3.4310 h1        1 23U      0.081200
     44 H11A       -2.3730   -0.9940   -2.2490 h1        1 23U      0.081200
     45 H12        -4.6410   -1.5360   -2.2620 hc        1 23U      0.094200
     46 H12A       -4.3110   -2.7980   -3.5120 hc        1 23U      0.094200
     47 H13        -4.9550   -3.1740   -0.6490 hc        1 23U      0.081200
     48 H13A       -4.6910   -4.4430   -1.9160 hc        1 23U      0.081200
     49 H14        -2.8850   -3.6890    0.3140 h1        1 23U      0.112700
     50 HN23       -2.6170   -6.7620    0.3780 hn        1 23U      0.463800
     51 H16        -4.5890   -6.9160   -1.8570 hx        1 23U      0.114700
     52 H16A       -2.9780   -7.8030   -1.8120 hx        1 23U      0.114700
     53 H18        -6.4750   -7.7640   -0.6300 ha        1 23U      0.142000
     54 H19        -7.4800   -9.6210    0.6880 ha        1 23U      0.172000
     55 H20        -6.0290  -11.3820    1.6970 ha        1 23U      0.183000
     56 H22        -2.5240   -9.4400    0.0380 ha        1 23U      0.149000
     57 H23        -2.4150    1.4260   -1.1790 ha        1 23U      0.134500
     58 H24        -2.7880    3.0630   -3.0110 ha        1 23U      0.162500
     59 H25        -1.0430    3.4020   -4.7700 ha        1 23U      0.167500
     60 H26         1.0840    2.0960   -4.6790 ha        1 23U      0.162500
     61 H27         1.4720    0.4720   -2.8460 ha        1 23U      0.134500
     62 H231        2.1840   -0.9810   -1.2290 hn        1 23U      0.476133
     63 H232       -4.0100   -5.8670    0.2210 hn        1 23U      0.463800
@<TRIPOS>BOND
     1    1    2 ar  
     2    1    6 ar  
     3    1    8 1   
     4    2    3 ar  
     5    2   34 1   
     6    3    4 ar  
     7    3   35 1   
     8    4    5 ar  
     9    4   36 1   
    10    5    6 ar  
    11    5   37 1   
    12    6   38 1   
    13    7    8 1   
    14    7   29 ar  
    15    7   33 ar  
    16    8    9 1   
    17    8   39 1   
    18    9   10 1   
    19    9   11 1   
    20    9   40 1   
    21   10   41 1   
    22   10   42 1   
    23   10   62 1   
    24   11   12 2   
    25   11   13 1   
    26   13   14 1   
    27   13   17 1   
    28   14   15 1   
    29   14   43 1   
    30   14   44 1   
    31   15   16 1   
    32   15   45 1   
    33   15   46 1   
    34   16   17 1   
    35   16   47 1   
    36   16   48 1   
    37   17   18 1   
    38   17   49 1   
    39   18   19 1   
    40   18   28 2   
    41   19   20 1   
    42   19   50 1   
    43   19   63 1   
    44   20   21 1   
    45   20   51 1   
    46   20   52 1   
    47   21   22 ar  
    48   21   26 ar  
    49   22   23 ar  
    50   22   53 1   
    51   23   24 ar  
    52   23   54 1   
    53   24   25 ar  
    54   24   55 1   
    55   25   26 ar  
    56   25   27 1   
    57   26   56 1   
    58   29   30 ar  
    59   29   57 1   
    60   30   31 ar  
    61   30   58 1   
    62   31   32 ar  
    63   31   59 1   
    64   32   33 ar  
    65   32   60 1   
    66   33   61 1   
@<TRIPOS>SUBSTRUCTURE
     1 23U         1 TEMP              0 ****  ****    0 ROOT
