@<TRIPOS>MOLECULE
23U
   63    66     1     0     0
SMALL
bcc


@<TRIPOS>ATOM
      1 C1          0.6430    0.3280    0.3310 ca        1 23U     -0.162800
      2 C2          1.3810    1.5100    0.2210 ca        1 23U     -0.133500
      3 C3          2.1580    1.9560    1.2940 ca        1 23U     -0.109750
      4 C4          2.2010    1.2270    2.4800 ca        1 23U     -0.090000
      5 C5          1.4650    0.0440    2.5970 ca        1 23U     -0.109750
      6 C6          0.6900   -0.4020    1.5320 ca        1 23U     -0.133500
      7 C7         -0.4480    0.8220   -1.8840 ca        1 23U     -0.162800
      8 C8         -0.2650   -0.1500   -0.7600 c3        1 23U      0.044900
      9 C9          0.1950   -1.5260   -1.3410 c3        1 23U      0.054500
     10 N2          1.6260   -1.8210   -1.0050 n4        1 23U     -0.829600
     11 C10        -0.7050   -2.6510   -0.7900 c         1 23U      0.655100
     12 O32        -0.3230   -3.3500    0.1720 o         1 23U     -0.602100
     13 N1         -1.9180   -2.8850   -1.3930 n         1 23U     -0.447800
     14 C11        -2.5070   -2.0910   -2.4640 c3        1 23U      0.073000
     15 C12        -4.0010   -2.4420   -2.5240 c3        1 23U     -0.091400
     16 C13        -4.2430   -3.5300   -1.4820 c3        1 23U     -0.092400
     17 C14        -2.8700   -3.8250   -0.8280 c3        1 23U      0.051700
     18 C15        -2.4720   -5.2860   -1.0960 c         1 23U      0.520100
     19 N23        -3.2550   -6.3140   -0.3230 n4        1 23U     -0.681800
     20 C16        -3.8100   -7.4040   -1.2120 c3        1 23U      0.183100
     21 C17        -4.4330   -8.4770   -0.3920 ca        1 23U     -0.194300
     22 C18        -5.8230   -8.5350   -0.2440 ca        1 23U     -0.096000
     23 C19        -6.3970   -9.5780    0.4820 ca        1 23U     -0.106000
     24 C20        -5.5950  -10.5570    1.0670 ca        1 23U     -0.064000
     25 C21        -4.2010  -10.4950    0.9200 ca        1 23U      0.020400
     26 C22        -3.6180   -9.4580    0.1870 ca        1 23U     -0.110000
     27 CL1        -3.2220  -11.6770    1.6220 cl        1 23U     -0.022400
     28 O22        -1.6000   -5.7000   -1.8410 o         1 23U     -0.396100
     29 C23        -1.6380    1.5560   -1.9560 ca        1 23U     -0.133500
     30 C24        -1.8320    2.4790   -2.9840 ca        1 23U     -0.109750
     31 C25        -0.8450    2.6730   -3.9500 ca        1 23U     -0.090000
     32 C26         0.3440    1.9430   -3.8830 ca        1 23U     -0.109750
     33 C27         0.5420    1.0250   -2.8540 ca        1 23U     -0.133500
     34 H2          1.3360    2.1120   -0.7020 ha        1 23U      0.134500
     35 H3          2.7250    2.8970    1.2010 ha        1 23U      0.162500
     36 H4          2.8040    1.5870    3.3300 ha        1 23U      0.167500
     37 H5          1.4870   -0.5260    3.5400 ha        1 23U      0.162500
     38 H6          0.0840   -1.3170    1.6430 ha        1 23U      0.134500
     39 H8         -1.2770   -0.3220   -0.2800 hc        1 23U      0.091700
     40 H9          0.1230   -1.4950   -2.4730 hx        1 23U      0.137700
     41 HN2         1.9770   -2.6000   -1.5670 hn        1 23U      0.476133
     42 HN2A        2.1860   -0.9740   -1.1740 hn        1 23U      0.476133
     43 H11        -2.3560   -0.9930   -2.2590 h1        1 23U      0.081200
     44 H11A       -1.9980   -2.3480   -3.4360 h1        1 23U      0.081200
     45 H12        -4.2740   -2.7990   -3.5490 hc        1 23U      0.094200
     46 H12A       -4.6230   -1.5370   -2.3040 hc        1 23U      0.094200
     47 H13        -4.9590   -3.1770   -0.6960 hc        1 23U      0.081200
     48 H13A       -4.6730   -4.4450   -1.9600 hc        1 23U      0.081200
     49 H14        -2.9020   -3.6880    0.2960 h1        1 23U      0.112700
     50 HN23       -4.0260   -5.8670    0.1830 hn        1 23U      0.463800
     51 H16        -4.5610   -6.9250   -1.9030 hx        1 23U      0.114700
     52 H16A       -2.9490   -7.8070   -1.8230 hx        1 23U      0.114700
     53 H18        -6.4690   -7.7790   -0.7150 ha        1 23U      0.142000
     54 H19        -7.4940   -9.6340    0.5890 ha        1 23U      0.172000
     55 H20        -6.0560  -11.3830    1.6380 ha        1 23U      0.183000
     56 H22        -2.5250   -9.4320    0.0460 ha        1 23U      0.149000
     57 H23        -2.4170    1.4280   -1.1880 ha        1 23U      0.134500
     58 H24        -2.7660    3.0640   -3.0250 ha        1 23U      0.162500
     59 H25        -0.9980    3.4050   -4.7600 ha        1 23U      0.167500
     60 H26         1.1300    2.1010   -4.6390 ha        1 23U      0.162500
     61 H27         1.4950    0.4780   -2.8020 ha        1 23U      0.134500
     62 H231        1.6920   -2.0650   -0.0020 hn        1 23U      0.476133
     63 H232       -2.6330   -6.7560    0.3700 hn        1 23U      0.463800
@<TRIPOS>BOND
     1    1    2 ar  
     2    1    6 ar  
     3    1    8 1   
     4    2    3 ar  
     5    2   34 1   
     6    3    4 ar  
     7    3   35 1   
     8    4    5 ar  
     9    4   36 1   
    10    5    6 ar  
    11    5   37 1   
    12    6   38 1   
    13    7    8 1   
    14    7   29 ar  
    15    7   33 ar  
    16    8    9 1   
    17    8   39 1   
    18    9   10 1   
    19    9   11 1   
    20    9   40 1   
    21   10   41 1   
    22   10   42 1   
    23   10   62 1   
    24   11   12 2   
    25   11   13 1   
    26   13   14 1   
    27   13   17 1   
    28   14   15 1   
    29   14   43 1   
    30   14   44 1   
    31   15   16 1   
    32   15   45 1   
    33   15   46 1   
    34   16   17 1   
    35   16   47 1   
    36   16   48 1   
    37   17   18 1   
    38   17   49 1   
    39   18   19 1   
    40   18   28 2   
    41   19   20 1   
    42   19   50 1   
    43   19   63 1   
    44   20   21 1   
    45   20   51 1   
    46   20   52 1   
    47   21   22 ar  
    48   21   26 ar  
    49   22   23 ar  
    50   22   53 1   
    51   23   24 ar  
    52   23   54 1   
    53   24   25 ar  
    54   24   55 1   
    55   25   26 ar  
    56   25   27 1   
    57   26   56 1   
    58   29   30 ar  
    59   29   57 1   
    60   30   31 ar  
    61   30   58 1   
    62   31   32 ar  
    63   31   59 1   
    64   32   33 ar  
    65   32   60 1   
    66   33   61 1   
@<TRIPOS>SUBSTRUCTURE
     1 23U         1 TEMP              0 ****  ****    0 ROOT
