@<TRIPOS>MOLECULE
23U
   61    56     1     0     0
SMALL
bcc


@<TRIPOS>ATOM
      1 C1          2.7270    1.8150    2.0810 c1        1 23U     -0.085000
      2 C2          2.9020    2.8390    3.0190 c1        1 23U     -0.129667
      3 C3          4.1710    3.0790    3.5630 c1        1 23U     -0.129667
      4 C4          5.2460    2.3070    3.1730 c1        1 23U     -0.129667
      5 C5          5.0670    1.2770    2.2280 c1        1 23U     -0.129667
      6 C6          3.8110    1.0390    1.6900 c1        1 23U     -0.118000
      7 C7          1.3980    2.2740   -0.0540 c1        1 23U     -0.068000
      8 C8          1.3580    1.6220    1.3910 c2        1 23U     -0.020000
      9 C9          1.0600    0.1250    1.2680 c3        1 23U     -0.021000
     10 N2          2.2770   -0.5880    1.0800 n3        1 23U     -0.346000
     11 C10         0.3760   -0.3660    2.5340 c2        1 23U      0.273000
     12 O32         0.8150   -0.0330    3.6420 o         1 23U     -0.355000
     13 N1         -0.8490   -1.1750    2.4400 n         1 23U     -0.318000
     14 C11        -1.7030   -1.6900    3.6030 c3        1 23U     -0.031000
     15 C12        -3.0120   -2.1970    2.9870 c3        1 23U     -0.168000
     16 C13        -3.0120   -1.7690    1.7670 c3        1 23U     -0.160000
     17 C14        -1.4420   -1.6130    1.3200 c3        1 23U      0.016000
     18 C15        -1.2310   -0.7070    0.1170 c2        1 23U      0.273000
     19 N23        -1.4810   -1.2170   -1.2310 n         1 23U     -0.387000
     20 C16        -2.8140   -1.6440   -1.6070 c3        1 23U      0.019000
     21 C17        -2.8420   -2.0040   -3.0950 c2        1 23U     -0.095000
     22 C18        -2.0710   -3.0510   -3.5690 c2        1 23U     -0.114000
     23 C19        -2.1520   -3.4300   -4.9270 c1        1 23U     -0.121000
     24 C20        -3.0040   -2.7520   -5.7850 c1        1 23U     -0.116000
     25 C21        -3.7920   -1.6830   -5.3010 c1        1 23U     -0.062000
     26 C22        -3.7120   -1.3130   -3.9720 c1        1 23U     -0.113000
     27 CL1        -4.8530   -0.8040   -6.3950 cl        1 23U     -0.008000
     28 O22        -0.9210    0.4600    0.2800 o         1 23U     -0.352000
     29 C23         0.6260    3.3940   -0.3300 c1        1 23U     -0.115000
     30 C24         0.7340    4.0330   -1.5820 c1        1 23U     -0.129667
     31 C25         1.6280    3.5350   -2.5540 c1        1 23U     -0.129667
     32 C26         2.4040    2.4090   -2.2750 c1        1 23U     -0.136000
     33 C27         2.2950    1.7740   -1.0290 c2        1 23U     -0.128000
     34 H2          2.1110    3.4070    3.3050 ha        1 23U      0.135000
     35 H3          4.3020    3.8340    4.2550 ha        1 23U      0.135000
     36 H4          6.1650    2.4810    3.5670 ha        1 23U      0.135000
     37 H5          5.8460    0.7170    1.9450 ha        1 23U      0.135000
     38 H6          3.6830    0.2930    1.0060 ha        1 23U      0.142000
     39 H8          0.6500    2.0570    1.9300 ha        1 23U      0.130000
     40 H9          0.4940   -0.0210    0.5280 h1        1 23U      0.118000
     41 HN2         2.3340   -1.2590    1.6930 hn        1 23U      0.159500
     42 HN2A        2.2950   -0.9520    0.2180 hn        1 23U      0.159500
     43 H11        -1.2390   -2.4240    4.0590 h1        1 23U      0.101500
     44 H11A       -1.8860   -0.9700    4.2280 h1        1 23U      0.101500
     45 H12        -3.8020   -1.8200    3.4880 hc        1 23U      0.097000
     46 H12A       -3.0380   -3.1870    3.0050 hc        1 23U      0.097000
     47 H13        -3.4680   -2.4290    1.1760 hc        1 23U      0.098000
     48 H13A       -3.4650   -0.9030    1.7140 hc        1 23U      0.098000
     49 H14        -1.0620   -2.4560    1.0060 h1        1 23U      0.109000
     50 HN23       -0.7910   -1.2580   -1.8460 hn        1 23U      0.243000
     51 H16        -3.4470   -0.9160   -1.4350 h1        1 23U      0.086500
     52 H16A       -3.0670   -2.4300   -1.0760 h1        1 23U      0.086500
     53 H18        -1.4690   -3.5310   -2.9620 ha        1 23U      0.141000
     54 H19        -1.6120   -4.1630   -5.2590 ha        1 23U      0.142000
     55 H20        -3.0610   -3.0160   -6.7310 ha        1 23U      0.151000
     56 H22        -4.2490   -0.5820   -3.6410 ha        1 23U      0.154000
     57 H23         0.0040    3.7400    0.3460 ha        1 23U      0.136000
     58 H24         0.1840    4.8310   -1.7790 ha        1 23U      0.135000
     59 H25         1.7040    3.9810   -3.4280 ha        1 23U      0.135000
     60 H26         3.0340    2.0570   -2.9580 ha        1 23U      0.127000
     61 H27         2.8440    0.9780   -0.8320 ha        1 23U      0.147000
@<TRIPOS>BOND
     1    1    6 1   
     2    1    8 1   
     3    2    3 1   
     4    2   34 1   
     5    3   35 1   
     6    4    5 1   
     7    4   36 1   
     8    5   37 1   
     9    6   38 1   
    10    7   29 1   
    11    7   33 1   
    12    8    9 1   
    13    8   39 1   
    14    9   10 1   
    15    9   11 1   
    16    9   40 1   
    17   10   41 1   
    18   10   42 1   
    19   11   12 1   
    20   11   13 1   
    21   13   14 1   
    22   13   17 1   
    23   14   15 1   
    24   14   43 1   
    25   14   44 1   
    26   15   16 1   
    27   15   45 1   
    28   15   46 1   
    29   16   17 1   
    30   16   47 1   
    31   16   48 1   
    32   17   18 1   
    33   17   49 1   
    34   18   19 1   
    35   18   28 1   
    36   19   20 1   
    37   19   50 1   
    38   20   21 1   
    39   20   51 1   
    40   20   52 1   
    41   21   22 1   
    42   21   26 1   
    43   22   23 1   
    44   22   53 1   
    45   23   54 1   
    46   24   25 1   
    47   24   55 1   
    48   25   27 1   
    49   26   56 1   
    50   29   57 1   
    51   30   31 1   
    52   30   58 1   
    53   31   59 1   
    54   32   33 1   
    55   32   60 1   
    56   33   61 1   
@<TRIPOS>SUBSTRUCTURE
     1 23U         1 TEMP              0 ****  ****    0 ROOT
