@<TRIPOS>MOLECULE
23U
   63    66     1     0     0
SMALL
bcc


@<TRIPOS>ATOM
      1 C1          0.1930   -0.5060    0.4710 ca        1 23U     -0.165300
      2 C2          1.1580    0.4790    0.6980 ca        1 23U     -0.133500
      3 C3          1.8180    0.5460    1.9270 ca        1 23U     -0.108500
      4 C4          1.5200   -0.3670    2.9360 ca        1 23U     -0.087500
      5 C5          0.5550   -1.3550    2.7160 ca        1 23U     -0.108500
      6 C6         -0.1050   -1.4240    1.4930 ca        1 23U     -0.133500
      7 C7         -0.3790    0.5880   -1.7250 ca        1 23U     -0.165300
      8 C8         -0.6010   -0.5670   -0.7980 c3        1 23U      0.046900
      9 C9         -0.3520   -1.9010   -1.5770 c3        1 23U      0.055500
     10 N2          0.9150   -2.5700   -1.1390 nz        1 23U     -0.828600
     11 C10        -1.5490   -2.8520   -1.3760 c         1 23U      0.660100
     12 O32        -1.4670   -3.8140   -0.5710 o         1 23U     -0.671100
     13 N1         -2.6890   -2.6500   -2.1010 n         1 23U     -0.438800
     14 C11        -2.8920   -1.6030   -3.1000 c3        1 23U      0.071000
     15 C12        -4.3910   -1.5660   -3.4260 c3        1 23U     -0.090400
     16 C13        -5.0410   -2.7190   -2.6680 c3        1 23U     -0.086400
     17 C14        -3.9310   -3.3460   -1.7880 c3        1 23U      0.046700
     18 C15        -3.8210   -4.8520   -2.0880 c         1 23U      0.515100
     19 N23        -3.6790   -5.7400   -0.8870 ny        1 23U     -0.679800
     20 C16        -3.6330   -7.2090   -1.2190 c3        1 23U      0.181100
     21 C17        -3.5350   -8.0220    0.0230 ca        1 23U     -0.186300
     22 C18        -4.6430   -8.7400    0.4830 ca        1 23U     -0.089000
     23 C19        -4.5240   -9.5460    1.6170 ca        1 23U     -0.104000
     24 C20        -3.3110   -9.6320    2.2980 ca        1 23U     -0.067000
     25 C21        -2.2020   -8.9060    1.8360 ca        1 23U      0.019400
     26 C22        -2.3090   -8.1050    0.6970 ca        1 23U     -0.118000
     27 Cl1        -0.7250   -9.0040    2.6540 cl        1 23U     -0.036400
     28 O22        -3.8310   -5.3700   -3.1910 o         1 23U     -0.379100
     29 C23        -1.3600    1.5840   -1.8100 ca        1 23U     -0.133500
     30 C24        -1.1770    2.6790   -2.6550 ca        1 23U     -0.108500
     31 C25        -0.0190    2.7860   -3.4250 ca        1 23U     -0.087500
     32 C26         0.9630    1.7960   -3.3440 ca        1 23U     -0.108500
     33 C27         0.7850    0.7050   -2.4970 ca        1 23U     -0.133500
     34 H2          1.3860    1.2270   -0.0810 ha        1 23U      0.132750
     35 H3          2.5680    1.3370    2.1000 ha        1 23U      0.163250
     36 H4          2.0320   -0.3040    3.9110 ha        1 23U      0.169500
     37 H5          0.3070   -2.0680    3.5180 ha        1 23U      0.163250
     38 H6         -0.8910   -2.1810    1.3390 ha        1 23U      0.132750
     39 H8         -1.6910   -0.5640   -0.4920 hc        1 23U      0.092700
     40 H9         -0.2360   -1.6660   -2.6820 hx        1 23U      0.141700
     41 HN2         0.7710   -2.9840   -0.2030 hn        1 23U      0.476133
     42 HN2A        1.6540   -1.8560   -1.0700 hn        1 23U      0.476133
     43 H11        -2.5400   -0.6120   -2.6930 h1        1 23U      0.081700
     44 H11A       -2.2900   -1.8540   -4.0170 h1        1 23U      0.081700
     45 H12        -4.8330   -0.5860   -3.1130 hc        1 23U      0.096200
     46 H12A       -4.5500   -1.6740   -4.5290 hc        1 23U      0.096200
     47 H13        -5.8720   -2.3550   -2.0130 hc        1 23U      0.097200
     48 H13A       -5.4620   -3.4730   -3.3810 hc        1 23U      0.097200
     49 H14        -4.1690   -3.1990   -0.6920 h1        1 23U      0.095700
     50 HN23       -4.4650   -5.5700   -0.2470 hn        1 23U      0.472300
     51 H16        -2.7390   -7.3750   -1.8870 hx        1 23U      0.116700
     52 H16A       -4.5660   -7.4580   -1.8040 hx        1 23U      0.116700
     53 H18        -5.6040   -8.6940   -0.0540 ha        1 23U      0.150000
     54 H19        -5.3930  -10.1240    1.9720 ha        1 23U      0.174000
     55 H20        -3.2200  -10.2740    3.1920 ha        1 23U      0.182000
     56 H22        -1.4290   -7.5640    0.3190 ha        1 23U      0.138000
     57 H23        -2.2700    1.5210   -1.1930 ha        1 23U      0.132750
     58 H24        -1.9480    3.4660   -2.7060 ha        1 23U      0.163250
     59 H25         0.1260    3.6540   -4.0900 ha        1 23U      0.169500
     60 H26         1.8830    1.8840   -3.9440 ha        1 23U      0.163250
     61 H27         1.5790   -0.0520   -2.4250 ha        1 23U      0.132750
     62 H231        1.1870   -3.3020   -1.7980 hn        1 23U      0.476133
     63 H232       -2.8090   -5.4760   -0.3920 hn        1 23U      0.472300
@<TRIPOS>BOND
     1    1    2 ar  
     2    1    6 ar  
     3    1    8 1   
     4    2    3 ar  
     5    2   34 1   
     6    3    4 ar  
     7    3   35 1   
     8    4    5 ar  
     9    4   36 1   
    10    5    6 ar  
    11    5   37 1   
    12    6   38 1   
    13    7    8 1   
    14    7   29 ar  
    15    7   33 ar  
    16    8    9 1   
    17    8   39 1   
    18    9   10 1   
    19    9   11 1   
    20    9   40 1   
    21   10   41 1   
    22   10   42 1   
    23   10   62 1   
    24   11   12 2   
    25   11   13 1   
    26   13   14 1   
    27   13   17 1   
    28   14   15 1   
    29   14   43 1   
    30   14   44 1   
    31   15   16 1   
    32   15   45 1   
    33   15   46 1   
    34   16   17 1   
    35   16   47 1   
    36   16   48 1   
    37   17   18 1   
    38   17   49 1   
    39   18   19 1   
    40   18   28 2   
    41   19   20 1   
    42   19   50 1   
    43   19   63 1   
    44   20   21 1   
    45   20   51 1   
    46   20   52 1   
    47   21   22 ar  
    48   21   26 ar  
    49   22   23 ar  
    50   22   53 1   
    51   23   24 ar  
    52   23   54 1   
    53   24   25 ar  
    54   24   55 1   
    55   25   26 ar  
    56   25   27 1   
    57   26   56 1   
    58   29   30 ar  
    59   29   57 1   
    60   30   31 ar  
    61   30   58 1   
    62   31   32 ar  
    63   31   59 1   
    64   32   33 ar  
    65   32   60 1   
    66   33   61 1   
@<TRIPOS>SUBSTRUCTURE
     1 23U         1 TEMP              0 ****  ****    0 ROOT
