@<TRIPOS>MOLECULE
23U
   61    64     1     0     0
SMALL
bcc


@<TRIPOS>ATOM
      1 C1          3.3210    1.8010   -0.5180 ca        1 23U     -0.087800
      2 C2          4.1260    2.5980    0.3050 ca        1 23U     -0.118000
      3 C3          4.2770    3.9580    0.0380 ca        1 23U     -0.131500
      4 C4          3.6260    4.5360   -1.0510 ca        1 23U     -0.124500
      5 C5          2.8200    3.7490   -1.8730 ca        1 23U     -0.131500
      6 C6          2.6680    2.3890   -1.6090 ca        1 23U     -0.118000
      7 C7          4.4680   -0.3400    0.0020 ca        1 23U     -0.087800
      8 C8          3.1540    0.3320   -0.2670 c3        1 23U      0.038900
      9 C9          2.1230    0.0060    0.8510 c3        1 23U      0.126500
     10 N2          2.0390    0.9990    1.8950 n3        1 23U     -0.893800
     11 C10         0.7570   -0.2630    0.1650 c         1 23U      0.615100
     12 O32        -0.0920    0.6500    0.0600 o         1 23U     -0.633100
     13 N1          0.4550   -1.5400   -0.2640 n         1 23U     -0.458800
     14 C11         1.4290   -2.6130   -0.3610 c3        1 23U      0.083000
     15 C12         0.9330   -3.6000   -1.4290 c3        1 23U     -0.090400
     16 C13        -0.3910   -3.0480   -1.9460 c3        1 23U     -0.088400
     17 C14        -0.7320   -1.8300   -1.0600 c3        1 23U      0.032700
     18 C15        -1.9860   -2.1120   -0.1970 c         1 23U      0.649100
     19 N23        -2.3610   -1.1370    0.7000 n         1 23U     -0.551900
     20 C16        -3.5680   -1.2400    1.4740 c3        1 23U      0.131300
     21 C17        -4.7920   -0.6600    0.8190 ca        1 23U     -0.112300
     22 C18        -5.3990   -1.3440   -0.2400 ca        1 23U     -0.113000
     23 C19        -6.5500   -0.8300   -0.8350 ca        1 23U     -0.125000
     24 C20        -7.1040    0.3670   -0.3810 ca        1 23U     -0.120000
     25 C21        -6.4920    1.0470    0.6760 ca        1 23U      0.013400
     26 C22        -5.3360    0.5410    1.2780 ca        1 23U     -0.114000
     27 CL1        -7.1600    2.5080    1.2360 cl        1 23U     -0.099400
     28 O22        -2.6240   -3.1790   -0.3130 o         1 23U     -0.622100
     29 C23         5.1540   -0.9280   -1.0700 ca        1 23U     -0.118000
     30 C24         6.3770   -1.5630   -0.8630 ca        1 23U     -0.131500
     31 C25         6.9280   -1.6210    0.4170 ca        1 23U     -0.124500
     32 C26         6.2510   -1.0390    1.4870 ca        1 23U     -0.131500
     33 C27         5.0280   -0.4010    1.2840 ca        1 23U     -0.118000
     34 H2          4.6420    2.1450    1.1660 ha        1 23U      0.140250
     35 H3          4.9130    4.5740    0.6910 ha        1 23U      0.133250
     36 H4          3.7470    5.6090   -1.2600 ha        1 23U      0.132500
     37 H5          2.3010    4.2010   -2.7310 ha        1 23U      0.133250
     38 H6          2.0240    1.7790   -2.2600 ha        1 23U      0.140250
     39 H8          2.7430   -0.1200   -1.2210 hc        1 23U      0.058700
     40 H9          2.4520   -0.9530    1.3600 h1        1 23U      0.082700
     41 HN2         1.9250    1.9190    1.5130 hn        1 23U      0.367300
     42 HN2A        1.2640    0.8000    2.4980 hn        1 23U      0.367300
     43 H11         2.4440   -2.2080   -0.6330 h1        1 23U      0.053700
     44 H11A        1.5130   -3.1220    0.6400 h1        1 23U      0.053700
     45 H12         1.6810   -3.6900   -2.2540 hc        1 23U      0.057700
     46 H12A        0.7930   -4.6140   -0.9790 hc        1 23U      0.057700
     47 H13        -0.2960   -2.7160   -3.0090 hc        1 23U      0.074700
     48 H13A       -1.1990   -3.8200   -1.8920 hc        1 23U      0.074700
     49 H14        -0.9830   -0.9320   -1.7010 h1        1 23U      0.084700
     50 HN23       -1.9450   -0.2330    0.6250 hn        1 23U      0.337500
     51 H16        -3.7650   -2.3330    1.6860 h1        1 23U      0.068700
     52 H16A       -3.3860   -0.7140    2.4560 h1        1 23U      0.068700
     53 H18        -4.9570   -2.2910   -0.5950 ha        1 23U      0.159000
     54 H19        -7.0260   -1.3700   -1.6670 ha        1 23U      0.138000
     55 H20        -8.0130    0.7700   -0.8510 ha        1 23U      0.146000
     56 H22        -4.8600    1.0850    2.1080 ha        1 23U      0.146000
     57 H23         4.7300   -0.8810   -2.0840 ha        1 23U      0.140250
     58 H24         6.9080   -2.0170   -1.7130 ha        1 23U      0.133250
     59 H25         7.8930   -2.1230    0.5800 ha        1 23U      0.132500
     60 H26         6.6820   -1.0810    2.4990 ha        1 23U      0.133250
     61 H27         4.5060    0.0570    2.1390 ha        1 23U      0.140250
@<TRIPOS>BOND
     1    1    2 ar  
     2    1    6 ar  
     3    1    8 1   
     4    2    3 ar  
     5    2   34 1   
     6    3    4 ar  
     7    3   35 1   
     8    4    5 ar  
     9    4   36 1   
    10    5    6 ar  
    11    5   37 1   
    12    6   38 1   
    13    7    8 1   
    14    7   29 ar  
    15    7   33 ar  
    16    8    9 1   
    17    8   39 1   
    18    9   10 1   
    19    9   11 1   
    20    9   40 1   
    21   10   41 1   
    22   10   42 1   
    23   11   12 2   
    24   11   13 1   
    25   13   14 1   
    26   13   17 1   
    27   14   15 1   
    28   14   43 1   
    29   14   44 1   
    30   15   16 1   
    31   15   45 1   
    32   15   46 1   
    33   16   17 1   
    34   16   47 1   
    35   16   48 1   
    36   17   18 1   
    37   17   49 1   
    38   18   19 1   
    39   18   28 2   
    40   19   20 1   
    41   19   50 1   
    42   20   21 1   
    43   20   51 1   
    44   20   52 1   
    45   21   22 ar  
    46   21   26 ar  
    47   22   23 ar  
    48   22   53 1   
    49   23   24 ar  
    50   23   54 1   
    51   24   25 ar  
    52   24   55 1   
    53   25   26 ar  
    54   25   27 1   
    55   26   56 1   
    56   29   30 ar  
    57   29   57 1   
    58   30   31 ar  
    59   30   58 1   
    60   31   32 ar  
    61   31   59 1   
    62   32   33 ar  
    63   32   60 1   
    64   33   61 1   
@<TRIPOS>SUBSTRUCTURE
     1 23U         1 TEMP              0 ****  ****    0 ROOT
