@<TRIPOS>MOLECULE
23V
   42    43     1     0     0
SMALL
bcc


@<TRIPOS>ATOM
      1 C1         -2.5030   -0.0770    0.7450 c3        1 23V      0.236500
      2 N1         -1.0750   -0.1920    0.9790 n         1 23V     -0.479900
      3 S1         -1.3880   -2.6080    2.0460 s         1 23V     -0.524400
      4 CL1         7.8620    0.0500   -0.4240 cl        1 23V     -0.087400
      5 C2         -3.0960    1.2000    1.4060 c3        1 23V      0.090100
      6 N2          0.8280   -1.6880    1.1230 n         1 23V     -0.294900
      7 O2         -3.0920    1.1150    2.8180 oh        1 23V     -0.598800
      8 C3         -4.5780    1.3180    1.0080 c3        1 23V      0.109100
      9 N3          1.6750   -0.8370    0.5470 n2        1 23V     -0.472300
     10 O3         -3.9930   -1.3220   -3.0190 oh        1 23V     -0.594800
     11 C4         -4.7200    1.2960   -0.5220 c3        1 23V      0.117100
     12 O4         -6.0850    1.2450   -0.8940 oh        1 23V     -0.593800
     13 C5         -4.0430    0.0300   -1.0750 c3        1 23V      0.149100
     14 O5         -2.6680    0.0310   -0.6830 os        1 23V     -0.439600
     15 C6         -4.0480    0.0340   -2.6060 c3        1 23V      0.135400
     16 O6         -5.1140    2.5560    1.4420 oh        1 23V     -0.607800
     17 C7         -0.5460   -1.4320    1.3210 c         1 23V      0.581400
     18 C8          2.9450   -1.1270    0.4370 ce        1 23V      0.390800
     19 C9          3.8950   -0.2120   -0.2040 ca        1 23V     -0.119900
     20 C10         5.2640   -0.4730   -0.0360 ca        1 23V     -0.110000
     21 C11         6.2050    0.3670   -0.6320 ca        1 23V      0.013400
     22 C12         5.8010    1.4650   -1.4000 ca        1 23V     -0.111000
     23 C13         4.4400    1.7160   -1.5640 ca        1 23V     -0.127000
     24 C14         3.4880    0.8860   -0.9730 ca        1 23V     -0.095000
     25 H1         -3.0390   -0.9990    1.1370 h2        1 23V      0.122700
     26 HN1        -0.5290    0.4230    0.4070 hn        1 23V      0.324500
     27 H2         -2.5350    2.1160    1.0720 h1        1 23V      0.060700
     28 HN2         1.1350   -2.5700    1.5110 hn        1 23V      0.340500
     29 HO2        -2.1820    0.9650    3.1010 ho        1 23V      0.424000
     30 H3         -5.1620    0.4720    1.4670 h1        1 23V      0.070700
     31 HO3        -3.8970   -1.3120   -3.9780 ho        1 23V      0.404000
     32 H4         -4.2420    2.2170   -0.9570 h1        1 23V      0.059700
     33 HO4        -6.5220    1.9730   -0.4310 ho        1 23V      0.426000
     34 H5         -4.5560   -0.8930   -0.6890 h1        1 23V      0.086700
     35 H6         -3.1640    0.6020   -2.9980 h1        1 23V      0.046700
     36 H6A        -5.0030    0.5050   -2.9640 h1        1 23V      0.046700
     37 HO6        -4.9840    2.5920    2.4000 ho        1 23V      0.429000
     38 H8          3.4040   -2.0680    0.8150 h4        1 23V     -0.000200
     39 H10         5.5930   -1.3340    0.5660 ha        1 23V      0.149000
     40 H12         6.5480    2.1230   -1.8680 ha        1 23V      0.151000
     41 H13         4.1140    2.5770   -2.1680 ha        1 23V      0.142000
     42 H14         2.4180    1.1000   -1.1180 ha        1 23V      0.150000
@<TRIPOS>BOND
     1    1    2 1   
     2    1    5 1   
     3    1   14 1   
     4    1   25 1   
     5    2   17 1   
     6    2   26 1   
     7    3   17 2   
     8    4   21 1   
     9    5    7 1   
    10    5    8 1   
    11    5   27 1   
    12    6    9 1   
    13    6   17 1   
    14    6   28 1   
    15    7   29 1   
    16    8   11 1   
    17    8   16 1   
    18    8   30 1   
    19    9   18 2   
    20   10   15 1   
    21   10   31 1   
    22   11   12 1   
    23   11   13 1   
    24   11   32 1   
    25   12   33 1   
    26   13   14 1   
    27   13   15 1   
    28   13   34 1   
    29   15   35 1   
    30   15   36 1   
    31   16   37 1   
    32   18   19 1   
    33   18   38 1   
    34   19   20 ar  
    35   19   24 ar  
    36   20   21 ar  
    37   20   39 1   
    38   21   22 ar  
    39   22   23 ar  
    40   22   40 1   
    41   23   24 ar  
    42   23   41 1   
    43   24   42 1   
@<TRIPOS>SUBSTRUCTURE
     1 23V         1 TEMP              0 ****  ****    0 ROOT
