@<TRIPOS>MOLECULE
23V
   42    41     1     0     0
SMALL
bcc


@<TRIPOS>ATOM
      1 C1          0.8870   -1.7620   -0.1180 c3        1 23V      0.101000
      2 N1          0.4430   -0.6660    0.2660 n         1 23V     -0.331000
      3 S1         -2.1220   -1.4250    0.3880 s         1 23V     -0.277000
      4 CL1        -6.0320    3.3100   -2.6530 cl        1 23V     -0.003000
      5 C2          2.4550   -1.7770   -0.0960 c3        1 23V      0.019000
      6 N2         -1.3090    0.9410   -0.5610 n         1 23V     -0.283000
      7 O2          2.8900   -2.9440   -0.7150 oh        1 23V     -0.303000
      8 C3          3.0620   -1.7130    1.3030 c3        1 23V     -0.007000
      9 N3         -0.9050    2.1090    0.0270 n2        1 23V     -0.048000
     10 O3         -0.4640   -1.9210    3.8170 oh        1 23V     -0.325000
     11 C4          2.5840   -2.7310    2.1720 c3        1 23V     -0.033000
     12 O4          3.1380   -4.1080    1.6660 oh        1 23V     -0.326000
     13 C5          1.1660   -2.8240    2.2420 c3        1 23V     -0.038000
     14 O5          0.5100   -2.9280    0.9190 os        1 23V     -0.260000
     15 C6          0.6180   -1.5500    2.9740 c3        1 23V     -0.054000
     16 O6          2.7350   -0.3840    1.8990 oh        1 23V     -0.331000
     17 C7         -0.9540   -0.3320    0.0400 c2        1 23V      0.187000
     18 C8         -1.2590    3.2510   -0.4840 c1        1 23V     -0.118000
     19 C9         -2.1600    3.2900   -1.7890 c1        1 23V     -0.080000
     20 C10        -3.5370    3.2450   -1.6780 c2        1 23V     -0.118000
     21 C11        -4.3200    3.3440   -2.7990 c2        1 23V     -0.060000
     22 C12        -3.7340    3.4890   -4.0430 c2        1 23V     -0.113000
     23 C13        -2.3520    3.5340   -4.1540 c1        1 23V     -0.120000
     24 C14        -1.5710    3.4340   -3.0280 c1        1 23V     -0.108000
     25 H1          0.5570   -1.9760   -1.0070 h2        1 23V      0.197000
     26 HN1         0.9700   -0.0940    0.6530 hn        1 23V      0.259000
     27 H2          2.7860   -0.9950   -0.6230 h1        1 23V      0.147000
     28 HN2        -1.9020    0.9650   -1.2660 hn        1 23V      0.257000
     29 HO2         3.4210   -2.7410   -1.3830 ho        1 23V      0.226000
     30 H3          4.0140   -1.7920    1.2320 h1        1 23V      0.118000
     31 HO3        -0.4560   -1.4060    4.5670 ho        1 23V      0.201000
     32 H4          2.9280   -2.5670    3.0620 h1        1 23V      0.100000
     33 HO4         3.5840   -4.5320    2.3520 ho        1 23V      0.213000
     34 H5          0.9290   -3.6170    2.7730 h1        1 23V      0.114000
     35 H6          1.3370   -1.1490    3.5180 h1        1 23V      0.108000
     36 H6A         0.3050   -0.8910    2.3030 h1        1 23V      0.108000
     37 HO6         3.5140    0.0720    2.0840 ho        1 23V      0.216000
     38 H8         -0.9620    4.1110   -0.0510 ha        1 23V      0.172000
     39 H10        -3.9510    3.0660   -0.8080 ha        1 23V      0.156000
     40 H12        -4.2930    3.5600   -4.8450 ha        1 23V      0.152000
     41 H13        -1.9250    3.6380   -5.0530 ha        1 23V      0.143000
     42 H14        -0.6250    3.4650   -3.1020 ha        1 23V      0.141000
@<TRIPOS>BOND
     1    1    2 1   
     2    1    5 1   
     3    1   14 1   
     4    1   25 1   
     5    2   17 1   
     6    2   26 1   
     7    3   17 1   
     8    4   21 1   
     9    5    7 1   
    10    5    8 1   
    11    5   27 1   
    12    6    9 1   
    13    6   17 1   
    14    6   28 1   
    15    7   29 1   
    16    8   11 1   
    17    8   16 1   
    18    8   30 1   
    19    9   18 1   
    20   10   15 1   
    21   10   31 1   
    22   11   12 1   
    23   11   13 1   
    24   11   32 1   
    25   12   33 1   
    26   13   14 1   
    27   13   15 1   
    28   13   34 1   
    29   15   35 1   
    30   15   36 1   
    31   16   37 1   
    32   18   38 1   
    33   19   20 1   
    34   19   24 1   
    35   20   21 1   
    36   20   39 1   
    37   21   22 1   
    38   22   23 1   
    39   22   40 1   
    40   23   41 1   
    41   24   42 1   
@<TRIPOS>SUBSTRUCTURE
     1 23V         1 TEMP              0 ****  ****    0 ROOT
