@<TRIPOS>MOLECULE
23V
   44    44     1     0     0
SMALL
bcc


@<TRIPOS>ATOM
      1 C1       -161.0530 -124.0950  689.9060 c3        1 23V      0.050000
      2 N1       -162.2700 -124.7200  690.5260 n4        1 23V     -0.077000
      3 S1       -162.8040 -127.2280  690.9600 s         1 23V      0.084000
      4 CL1       340.6910  266.8620-1482.6340 cl        1 23V      0.118000
      5 C2       -161.4330 -123.0510  688.8220 c3        1 23V      0.001000
      6 N2       -161.0820 -125.7970  692.3710 n         1 23V     -0.326000
      7 O2       -162.1520 -123.7560  687.8330 oh        1 23V     -0.344000
      8 C3       -160.1230 -122.4490  688.2870 c3        1 23V      0.003000
      9 N3        345.1910  264.1980-1485.4470 n1        1 23V      0.121000
     10 O3       -158.2710 -123.3440  692.7630 oh        1 23V     -0.319000
     11 C4       -159.3140 -121.8400  689.4520 c3        1 23V     -0.030000
     12 O4       -158.0680 -121.4740  688.8900 oh        1 23V     -0.310000
     13 C5       -159.1020 -122.8920  690.5510 c3        1 23V     -0.028000
     14 O5       -160.3730 -123.4300  690.9650 os        1 23V     -0.294000
     15 C6       -158.5130 -122.3060  691.8410 c3        1 23V     -0.018000
     16 O6       -160.5140 -121.4510  687.3670 oh        1 23V     -0.320000
     17 C7       -161.9830 -125.9640  691.3730 c2        1 23V     -0.023000
     18 C8        344.5600  265.1670-1485.3420 c1        1 23V     -0.190000
     19 C9        343.7700  266.3750-1485.2180 c3        1 23V     -0.039000
     20 C10       342.5440  266.1590-1484.4140 c2        1 23V      0.048000
     21 C11       342.1280  267.0840-1483.4840 c2        1 23V     -0.162000
     22 C12       342.9220  268.2280-1483.2080 c2        1 23V      0.160000
     23 C13       344.1400  268.4360-1483.8800 c2        1 23V     -0.208000
     24 C14       344.5930  267.5420-1484.8160 c2        1 23V      0.069000
     25 H1       -160.4200 -124.9210  689.4640 hx        1 23V      0.158000
     26 HN1      -162.7490 -124.0130  691.0970 hn        1 23V      0.275000
     27 H2       -162.0750 -122.2330  689.2550 h1        1 23V      0.125000
     28 HN2      -160.8950 -126.5800  692.9620 hn        1 23V      0.284000
     29 HO2      -162.1680 -123.2040  687.0350 ho        1 23V      0.268000
     30 H3       -159.5080 -123.2360  687.7660 h1        1 23V      0.119000
     31 HO3      -157.3820 -123.6860  692.6000 ho        1 23V      0.217000
     32 H4       -159.8560 -120.9460  689.8650 h1        1 23V      0.119000
     33 HO4      -157.7010 -120.7600  689.4280 ho        1 23V      0.227000
     34 H5       -158.4540 -123.7280  690.1670 h1        1 23V      0.117000
     35 H6       -159.2610 -121.6320  692.3410 h1        1 23V      0.117000
     36 H6A      -157.5830 -121.7350  691.5840 h1        1 23V      0.117000
     37 HO6      -159.7020 -121.0620  687.0100 ho        1 23V      0.247000
     38 H8        343.3830  266.6370-1486.2820 hc        1 23V      0.248000
     39 H10       341.9650  265.2340-1484.6150 ha        1 23V      0.213000
     40 H12       342.5860  268.9570-1482.4390 ha        1 23V      0.210000
     41 H13       344.7450  269.3290-1483.6230 ha        1 23V      0.209000
     42 H14       345.5690  267.6730-1485.3240 ha        1 23V      0.206000
     43 H121     -162.8980 -125.0230  689.7540 hn        1 23V      0.275000
     44 H22      -160.5610 -124.9550  692.5220 hn        1 23V      0.284000
@<TRIPOS>BOND
     1    1    2 1   
     2    1    5 1   
     3    1   14 1   
     4    1   25 1   
     5    2   17 1   
     6    2   26 1   
     7    2   43 1   
     8    3   17 1   
     9    4   21 1   
    10    5    7 1   
    11    5    8 1   
    12    5   27 1   
    13    6   17 1   
    14    6   28 1   
    15    6   44 1   
    16    7   29 1   
    17    8   11 1   
    18    8   16 1   
    19    8   30 1   
    20    9   18 1   
    21   10   15 1   
    22   10   31 1   
    23   11   12 1   
    24   11   13 1   
    25   11   32 1   
    26   12   33 1   
    27   13   14 1   
    28   13   15 1   
    29   13   34 1   
    30   15   35 1   
    31   15   36 1   
    32   16   37 1   
    33   18   19 1   
    34   19   20 1   
    35   19   24 1   
    36   19   38 1   
    37   20   21 1   
    38   20   39 1   
    39   21   22 1   
    40   22   23 1   
    41   22   40 1   
    42   23   24 1   
    43   23   41 1   
    44   24   42 1   
@<TRIPOS>SUBSTRUCTURE
     1 23V         1 TEMP              0 ****  ****    0 ROOT
