@<TRIPOS>MOLECULE
23V
   44    45     1     0     0
SMALL
bcc


@<TRIPOS>ATOM
      1 C1          0.7390   -0.6840   -0.0530 c3        1 23V      0.332300
      2 N1          0.6370   -1.2140   -1.4750 ny        1 23V     -0.609800
      3 S1         -1.3670   -2.8990   -1.9180 s         1 23V      0.251600
      4 Cl1        -2.7480    2.6280   -9.0070 cl        1 23V     -0.004400
      5 C2          2.1990   -0.3170    0.3160 c3        1 23V      0.119100
      6 N2         -1.5570   -0.2650   -2.2420 ny        1 23V     -0.302900
      7 O2          2.9310   -1.5160    0.2170 oh        1 23V     -0.624800
      8 C3          2.1590    0.2600    1.7440 c3        1 23V      0.114100
      9 N3         -0.9880    0.3880   -3.3470 n2        1 23V     -0.630400
     10 O3         -2.1510    1.7840    0.1540 oh        1 23V     -0.657800
     11 C4          1.1950    1.4670    1.8140 c3        1 23V      0.083100
     12 O4          1.0740    1.7660    3.1890 oh        1 23V     -0.573800
     13 C5         -0.1890    1.0770    1.2670 c3        1 23V      0.122100
     14 O5         -0.0520    0.4860   -0.0440 os        1 23V     -0.464600
     15 C6         -1.1140    2.2700    1.0000 c3        1 23V      0.134400
     16 O6          3.4850    0.6650    2.0080 oh        1 23V     -0.585800
     17 C7         -0.7690   -1.5130   -1.8710 c         1 23V      0.033400
     18 C8         -1.7340    0.7120   -4.3860 ce        1 23V      0.599800
     19 C9         -1.2190    1.4240   -5.5330 ca        1 23V     -0.230900
     20 C10        -2.1150    1.6630   -6.5990 ca        1 23V     -0.060000
     21 C11        -1.6780    2.3460   -7.7330 ca        1 23V      0.001400
     22 C12        -0.3510    2.8020   -7.8160 ca        1 23V     -0.023000
     23 C13         0.5300    2.5680   -6.7600 ca        1 23V     -0.132000
     24 C14         0.1080    1.8850   -5.6230 ca        1 23V     -0.045000
     25 H1          0.3290   -1.4780    0.6410 hx        1 23V      0.122700
     26 HN1         1.0740   -0.5270   -2.1130 hn        1 23V      0.502300
     27 H2          2.6210    0.4530   -0.3920 h1        1 23V      0.095700
     28 HN2        -2.5400   -0.5790   -2.3660 hn        1 23V      0.488300
     29 HO2         3.7510   -1.4090    0.7300 ho        1 23V      0.485000
     30 H3          1.8360   -0.5280    2.4820 h1        1 23V      0.085700
     31 HO3        -2.9290    2.3350    0.3160 ho        1 23V      0.447000
     32 H4          1.6230    2.3270    1.2310 h1        1 23V      0.086700
     33 HO4         0.9820    2.7250    3.2820 ho        1 23V      0.439000
     34 H5         -0.6850    0.3350    1.9520 h1        1 23V      0.092700
     35 H6         -1.5140    2.6430    1.9790 h1        1 23V      0.078200
     36 H6A        -0.5670    3.0890    0.4620 h1        1 23V      0.078200
     37 HO6         3.5170    0.9600    2.9320 ho        1 23V      0.459000
     38 H8         -2.8260    0.4670   -4.4510 h4        1 23V      0.030800
     39 H10        -3.1590    1.3120   -6.5410 ha        1 23V      0.162000
     40 H12        -0.0070    3.3450   -8.7160 ha        1 23V      0.188000
     41 H13         1.5700    2.9310   -6.8290 ha        1 23V      0.174000
     42 H14         0.8190    1.7190   -4.7990 ha        1 23V      0.144000
     43 H121        1.1920   -2.0920   -1.5050 hn        1 23V      0.502300
     44 H22        -1.5330    0.4260   -1.4420 hn        1 23V      0.488300
@<TRIPOS>BOND
     1    1    2 1   
     2    1    5 1   
     3    1   14 1   
     4    1   25 1   
     5    2   17 1   
     6    2   26 1   
     7    2   43 1   
     8    3   17 2   
     9    4   21 1   
    10    5    7 1   
    11    5    8 1   
    12    5   27 1   
    13    6    9 1   
    14    6   17 1   
    15    6   28 1   
    16    6   44 1   
    17    7   29 1   
    18    8   11 1   
    19    8   16 1   
    20    8   30 1   
    21    9   18 2   
    22   10   15 1   
    23   10   31 1   
    24   11   12 1   
    25   11   13 1   
    26   11   32 1   
    27   12   33 1   
    28   13   14 1   
    29   13   15 1   
    30   13   34 1   
    31   15   35 1   
    32   15   36 1   
    33   16   37 1   
    34   18   19 1   
    35   18   38 1   
    36   19   20 ar  
    37   19   24 ar  
    38   20   21 ar  
    39   20   39 1   
    40   21   22 ar  
    41   22   23 ar  
    42   22   40 1   
    43   23   24 ar  
    44   23   41 1   
    45   24   42 1   
@<TRIPOS>SUBSTRUCTURE
     1 23V         1 TEMP              0 ****  ****    0 ROOT
