@<TRIPOS>MOLECULE
23X
   83    85     1     0     0
SMALL
bcc


@<TRIPOS>ATOM
      1 C27         6.1030    0.1010   -0.6710 c         1 23X      0.661100
      2 O27         5.9790    0.6920   -1.7610 o         1 23X     -0.612100
      3 C28         7.3440    0.2450    0.1750 c3        1 23X     -0.173100
      4 N27         5.1190   -0.7580   -0.2030 n         1 23X     -0.555900
      5 C22         3.8320   -0.8630   -0.8360 c3        1 23X      0.039700
      6 C21         2.7550   -0.1110   -0.0050 c         1 23X      0.638100
      7 O22         2.6430   -0.3010    1.2230 o         1 23X     -0.619100
      8 C23         3.3450   -2.3200   -1.0320 c3        1 23X     -0.062700
      9 C25         3.5010   -3.1590    0.2270 c3        1 23X     -0.089400
     10 C24         4.0750   -2.9430   -2.2030 c3        1 23X     -0.092100
     11 C26         2.6250   -4.3850    0.2090 c3        1 23X     -0.092100
     12 N11        -2.8610    1.3910    0.2010 n3        1 23X     -0.801500
     13 C12        -3.6080    1.5590   -1.0200 c3        1 23X      0.216800
     14 C13        -4.6510    2.6920   -1.0110 c3        1 23X     -0.095700
     15 C14        -3.9950    4.0450   -0.8520 c3        1 23X     -0.085100
     16 C15        -5.4440    2.6200   -2.3110 c3        1 23X     -0.074400
     17 C17        -0.4780    1.2750   -0.5980 c3        1 23X      0.098100
     18 C18        -6.7590    3.3520   -2.2180 c3        1 23X     -0.093100
     19 O18        -0.5810    1.6260   -1.9650 oh        1 23X     -0.593800
     20 C19         0.9420    1.5800   -0.0380 c3        1 23X      0.074700
     21 N20         1.9310    0.7540   -0.6870 n         1 23X     -0.555900
     22 C32         1.2490    3.0860   -0.1750 c3        1 23X     -0.056100
     23 C33         3.6170    3.9020   -0.1070 ca        1 23X     -0.119000
     24 C34         4.7450    4.3150    0.6030 ca        1 23X     -0.127000
     25 C35         4.7300    4.3250    1.9970 ca        1 23X     -0.131000
     26 C36         3.5850    3.9190    2.6820 ca        1 23X     -0.127000
     27 C37         2.4570    3.5070    1.9760 ca        1 23X     -0.119000
     28 C38         2.4650    3.4950    0.5760 ca        1 23X     -0.087300
     29 C1         -1.8940   -5.4170   -0.1280 cc        1 23X      0.360100
     30 N1         -3.1300   -5.0540   -0.4080 nd        1 23X     -0.525100
     31 S1         -0.8900   -4.2350    0.6150 ss        1 23X      0.004900
     32 C2         -3.3220   -3.7230   -0.0040 ca        1 23X      0.133400
     33 C3         -2.1610   -3.1160    0.5910 ca        1 23X     -0.130100
     34 C4         -2.2170   -1.7970    1.0350 ca        1 23X      0.040000
     35 C5         -3.3900   -1.0620    0.8950 ca        1 23X     -0.369500
     36 C6         -4.5240   -1.6670    0.3150 ca        1 23X     -0.037000
     37 C7         -4.5090   -2.9750   -0.1320 ca        1 23X     -0.098000
     38 S8         -3.4830    0.5360    1.4470 sy        1 23X      1.501200
     39 O9         -4.8430    0.8590    1.6330 o         1 23X     -0.649800
     40 O10        -2.6420    0.6760    2.5750 o         1 23X     -0.649800
     41 H28         7.8260   -0.7490    0.3400 hc        1 23X      0.069033
     42 H28A        8.0630    0.9140   -0.3560 hc        1 23X      0.069033
     43 H28B        7.0880    0.6960    1.1640 hc        1 23X      0.069033
     44 HN27        5.1730   -1.0900    0.7330 hn        1 23X      0.321500
     45 H22         3.9220   -0.3930   -1.8650 h1        1 23X      0.097700
     46 H23         2.2490   -2.2550   -1.2860 hc        1 23X      0.055700
     47 H25         4.5730   -3.4730    0.3370 hc        1 23X      0.055700
     48 H25A        3.2360   -2.5330    1.1230 hc        1 23X      0.055700
     49 H24         3.6990   -3.9790   -2.3820 hc        1 23X      0.040700
     50 H24A        3.9130   -2.3440   -3.1320 hc        1 23X      0.040700
     51 H24B        5.1720   -2.9950   -2.0050 hc        1 23X      0.040700
     52 H26         1.5420   -4.1000    0.1740 hc        1 23X      0.033367
     53 H26A        2.8480   -5.0260   -0.6780 hc        1 23X      0.033367
     54 H26B        2.7980   -4.9890    1.1330 hc        1 23X      0.033367
     55 H12        -2.8950    1.7300   -1.8770 h1        1 23X      0.056700
     56 H12A       -4.1520    0.5860   -1.2210 h1        1 23X      0.056700
     57 H13        -5.3580    2.5260   -0.1470 hc        1 23X      0.080700
     58 H14        -4.7480    4.8590   -0.9890 hc        1 23X      0.033367
     59 H14A       -3.5540    4.1520    0.1680 hc        1 23X      0.033367
     60 H14B       -3.1860    4.1850   -1.6090 hc        1 23X      0.033367
     61 H15        -4.8290    3.0480   -3.1460 hc        1 23X      0.038200
     62 H15A       -5.6460    1.5450   -2.5660 hc        1 23X      0.038200
     63 H16        -1.6300    3.0550   -0.0890 h1        1 23X      0.070200
     64 H16A       -1.2060    1.9860    1.3330 h1        1 23X      0.070200
     65 H17        -0.6440    0.1590   -0.5970 h1        1 23X      0.089700
     66 H18        -7.3210    3.2520   -3.1790 hc        1 23X      0.036367
     67 H18A       -7.3870    2.9330   -1.3960 hc        1 23X      0.036367
     68 H18B       -6.5990    4.4390   -2.0170 hc        1 23X      0.036367
     69 HO18       -0.5230    2.5880   -2.0260 ho        1 23X      0.399000
     70 H19         0.9410    1.3180    1.0650 h1        1 23X      0.102700
     71 HN20        2.0610    0.8980   -1.6600 hn        1 23X      0.321500
     72 H32         1.3580    3.3540   -1.2600 hc        1 23X      0.051700
     73 H32A        0.3690    3.6560    0.2290 hc        1 23X      0.051700
     74 H33         3.6380    3.8930   -1.2070 ha        1 23X      0.134000
     75 H34         5.6460    4.6310    0.0580 ha        1 23X      0.134000
     76 H35         5.6190    4.6530    2.5550 ha        1 23X      0.131000
     77 H36         3.5700    3.9220    3.7820 ha        1 23X      0.134000
     78 H37         1.5560    3.1830    2.5200 ha        1 23X      0.134000
     79 H4         -1.3330   -1.3370    1.5140 ha        1 23X      0.160000
     80 H6         -5.4540   -1.0750    0.2350 ha        1 23X      0.161000
     81 H7         -5.4040   -3.4350   -0.5780 ha        1 23X      0.161000
     82 C16        -1.5540    1.9820    0.2570 c3        1 23X      0.188800
     83 H1         -1.5290   -6.4240   -0.3610 h5        1 23X      0.066800
@<TRIPOS>BOND
     1    1    2 2   
     2    1    3 1   
     3    1    4 1   
     4    3   41 1   
     5    3   42 1   
     6    3   43 1   
     7    4    5 1   
     8    4   44 1   
     9    5    6 1   
    10    5    8 1   
    11    5   45 1   
    12    6    7 2   
    13    6   21 1   
    14    8    9 1   
    15    8   10 1   
    16    8   46 1   
    17    9   11 1   
    18    9   47 1   
    19    9   48 1   
    20   10   49 1   
    21   10   50 1   
    22   10   51 1   
    23   11   52 1   
    24   11   53 1   
    25   11   54 1   
    26   12   13 1   
    27   12   38 1   
    28   12   82 1   
    29   13   14 1   
    30   13   55 1   
    31   13   56 1   
    32   14   15 1   
    33   14   16 1   
    34   14   57 1   
    35   15   58 1   
    36   15   59 1   
    37   15   60 1   
    38   16   18 1   
    39   16   61 1   
    40   16   62 1   
    41   17   19 1   
    42   17   20 1   
    43   17   65 1   
    44   17   82 1   
    45   18   66 1   
    46   18   67 1   
    47   18   68 1   
    48   19   69 1   
    49   20   21 1   
    50   20   22 1   
    51   20   70 1   
    52   21   71 1   
    53   22   28 1   
    54   22   72 1   
    55   22   73 1   
    56   23   24 ar  
    57   23   28 ar  
    58   23   74 1   
    59   24   25 ar  
    60   24   75 1   
    61   25   26 ar  
    62   25   76 1   
    63   26   27 ar  
    64   26   77 1   
    65   27   28 ar  
    66   27   78 1   
    67   29   30 2   
    68   29   31 1   
    69   29   83 1   
    70   30   32 1   
    71   31   33 1   
    72   32   33 ar  
    73   32   37 ar  
    74   33   34 ar  
    75   34   35 ar  
    76   34   79 1   
    77   35   36 ar  
    78   35   38 1   
    79   36   37 ar  
    80   36   80 1   
    81   37   81 1   
    82   38   39 2   
    83   38   40 2   
    84   63   82 1   
    85   64   82 1   
@<TRIPOS>SUBSTRUCTURE
     1 23X         1 TEMP              0 ****  ****    0 ROOT
