@<TRIPOS>MOLECULE
23X
   83    76     1     0     0
SMALL
bcc


@<TRIPOS>ATOM
      1 C27         0.5270   -1.0840    5.8060 c1        1 23X      0.309000
      2 O27         1.4260   -1.7340    5.3360 o         1 23X     -0.398000
      3 C28         0.7070   -0.3980    7.1440 c3        1 23X     -0.241000
      4 N27        -0.7100   -0.9670    5.1070 n2        1 23X     -0.376000
      5 C22        -0.9790   -1.8080    4.0040 c3        1 23X      0.015000
      6 C21        -1.4770   -0.9590    2.8210 c1        1 23X      0.283000
      7 O22        -2.5910   -0.4830    2.8430 o         1 23X     -0.394000
      8 C23        -2.0400   -2.8140    4.3840 c3        1 23X     -0.105000
      9 C25        -2.4640   -2.5840    5.8250 c3        1 23X     -0.159000
     10 C24        -1.4850   -4.2080    4.2410 c3        1 23X     -0.213000
     11 C26        -3.3070   -3.7650    6.3010 c3        1 23X     -0.207000
     12 N11         0.3810    0.8240   -2.7350 n3        1 23X     -0.822000
     13 C12         1.6640    0.1520   -2.7770 c3        1 23X     -0.018000
     14 C13         2.7330    1.1210   -3.2730 c3        1 23X     -0.133000
     15 C14         3.5760    1.5740   -2.1120 c3        1 23X     -0.204000
     16 C15         3.6080    0.4260   -4.2920 c3        1 23X     -0.153000
     17 C16        -0.1970    1.2310   -1.4380 c3        1 23X     -0.016000
     18 C17        -0.5370   -0.0160   -0.6150 c3        1 23X     -0.010000
     19 C18         4.3190    1.4660   -5.1440 c3        1 23X     -0.210000
     20 O18         0.5560   -0.8760   -0.6020 oh        1 23X     -0.329000
     21 C19        -0.8790    0.3930    0.8140 c3        1 23X     -0.002000
     22 N20        -0.5980   -0.6930    1.7000 n2        1 23X     -0.377000
     23 C32        -0.0520    1.5910    1.2090 c3        1 23X     -0.133000
     24 C33         0.0770    2.7030    3.2400 c1        1 23X     -0.129000
     25 C34        -0.1510    3.7540    4.1240 c1        1 23X     -0.129500
     26 C35        -1.2890    4.5390    3.9900 c1        1 23X     -0.129500
     27 C36        -2.1970    4.2750    2.9790 c1        1 23X     -0.129500
     28 C37        -1.9690    3.2220    2.0950 c1        1 23X     -0.129500
     29 C38        -0.8320    2.4390    2.2280 c1        1 23X     -0.081000
     30 C1         -1.1090   -1.4090   -9.9570 c1        1 23X     -0.294000
     31 N1          0.1350   -1.8080   -9.3930 n2        1 23X     -0.101000
     32 S1         -1.8370   -0.5300   -8.9240 ss        1 23X      0.466000
     33 C2          0.2500   -1.1820   -7.9410 c1        1 23X     -0.010000
     34 C3         -0.9300   -0.4280   -7.6820 c1        1 23X     -0.354000
     35 C4         -1.1300    0.1430   -6.4270 c1        1 23X      0.050000
     36 C5         -0.1690   -0.0260   -5.4170 c1        1 23X     -0.820000
     37 C6          0.9990   -0.7720   -5.6720 c1        1 23X     -0.040000
     38 C7          1.2030   -1.3480   -6.9370 c1        1 23X     -0.104000
     39 S8         -0.3850    1.2640   -4.1740 s6        1 23X      2.839000
     40 O9          0.0910    2.5350   -4.6520 o         1 23X     -0.932500
     41 O10        -1.7730    1.5510   -3.9580 o         1 23X     -0.932500
     42 H28         0.2800   -0.9290    7.8430 hc        1 23X      0.110667
     43 H28A        0.2990    0.4890    7.1130 hc        1 23X      0.110667
     44 H28B        1.6660   -0.3110    7.3400 hc        1 23X      0.110667
     45 HN27       -1.3180   -0.3480    5.3630 hn        1 23X      0.236000
     46 H22        -0.1650   -2.2760    3.7470 h1        1 23X      0.131000
     47 H23        -2.8150   -2.7090    3.7950 hc        1 23X      0.119000
     48 H25        -1.6730   -2.5030    6.3870 hc        1 23X      0.085000
     49 H25A       -2.9910   -1.7640    5.8830 hc        1 23X      0.085000
     50 H24        -0.9730   -4.2710    3.4140 hc        1 23X      0.078667
     51 H24A       -2.2210   -4.8510    4.2180 hc        1 23X      0.078667
     52 H24B       -0.8970   -4.4090    5.0080 hc        1 23X      0.078667
     53 H26        -2.7190   -4.4480    6.7040 hc        1 23X      0.075667
     54 H26A       -3.9530   -3.4560    6.9690 hc        1 23X      0.075667
     55 H26B       -3.7860   -4.1540    5.5370 hc        1 23X      0.075667
     56 H12         1.8980   -0.1600   -1.8800 h1        1 23X      0.096500
     57 H12A        1.6120   -0.6130   -3.3840 h1        1 23X      0.096500
     58 H13         2.3070    1.8900   -3.6830 hc        1 23X      0.117000
     59 H14         3.0120    2.0450   -1.4620 hc        1 23X      0.074000
     60 H14A        3.9880    0.7950   -1.6840 hc        1 23X      0.074000
     61 H14B        4.2770    2.1780   -2.4340 hc        1 23X      0.074000
     62 H15         3.0570   -0.1390   -4.8610 hc        1 23X      0.077000
     63 H15A        4.2660   -0.1220   -3.8340 hc        1 23X      0.077000
     64 H16        -1.0170    1.7560   -1.5930 h1        1 23X      0.116000
     65 H16A        0.4500    1.7760   -0.9510 h1        1 23X      0.116000
     66 H17        -1.3050   -0.4720   -1.0160 h1        1 23X      0.100000
     67 H18         5.2190    1.6250   -4.7830 hc        1 23X      0.074333
     68 H18A        4.3900    1.1360   -6.0750 hc        1 23X      0.074333
     69 H18B        3.8080    2.3040   -5.1310 hc        1 23X      0.074333
     70 HO18        0.3060   -1.6820   -0.9080 ho        1 23X      0.206000
     71 H19        -1.8250    0.6200    0.8690 h1        1 23X      0.118000
     72 HN20        0.1030   -1.2460    1.5320 hn        1 23X      0.255000
     73 H32         0.1390    2.1260    0.4230 hc        1 23X      0.106500
     74 H32A        0.7920    1.2890    1.6130 hc        1 23X      0.106500
     75 H33         0.8810    2.1490    3.3340 ha        1 23X      0.144000
     76 H34         0.4850    3.9390    4.8320 ha        1 23X      0.133250
     77 H35        -1.4510    5.2830    4.6150 ha        1 23X      0.133250
     78 H36        -2.9980    4.8260    2.8850 ha        1 23X      0.133250
     79 H37        -2.6080    3.0370    1.3840 ha        1 23X      0.133250
     80 H1         -1.4220   -1.6110  -10.8620 DU        1 23X      0.192000
     81 H4         -1.9320    0.6560   -6.2510 ha        1 23X      0.179000
     82 H6          1.6620   -0.8870   -4.9740 ha        1 23X      0.162000
     83 H7          2.0120   -1.8660   -7.1130 ha        1 23X      0.158000
@<TRIPOS>BOND
     1    1    2 1   
     2    1    3 1   
     3    3   42 1   
     4    3   43 1   
     5    3   44 1   
     6    4    5 1   
     7    4   45 1   
     8    5    6 1   
     9    5    8 1   
    10    5   46 1   
    11    6    7 1   
    12    8    9 1   
    13    8   10 1   
    14    8   47 1   
    15    9   11 1   
    16    9   48 1   
    17    9   49 1   
    18   10   50 1   
    19   10   51 1   
    20   10   52 1   
    21   11   53 1   
    22   11   54 1   
    23   11   55 1   
    24   12   13 1   
    25   12   17 1   
    26   12   39 1   
    27   13   14 1   
    28   13   56 1   
    29   13   57 1   
    30   14   15 1   
    31   14   16 1   
    32   14   58 1   
    33   15   59 1   
    34   15   60 1   
    35   15   61 1   
    36   16   19 1   
    37   16   62 1   
    38   16   63 1   
    39   17   18 1   
    40   17   64 1   
    41   17   65 1   
    42   18   20 1   
    43   18   21 1   
    44   18   66 1   
    45   19   67 1   
    46   19   68 1   
    47   19   69 1   
    48   20   70 1   
    49   21   22 1   
    50   21   23 1   
    51   21   71 1   
    52   22   72 1   
    53   23   29 1   
    54   23   73 1   
    55   23   74 1   
    56   24   29 1   
    57   24   75 1   
    58   25   26 1   
    59   25   76 1   
    60   26   77 1   
    61   27   28 1   
    62   27   78 1   
    63   28   79 1   
    64   30   31 1   
    65   30   32 1   
    66   31   33 1   
    67   32   34 1   
    68   33   38 1   
    69   34   35 1   
    70   35   81 1   
    71   36   37 1   
    72   36   39 1   
    73   37   82 1   
    74   38   83 1   
    75   39   40 1   
    76   39   41 1   
@<TRIPOS>SUBSTRUCTURE
     1 23X         1 TEMP              0 ****  ****    0 ROOT
