@<TRIPOS>MOLECULE
23X
   83    82     1     0     0
SMALL
bcc


@<TRIPOS>ATOM
      1 C27         0.4390    1.5810   -1.3190 c         1 23X      0.664100
      2 O27         1.1680    2.4560   -1.8340 o         1 23X     -0.630100
      3 C28        -0.3580    1.8490   -0.0680 c3        1 23X     -0.179100
      4 N27         0.3420    0.3220   -1.8810 n         1 23X     -0.565900
      5 C22         1.0470   -0.0480   -3.0800 c3        1 23X      0.040700
      6 C21         0.2720    0.3490   -4.3690 c         1 23X      0.650100
      7 O22        -0.0580   -0.5000   -5.2240 o         1 23X     -0.644100
      8 C23         1.4150   -1.5480   -3.1360 c3        1 23X     -0.063700
      9 C25         0.2340   -2.4540   -2.8230 c3        1 23X     -0.079400
     10 C24         2.5790   -1.8210   -2.2070 c3        1 23X     -0.094100
     11 C26         0.4110   -3.8340   -3.4050 c3        1 23X     -0.088100
     12 N11        -0.8900    0.9530   -9.7430 n3        1 23X     -0.925100
     13 C12        -0.4070    0.7140  -11.0690 c3        1 23X      0.231800
     14 C13         0.4840    1.8300  -11.6440 c3        1 23X     -0.079700
     15 C14         1.7820    1.9330  -10.8730 c3        1 23X     -0.092100
     16 C15         0.7430    1.5320  -13.1160 c3        1 23X     -0.077400
     17 C17         0.1400    3.2470   -6.3880 c2        1 23X      0.070900
     18 C18         1.2480    2.7380  -13.8650 c3        1 23X     -0.092100
     19 O18         0.4610    2.8110   -7.6570 oh        1 23X     -0.521100
     20 C19        -0.7080    2.2140   -5.6630 c3        1 23X      0.154900
     21 N20        -0.0010    1.6860   -4.5220 n         1 23X     -0.555900
     22 C32        -2.0620    2.8760   -5.3140 c3        1 23X     -0.018300
     23 C33        -3.6110    3.0740   -1.0460 c2        1 23X     -0.204000
     24 C34        -4.1260    1.9010   -0.6680 ce        1 23X     -0.145000
     25 C35        -4.6230    0.8630   -1.5420 ce        1 23X     -0.130000
     26 C36        -4.3710    0.6810   -2.8500 cf        1 23X     -0.003700
     27 C37        -3.5500    1.4630   -3.6700 ch        1 23X     -0.189300
     28 C38        -2.8600    2.1000   -4.4170 c1        1 23X     -0.086100
     29 C1         -1.8880   -5.2290   -6.8350 cc        1 23X      0.351300
     30 N1         -2.8600   -5.2060   -7.7430 nd        1 23X     -0.611000
     31 S1         -1.1560   -3.7430   -6.4940 ss        1 23X     -0.005300
     32 C2         -3.0200   -3.8960   -8.2070 cd        1 23X      0.501300
     33 C3         -2.1440   -2.9620   -7.6170 cc        1 23X     -0.199200
     34 C4         -2.0280   -1.5530   -7.8580 ce        1 23X      0.122800
     35 C5         -2.4870   -0.9070   -8.9400 cf        1 23X     -0.493100
     36 C6         -4.8520   -3.3570   -9.9750 c1        1 23X     -0.092500
     37 C7         -4.0050   -3.5990   -9.1640 ch        1 23X     -0.220000
     38 S8         -2.4150    0.7270   -9.2700 sy        1 23X      1.518800
     39 O9         -3.3130    0.9870  -10.3310 o         1 23X     -0.669300
     40 O10        -2.6270    1.4610   -8.0760 o         1 23X     -0.669300
     41 H28        -1.4350    2.0040   -0.3380 hc        1 23X      0.072700
     42 H28A        0.0320    2.7810    0.4100 hc        1 23X      0.072700
     43 H28B       -0.2800    1.0070    0.6590 hc        1 23X      0.072700
     44 HN27        0.1000   -2.5360   -1.7120 hc        1 23X      0.044700
     45 H22        -0.3290   -0.3180   -1.5300 hn        1 23X      0.320500
     46 H23         2.0180    0.5430   -3.1040 h1        1 23X      0.094700
     47 H25         1.7410   -1.7480   -4.1980 hc        1 23X      0.080700
     48 H25A       -0.6990   -1.9980   -3.2530 hc        1 23X      0.044700
     49 H24         2.3040   -1.6040   -1.1470 hc        1 23X      0.038700
     50 H24A        3.4570   -1.1890   -2.4820 hc        1 23X      0.038700
     51 H24B        2.8810   -2.8940   -2.2790 hc        1 23X      0.038700
     52 H26         1.3860   -4.2800   -3.0960 hc        1 23X      0.034033
     53 H26A        0.3800   -3.7900   -4.5240 hc        1 23X      0.034033
     54 H26B       -0.4110   -4.5050   -3.0560 hc        1 23X      0.034033
     55 H12        -0.1980    1.2860   -9.1090 hn        1 23X      0.462800
     56 H12A        0.1870   -0.2470  -11.0880 h1        1 23X      0.046700
     57 H13        -1.3000    0.5850  -11.7500 h1        1 23X      0.046700
     58 H14        -0.0640    2.8100  -11.5690 hc        1 23X      0.058700
     59 H14A        2.4590    2.6810  -11.3520 hc        1 23X      0.035033
     60 H14B        1.5960    2.2580   -9.8200 hc        1 23X      0.035033
     61 H15         1.4850    0.6950  -13.2000 hc        1 23X      0.042700
     62 H15A       -0.2100    1.1810  -13.5960 hc        1 23X      0.042700
     63 H16         2.3060    0.9470  -10.8500 hc        1 23X      0.035033
     64 H16A        1.1630    5.1250   -6.4380 ha        1 23X      0.129000
     65 H17         0.2870    4.7160   -4.8540 ha        1 23X      0.129000
     66 H18         0.5210    3.5830  -13.7920 hc        1 23X      0.034033
     67 H18A        2.2290    3.0830  -13.4570 hc        1 23X      0.034033
     68 H18B        1.3880    2.4860  -14.9450 hc        1 23X      0.034033
     69 HO18        0.9470    3.5190   -8.1070 ho        1 23X      0.418000
     70 H19         0.3310    2.3400   -3.8470 hn        1 23X      0.338500
     71 HN20       -0.9290    1.3600   -6.3800 h1        1 23X      0.117700
     72 H32        -1.8890    3.8970   -4.8740 hc        1 23X      0.088700
     73 H32A       -2.6170    2.9960   -6.2930 hc        1 23X      0.088700
     74 H33        -3.5050    3.3690   -2.1000 ha        1 23X      0.120500
     75 H34        -3.2720    3.8200   -0.3150 ha        1 23X      0.120500
     76 H35        -4.2230    1.6690    0.4090 ha        1 23X      0.116000
     77 H36        -5.2930    0.1370   -1.0410 ha        1 23X      0.124000
     78 H37        -4.8430   -0.1750   -3.3750 ha        1 23X      0.138000
     79 H4         -1.4940   -0.9890   -7.0570 ha        1 23X      0.166000
     80 H6         -3.0100   -1.5010   -9.7170 h4        1 23X      0.187000
     81 H7         -5.6000   -3.1280  -10.6920 ha        1 23X      0.175500
     82 C16         0.5490    4.4130   -5.8750 c2        1 23X     -0.326000
     83 H1         -1.6030   -6.1710   -6.3520 h5        1 23X      0.058100
@<TRIPOS>BOND
     1    1    2 2   
     2    1    3 1   
     3    1    4 1   
     4    3   41 1   
     5    3   42 1   
     6    3   43 1   
     7    4    5 1   
     8    4   45 1   
     9    5    6 1   
    10    5    8 1   
    11    5   46 1   
    12    6    7 2   
    13    6   21 1   
    14    8    9 1   
    15    8   10 1   
    16    8   47 1   
    17    9   11 1   
    18    9   44 1   
    19    9   48 1   
    20   10   49 1   
    21   10   50 1   
    22   10   51 1   
    23   11   52 1   
    24   11   53 1   
    25   11   54 1   
    26   12   13 1   
    27   12   38 1   
    28   12   55 1   
    29   13   14 1   
    30   13   56 1   
    31   13   57 1   
    32   14   15 1   
    33   14   16 1   
    34   14   58 1   
    35   15   59 1   
    36   15   60 1   
    37   15   63 1   
    38   16   18 1   
    39   16   61 1   
    40   16   62 1   
    41   17   19 1   
    42   17   20 1   
    43   17   82 2   
    44   18   66 1   
    45   18   67 1   
    46   18   68 1   
    47   19   69 1   
    48   20   21 1   
    49   20   22 1   
    50   20   71 1   
    51   21   70 1   
    52   22   28 1   
    53   22   72 1   
    54   22   73 1   
    55   23   24 2   
    56   23   74 1   
    57   23   75 1   
    58   24   25 1   
    59   24   76 1   
    60   25   26 2   
    61   25   77 1   
    62   26   27 1   
    63   26   78 1   
    64   27   28 3   
    65   29   30 2   
    66   29   31 1   
    67   29   83 1   
    68   30   32 1   
    69   31   33 1   
    70   32   33 2   
    71   32   37 1   
    72   33   34 1   
    73   34   35 2   
    74   34   79 1   
    75   35   38 1   
    76   35   80 1   
    77   36   37 3   
    78   36   81 1   
    79   38   39 2   
    80   38   40 2   
    81   64   82 1   
    82   65   82 1   
@<TRIPOS>SUBSTRUCTURE
     1 23X         1 TEMP              0 ****  ****    0 ROOT
