@<TRIPOS>MOLECULE
23Z
   85    89     1     0     0
SMALL
bcc


@<TRIPOS>ATOM
      1 C1         -0.1900   -0.0480    0.0380 c         1 23Z      0.654100
      2 O2          1.0560   -0.0160   -0.0170 o         1 23Z     -0.601100
      3 N3         -0.8300   -0.3100    1.2540 n         1 23Z     -0.457800
      4 C4         -0.0460   -0.3170    2.4740 c3        1 23Z      0.083000
      5 C5         -0.1310    0.9610    3.3300 c3        1 23Z     -0.044100
      6 C6         -1.5130    1.4740    3.3110 cc        1 23Z     -0.065600
      7 C7         -2.5040    1.0360    2.4080 cd        1 23Z     -0.284600
      8 C8         -2.2480   -0.0550    1.4380 c3        1 23Z      0.170300
      9 C9         -3.6720    1.8240    2.7220 cd        1 23Z      0.357800
     10 N10        -3.3790    2.6820    3.7520 nc        1 23Z     -0.507800
     11 N11        -2.1050    2.4610    4.1100 na        1 23Z      0.115400
     12 C12        -1.4000    3.2600    5.0940 c3        1 23Z      0.052300
     13 C13        -0.7220    4.5200    4.5150 c3        1 23Z      0.126100
     14 O14         0.4470    4.0630    3.8550 oh        1 23Z     -0.610800
     15 C15        -0.3700    5.4650    5.6850 c3        1 23Z      0.136800
     16 N16         0.2140    6.7140    5.2250 n3        1 23Z     -0.742600
     17 C17         1.1730    7.2670    6.1720 c3        1 23Z      0.172300
     18 C18         1.8110    8.5690    5.6960 c3        1 23Z     -0.075900
     19 C19         0.7610    9.6010    5.3160 c3        1 23Z     -0.045700
     20 C20        -0.1940    8.9930    4.3010 c3        1 23Z     -0.075900
     21 C21        -0.7900    7.6840    4.8110 c3        1 23Z      0.172300
     22 C22         1.4110   10.8890    4.7720 c3        1 23Z      0.152800
     23 C23        -4.9770    1.7550    2.0830 ca        1 23Z     -0.058500
     24 C24        -5.0820    1.7190    0.6860 ca        1 23Z     -0.124000
     25 C25        -6.3360    1.6440    0.0910 ca        1 23Z     -0.081000
     26 C26        -7.4990    1.5950    0.8670 ca        1 23Z     -0.144300
     27 C27        -7.4110    1.6480    2.2680 ca        1 23Z      0.026900
     28 C28        -6.1410    1.7360    2.8560 ca        1 23Z     -0.126000
     29 S29        -8.8120    1.6820    3.2340 ss        1 23Z     -0.121000
     30 C30        -8.3190    0.9460    4.7630 c3        1 23Z     -0.134300
     31 C31        -9.4570    0.1420    5.3470 c         1 23Z      0.586900
     32 O32        -9.3260   -1.0650    5.5980 o         1 23Z     -0.539100
     33 N33       -10.6580    0.7990    5.6420 n         1 23Z     -0.090200
     34 C34       -11.7810    0.1930    6.2470 cc        1 23Z     -0.133300
     35 C35       -12.7840    1.1450    6.3720 cd        1 23Z     -0.178500
     36 C36       -12.2770    2.3850    5.8240 cd        1 23Z     -0.178500
     37 C37       -10.9800    2.1490    5.3850 cc        1 23Z     -0.133300
     38 C38        -8.8310    1.4710    0.1230 c3        1 23Z      0.689200
     39 F39        -8.7170    1.5240   -1.2480 f         1 23Z     -0.232633
     40 F40        -9.5030    0.2940    0.3380 f         1 23Z     -0.232633
     41 F41        -9.7470    2.4570    0.3980 f         1 23Z     -0.232633
     42 O42         2.1450   10.5140    3.6050 oh        1 23Z     -0.596800
     43 C43        -1.0080    0.1000   -1.2200 c3        1 23Z     -0.170100
     44 C44         0.3470   11.9180    4.4010 c3        1 23Z     -0.126100
     45 C45         2.3610   11.4930    5.8030 c3        1 23Z     -0.126100
     46 H4         -0.4180   -1.1820    3.0940 h1        1 23Z      0.071700
     47 H4A         1.0360   -0.4980    2.2160 h1        1 23Z      0.071700
     48 H5          0.5630    1.7540    2.9350 hc        1 23Z      0.078200
     49 H5A         0.2010    0.7140    4.3730 hc        1 23Z      0.078200
     50 H8         -2.7110   -1.0090    1.8330 h1        1 23Z      0.059700
     51 H8A        -2.7450    0.1800    0.4560 h1        1 23Z      0.059700
     52 H12        -0.6060    2.6010    5.5470 h1        1 23Z      0.079700
     53 H12A       -2.1280    3.5770    5.8930 h1        1 23Z      0.079700
     54 H13        -1.3970    5.0380    3.7780 h1        1 23Z      0.061700
     55 HO14        0.9170    4.8420    3.5310 ho        1 23Z      0.429000
     56 H15         0.3730    4.9270    6.3400 h1        1 23Z      0.044200
     57 H15A       -1.3060    5.6360    6.2920 h1        1 23Z      0.044200
     58 H17         1.9890    6.5030    6.3150 h1        1 23Z      0.030200
     59 H17A        0.6940    7.4490    7.1800 h1        1 23Z      0.030200
     60 H18         2.4520    8.9590    6.5290 hc        1 23Z      0.058950
     61 H18A        2.4710    8.3780    4.8100 hc        1 23Z      0.058950
     62 H19         0.1810    9.8900    6.2360 hc        1 23Z      0.045700
     63 H20         0.3550    8.8230    3.3380 hc        1 23Z      0.058950
     64 H20A       -1.0420    9.6980    4.0960 hc        1 23Z      0.058950
     65 H21        -1.3930    7.2170    3.9820 h1        1 23Z      0.030200
     66 H21A       -1.5030    7.9210    5.6570 h1        1 23Z      0.030200
     67 H24        -4.1770    1.7640    0.0620 ha        1 23Z      0.147000
     68 H25        -6.4130    1.6210   -1.0090 ha        1 23Z      0.158000
     69 H28        -6.0500    1.8100    3.9530 ha        1 23Z      0.151000
     70 H30        -7.4510    0.2500    4.6250 h1        1 23Z      0.107200
     71 H30A       -8.0140    1.7400    5.4910 h1        1 23Z      0.107200
     72 H34       -11.7490   -0.8630    6.5250 h4        1 23Z      0.183000
     73 H35       -13.7720    0.9970    6.7990 ha        1 23Z      0.159000
     74 H36       -12.8200    3.3240    5.7680 ha        1 23Z      0.159000
     75 H37       -10.2660    2.8200    4.9000 h4        1 23Z      0.183000
     76 HO42        2.5510   11.3190    3.2640 ho        1 23Z      0.399000
     77 H43        -0.3110    0.1240   -2.0930 hc        1 23Z      0.067033
     78 H43A       -1.7130   -0.7570   -1.3450 hc        1 23Z      0.067033
     79 H43B       -1.5850    1.0560   -1.1950 hc        1 23Z      0.067033
     80 H44        -0.3710   12.0490    5.2440 hc        1 23Z      0.044033
     81 H44A       -0.2090   11.5860    3.4920 hc        1 23Z      0.044033
     82 H44B        0.8230   12.9030    4.1780 hc        1 23Z      0.044033
     83 H45         1.8520   11.5800    6.7910 hc        1 23Z      0.044033
     84 H45A        3.2680   10.8510    5.9130 hc        1 23Z      0.044033
     85 H45B        2.6900   12.5090    5.4780 hc        1 23Z      0.044033
@<TRIPOS>BOND
     1    1    2 2   
     2    1    3 1   
     3    1   43 1   
     4    3    4 1   
     5    3    8 1   
     6    4    5 1   
     7    4   46 1   
     8    4   47 1   
     9    5    6 1   
    10    5   48 1   
    11    5   49 1   
    12    6    7 2   
    13    6   11 1   
    14    7    8 1   
    15    7    9 1   
    16    8   50 1   
    17    8   51 1   
    18    9   10 2   
    19    9   23 1   
    20   10   11 1   
    21   11   12 1   
    22   12   13 1   
    23   12   52 1   
    24   12   53 1   
    25   13   14 1   
    26   13   15 1   
    27   13   54 1   
    28   14   55 1   
    29   15   16 1   
    30   15   56 1   
    31   15   57 1   
    32   16   17 1   
    33   16   21 1   
    34   17   18 1   
    35   17   58 1   
    36   17   59 1   
    37   18   19 1   
    38   18   60 1   
    39   18   61 1   
    40   19   20 1   
    41   19   22 1   
    42   19   62 1   
    43   20   21 1   
    44   20   63 1   
    45   20   64 1   
    46   21   65 1   
    47   21   66 1   
    48   22   42 1   
    49   22   44 1   
    50   22   45 1   
    51   23   24 ar  
    52   23   28 ar  
    53   24   25 ar  
    54   24   67 1   
    55   25   26 ar  
    56   25   68 1   
    57   26   27 ar  
    58   26   38 1   
    59   27   28 ar  
    60   27   29 1   
    61   28   69 1   
    62   29   30 1   
    63   30   31 1   
    64   30   70 1   
    65   30   71 1   
    66   31   32 2   
    67   31   33 1   
    68   33   34 1   
    69   33   37 1   
    70   34   35 2   
    71   34   72 1   
    72   35   36 1   
    73   35   73 1   
    74   36   37 2   
    75   36   74 1   
    76   37   75 1   
    77   38   39 1   
    78   38   40 1   
    79   38   41 1   
    80   42   76 1   
    81   43   77 1   
    82   43   78 1   
    83   43   79 1   
    84   44   80 1   
    85   44   81 1   
    86   44   82 1   
    87   45   83 1   
    88   45   84 1   
    89   45   85 1   
@<TRIPOS>SUBSTRUCTURE
     1 23Z         1 TEMP              0 ****  ****    0 ROOT
