@<TRIPOS>MOLECULE
23Z
   85    89     1     0     0
SMALL
bcc


@<TRIPOS>ATOM
      1 C1          0.5260   -5.7100    0.7620 c         1 23Z      0.655100
      2 O2          1.5340   -6.3960    1.0300 o         1 23Z     -0.600100
      3 N3          0.1180   -4.6990    1.6380 n         1 23Z     -0.458800
      4 C4          0.9930   -4.3170    2.7280 c3        1 23Z      0.084000
      5 C5          1.8210   -3.0380    2.5010 c3        1 23Z     -0.044100
      6 C6          0.9920   -2.0350    1.8070 cc        1 23Z     -0.070600
      7 C7         -0.2370   -2.3300    1.1800 cd        1 23Z     -0.279600
      8 C8         -0.8390   -3.6830    1.2340 c3        1 23Z      0.169300
      9 C9         -0.6740   -1.0790    0.6070 cd        1 23Z      0.359800
     10 N10         0.2510   -0.1030    0.8830 nc        1 23Z     -0.505800
     11 N11         1.2280   -0.6690    1.6080 na        1 23Z      0.116400
     12 C12         2.4420    0.0260    1.9880 c3        1 23Z      0.023300
     13 C13         3.5700   -0.0480    0.9300 c3        1 23Z      0.121100
     14 O14         4.1300   -1.3460    0.9270 oh        1 23Z     -0.589800
     15 C15         4.5720    1.0770    1.2460 c3        1 23Z      0.136800
     16 N16         5.8700    0.9350    0.6070 n3        1 23Z     -0.730600
     17 C17         6.7610    2.0280    0.9820 c3        1 23Z      0.165300
     18 C18         8.1420    1.9320    0.3420 c3        1 23Z     -0.074400
     19 C19         8.0500    1.8000   -1.1690 c3        1 23Z     -0.091700
     20 C20         7.1470    0.6270   -1.5150 c3        1 23Z     -0.074400
     21 C21         5.7850    0.7450   -0.8350 c3        1 23Z      0.165300
     22 C22         9.4530    1.6650   -1.7980 c3        1 23Z      0.153800
     23 C23        -1.8970   -0.8360   -0.1440 ca        1 23Z     -0.060500
     24 C24        -2.2860   -1.7110   -1.1660 ca        1 23Z     -0.124000
     25 C25        -3.4610   -1.4700   -1.8690 ca        1 23Z     -0.081000
     26 C26        -4.2690   -0.3690   -1.5650 ca        1 23Z     -0.143300
     27 C27        -3.8820    0.5280   -0.5550 ca        1 23Z      0.026900
     28 C28        -2.6880    0.2810    0.1380 ca        1 23Z     -0.125000
     29 S29        -4.7970    1.9250   -0.2260 ss        1 23Z     -0.120000
     30 C30        -4.4940    2.2660    1.4810 c3        1 23Z     -0.134300
     31 C31        -5.7400    2.8170    2.1330 c         1 23Z      0.586900
     32 O32        -6.2470    2.2610    3.1190 o         1 23Z     -0.540100
     33 N33        -6.2950    3.9990    1.6270 n         1 23Z     -0.090200
     34 C34        -7.4180    4.6610    2.1710 cc        1 23Z     -0.133300
     35 C35        -7.6830    5.7870    1.4030 cd        1 23Z     -0.178000
     36 C36        -6.7000    5.8300    0.3410 cd        1 23Z     -0.178000
     37 C37        -5.8670    4.7290    0.4980 cc        1 23Z     -0.133300
     38 C38        -5.5640   -0.2100   -2.3650 c3        1 23Z      0.689200
     39 F39        -5.7220   -1.1380   -3.3700 f         1 23Z     -0.231633
     40 F40        -6.7150   -0.3440   -1.6280 f         1 23Z     -0.231633
     41 F41        -5.7010    0.9880   -3.0220 f         1 23Z     -0.231633
     42 O42        10.2220    0.6670   -1.1280 oh        1 23Z     -0.595800
     43 C43        -0.3070   -6.0270   -0.4540 c3        1 23Z     -0.170100
     44 C44         9.3520    1.3260   -3.2830 c3        1 23Z     -0.104100
     45 C45        10.2410    2.9620   -1.6270 c3        1 23Z     -0.104100
     46 H4          0.3380   -4.1570    3.6320 h1        1 23Z      0.072200
     47 H4A         1.7030   -5.1650    2.9450 h1        1 23Z      0.072200
     48 H5          2.1740   -2.6610    3.4970 hc        1 23Z      0.073700
     49 H5A         2.7310   -3.2590    1.8770 hc        1 23Z      0.073700
     50 H8         -1.3000   -3.9380    0.2400 h1        1 23Z      0.060200
     51 H8A        -1.6690   -3.6800    2.0040 h1        1 23Z      0.060200
     52 H12         2.1950    1.1070    2.1830 h1        1 23Z      0.074200
     53 H12A        2.8080   -0.4500    2.9420 h1        1 23Z      0.074200
     54 H13         3.1490    0.0840   -0.1070 h1        1 23Z      0.092700
     55 HO14        4.8560   -1.3630    1.5640 ho        1 23Z      0.415000
     56 H15         4.0690    2.0530    0.9750 h1        1 23Z      0.040200
     57 H15A        4.7610    1.0870    2.3580 h1        1 23Z      0.040200
     58 H17         6.3110    3.0310    0.7160 h1        1 23Z      0.035450
     59 H17A        6.8820    1.9970    2.1020 h1        1 23Z      0.035450
     60 H18         8.7120    2.8580    0.6140 hc        1 23Z      0.053700
     61 H18A        8.7020    1.0530    0.7560 hc        1 23Z      0.053700
     62 H19         7.5880    2.7370   -1.5900 hc        1 23Z      0.053700
     63 H20         6.9690    0.5870   -2.6210 hc        1 23Z      0.053700
     64 H20A        7.6370   -0.3330   -1.2090 hc        1 23Z      0.053700
     65 H21         5.2180   -0.2140   -1.0110 h1        1 23Z      0.035450
     66 H21A        5.2110    1.5850   -1.3260 h1        1 23Z      0.035450
     67 H24        -1.6580   -2.5780   -1.4210 ha        1 23Z      0.147000
     68 H25        -3.7610   -2.1600   -2.6760 ha        1 23Z      0.158000
     69 H28        -2.3490    0.9880    0.9130 ha        1 23Z      0.151000
     70 H30        -4.2020    1.3410    2.0420 h1        1 23Z      0.107200
     71 H30A       -3.6630    3.0100    1.5830 h1        1 23Z      0.107200
     72 H34        -7.9160    4.2560    3.0550 h4        1 23Z      0.183000
     73 H35        -8.4800    6.5080    1.5590 ha        1 23Z      0.159000
     74 H36        -6.6360    6.5870   -0.4350 ha        1 23Z      0.159000
     75 H37        -5.0160    4.3970   -0.1030 h4        1 23Z      0.183000
     76 HO42        9.7480   -0.1670   -1.2240 ho        1 23Z      0.400000
     77 H43        -1.3790   -6.1760   -0.1800 hc        1 23Z      0.067367
     78 H43A       -0.2240   -5.2040   -1.2040 hc        1 23Z      0.067367
     79 H43B        0.0830   -6.9700   -0.9120 hc        1 23Z      0.067367
     80 H44         8.6660    2.0410   -3.7940 hc        1 23Z      0.044200
     81 H44A       10.3620    1.3910   -3.7550 hc        1 23Z      0.044200
     82 H44B        8.9700    0.2870   -3.4250 hc        1 23Z      0.044200
     83 H45        10.4450    3.1520   -0.5470 hc        1 23Z      0.044200
     84 H45A       11.2200    2.8810   -2.1570 hc        1 23Z      0.044200
     85 H45B        9.6600    3.8130   -2.0530 hc        1 23Z      0.044200
@<TRIPOS>BOND
     1    1    2 2   
     2    1    3 1   
     3    1   43 1   
     4    3    4 1   
     5    3    8 1   
     6    4    5 1   
     7    4   46 1   
     8    4   47 1   
     9    5    6 1   
    10    5   48 1   
    11    5   49 1   
    12    6    7 2   
    13    6   11 1   
    14    7    8 1   
    15    7    9 1   
    16    8   50 1   
    17    8   51 1   
    18    9   10 2   
    19    9   23 1   
    20   10   11 1   
    21   11   12 1   
    22   12   13 1   
    23   12   52 1   
    24   12   53 1   
    25   13   14 1   
    26   13   15 1   
    27   13   54 1   
    28   14   55 1   
    29   15   16 1   
    30   15   56 1   
    31   15   57 1   
    32   16   17 1   
    33   16   21 1   
    34   17   18 1   
    35   17   58 1   
    36   17   59 1   
    37   18   19 1   
    38   18   60 1   
    39   18   61 1   
    40   19   20 1   
    41   19   22 1   
    42   19   62 1   
    43   20   21 1   
    44   20   63 1   
    45   20   64 1   
    46   21   65 1   
    47   21   66 1   
    48   22   42 1   
    49   22   44 1   
    50   22   45 1   
    51   23   24 ar  
    52   23   28 ar  
    53   24   25 ar  
    54   24   67 1   
    55   25   26 ar  
    56   25   68 1   
    57   26   27 ar  
    58   26   38 1   
    59   27   28 ar  
    60   27   29 1   
    61   28   69 1   
    62   29   30 1   
    63   30   31 1   
    64   30   70 1   
    65   30   71 1   
    66   31   32 2   
    67   31   33 1   
    68   33   34 1   
    69   33   37 1   
    70   34   35 2   
    71   34   72 1   
    72   35   36 1   
    73   35   73 1   
    74   36   37 2   
    75   36   74 1   
    76   37   75 1   
    77   38   39 1   
    78   38   40 1   
    79   38   41 1   
    80   42   76 1   
    81   43   77 1   
    82   43   78 1   
    83   43   79 1   
    84   44   80 1   
    85   44   81 1   
    86   44   82 1   
    87   45   83 1   
    88   45   84 1   
    89   45   85 1   
@<TRIPOS>SUBSTRUCTURE
     1 23Z         1 TEMP              0 ****  ****    0 ROOT
