@<TRIPOS>MOLECULE
23Z
   85    89     1     0     0
SMALL
bcc


@<TRIPOS>ATOM
      1 C1         -0.2060   -0.0450    0.0270 c         1 23Z      0.654100
      2 O2          1.0390   -0.0060   -0.0400 o         1 23Z     -0.601100
      3 N3         -0.8320   -0.3050    1.2500 n         1 23Z     -0.457800
      4 C4         -0.0370   -0.3040    2.4620 c3        1 23Z      0.083000
      5 C5         -0.1200    0.9770    3.3140 c3        1 23Z     -0.044100
      6 C6         -1.5050    1.4830    3.3070 cc        1 23Z     -0.065600
      7 C7         -2.5020    1.0350    2.4150 cd        1 23Z     -0.284600
      8 C8         -2.2500   -0.0570    1.4470 c3        1 23Z      0.170300
      9 C9         -3.6710    1.8190    2.7370 cd        1 23Z      0.357800
     10 N10        -3.3730    2.6820    3.7620 nc        1 23Z     -0.507800
     11 N11        -2.0940    2.4690    4.1070 na        1 23Z      0.115400
     12 C12        -1.3850    3.2760    5.0820 c3        1 23Z      0.052300
     13 C13        -0.7170    4.5360    4.4910 c3        1 23Z      0.126100
     14 O14         0.4480    4.0810    3.8230 oh        1 23Z     -0.610800
     15 C15        -0.3590    5.4870    5.6550 c3        1 23Z      0.136800
     16 N16         0.2160    6.7370    5.1840 n3        1 23Z     -0.742600
     17 C17         1.1810    7.2970    6.1210 c3        1 23Z      0.172300
     18 C18         1.8100    8.6000    5.6340 c3        1 23Z     -0.075900
     19 C19         0.7520    9.6260    5.2580 c3        1 23Z     -0.045700
     20 C20        -0.2090    9.0110    4.2540 c3        1 23Z     -0.075900
     21 C21        -0.7950    7.7020    4.7750 c3        1 23Z      0.172300
     22 C22         1.3930   10.9140    4.7040 c3        1 23Z      0.152800
     23 C23        -4.9820    1.7400    2.1110 ca        1 23Z     -0.058500
     24 C24        -5.1010    1.6990    0.7160 ca        1 23Z     -0.124000
     25 C25        -6.3600    1.6150    0.1330 ca        1 23Z     -0.081000
     26 C26        -7.5150    1.5620    0.9200 ca        1 23Z     -0.144300
     27 C27        -7.4140    1.6210    2.3200 ca        1 23Z      0.026900
     28 C28        -6.1390    1.7180    2.8960 ca        1 23Z     -0.126000
     29 S29        -8.8060    1.6510    3.3000 ss        1 23Z     -0.121000
     30 C30        -8.2940    0.9220    4.8260 c3        1 23Z     -0.133300
     31 C31        -9.4210    0.1140    5.4240 c         1 23Z      0.586900
     32 O32        -9.2810   -1.0920    5.6770 o         1 23Z     -0.539100
     33 N33       -10.6240    0.7640    5.7280 n         1 23Z     -0.090200
     34 C34       -11.7380    0.1530    6.3450 cc        1 23Z     -0.133300
     35 C35       -12.7450    1.0990    6.4760 cd        1 23Z     -0.178500
     36 C36       -12.2510    2.3410    5.9200 cd        1 23Z     -0.178500
     37 C37       -10.9570    2.1110    5.4690 cc        1 23Z     -0.133300
     38 C38        -8.8540    1.4280    0.1900 c3        1 23Z      0.689200
     39 F39        -8.7530    1.4770   -1.1820 f         1 23Z     -0.232633
     40 F40        -9.5170    0.2480    0.4160 f         1 23Z     -0.232633
     41 F41        -9.7730    2.4090    0.4700 f         1 23Z     -0.232633
     42 O42         2.1190   10.5370    3.5320 oh        1 23Z     -0.596800
     43 C43        -1.0370    0.0940   -1.2240 c3        1 23Z     -0.170100
     44 C44         0.3220   11.9380    4.3370 c3        1 23Z     -0.126100
     45 C45         2.3490   11.5260    5.7240 c3        1 23Z     -0.126100
     46 H4         -0.3980   -1.1690    3.0890 h1        1 23Z      0.071700
     47 H4A         1.0430   -0.4810    2.1940 h1        1 23Z      0.071700
     48 H5          0.2220    0.7360    4.3550 hc        1 23Z      0.078200
     49 H5A         0.5660    1.7720    2.9090 hc        1 23Z      0.078200
     50 H8         -2.7040   -1.0130    1.8500 h1        1 23Z      0.059700
     51 H8A        -2.7580    0.1710    0.4680 h1        1 23Z      0.059700
     52 H12        -0.5840    2.6220    5.5300 h1        1 23Z      0.079700
     53 H12A       -2.1070    3.5930    5.8860 h1        1 23Z      0.079700
     54 H13        -1.4010    5.0480    3.7590 h1        1 23Z      0.061700
     55 HO14        0.9120    4.8620    3.4920 ho        1 23Z      0.429000
     56 H15        -1.2910    5.6580    6.2690 h1        1 23Z      0.044200
     57 H15A        0.3920    4.9550    6.3050 h1        1 23Z      0.044200
     58 H17         0.7090    7.4820    7.1320 h1        1 23Z      0.030200
     59 H17A        2.0010    6.5370    6.2610 h1        1 23Z      0.030200
     60 H18         2.4560    8.9960    6.4600 hc        1 23Z      0.058950
     61 H18A        2.4630    8.4070    4.7440 hc        1 23Z      0.058950
     62 H19         0.1790    9.9180    6.1820 hc        1 23Z      0.045700
     63 H20         0.3340    8.8380    3.2870 hc        1 23Z      0.058950
     64 H20A       -1.0610    9.7110    4.0530 hc        1 23Z      0.058950
     65 H21        -1.5020    7.9390    5.6260 h1        1 23Z      0.030200
     66 H21A       -1.4040    7.2280    3.9530 h1        1 23Z      0.030200
     67 H24        -4.2020    1.7470    0.0830 ha        1 23Z      0.147000
     68 H25        -6.4480    1.5870   -0.9670 ha        1 23Z      0.158000
     69 H28        -6.0370    1.7960    3.9910 ha        1 23Z      0.151000
     70 H30        -7.4230    0.2310    4.6830 h1        1 23Z      0.107200
     71 H30A       -7.9860    1.7200    5.5490 h1        1 23Z      0.107200
     72 H34       -11.6970   -0.9020    6.6260 h4        1 23Z      0.183000
     73 H35       -13.7280    0.9470    6.9120 ha        1 23Z      0.159000
     74 H36       -12.8000    3.2760    5.8660 ha        1 23Z      0.159000
     75 H37       -10.2510    2.7840    4.9750 h4        1 23Z      0.183000
     76 HO42        2.5190   11.3420    3.1840 ho        1 23Z      0.399000
     77 H43        -1.7380   -0.7670   -1.3390 hc        1 23Z      0.067033
     78 H43A       -0.3480    0.1190   -2.1040 hc        1 23Z      0.067033
     79 H43B       -1.6190    1.0470   -1.1970 hc        1 23Z      0.067033
     80 H44         0.7930   12.9240    4.1060 hc        1 23Z      0.044033
     81 H44A       -0.2400   11.5990    3.4340 hc        1 23Z      0.044033
     82 H44B       -0.3900   12.0700    5.1840 hc        1 23Z      0.044033
     83 H45         1.8470   11.6160    6.7160 hc        1 23Z      0.044033
     84 H45A        3.2590   10.8890    5.8300 hc        1 23Z      0.044033
     85 H45B        2.6720   12.5420    5.3910 hc        1 23Z      0.044033
@<TRIPOS>BOND
     1    1    2 2   
     2    1    3 1   
     3    1   43 1   
     4    3    4 1   
     5    3    8 1   
     6    4    5 1   
     7    4   46 1   
     8    4   47 1   
     9    5    6 1   
    10    5   48 1   
    11    5   49 1   
    12    6    7 2   
    13    6   11 1   
    14    7    8 1   
    15    7    9 1   
    16    8   50 1   
    17    8   51 1   
    18    9   10 2   
    19    9   23 1   
    20   10   11 1   
    21   11   12 1   
    22   12   13 1   
    23   12   52 1   
    24   12   53 1   
    25   13   14 1   
    26   13   15 1   
    27   13   54 1   
    28   14   55 1   
    29   15   16 1   
    30   15   56 1   
    31   15   57 1   
    32   16   17 1   
    33   16   21 1   
    34   17   18 1   
    35   17   58 1   
    36   17   59 1   
    37   18   19 1   
    38   18   60 1   
    39   18   61 1   
    40   19   20 1   
    41   19   22 1   
    42   19   62 1   
    43   20   21 1   
    44   20   63 1   
    45   20   64 1   
    46   21   65 1   
    47   21   66 1   
    48   22   42 1   
    49   22   44 1   
    50   22   45 1   
    51   23   24 ar  
    52   23   28 ar  
    53   24   25 ar  
    54   24   67 1   
    55   25   26 ar  
    56   25   68 1   
    57   26   27 ar  
    58   26   38 1   
    59   27   28 ar  
    60   27   29 1   
    61   28   69 1   
    62   29   30 1   
    63   30   31 1   
    64   30   70 1   
    65   30   71 1   
    66   31   32 2   
    67   31   33 1   
    68   33   34 1   
    69   33   37 1   
    70   34   35 2   
    71   34   72 1   
    72   35   36 1   
    73   35   73 1   
    74   36   37 2   
    75   36   74 1   
    76   37   75 1   
    77   38   39 1   
    78   38   40 1   
    79   38   41 1   
    80   42   76 1   
    81   43   77 1   
    82   43   78 1   
    83   43   79 1   
    84   44   80 1   
    85   44   81 1   
    86   44   82 1   
    87   45   83 1   
    88   45   84 1   
    89   45   85 1   
@<TRIPOS>SUBSTRUCTURE
     1 23Z         1 TEMP              0 ****  ****    0 ROOT
