@<TRIPOS>MOLECULE
23Z
   85    79     1     0     0
SMALL
bcc


@<TRIPOS>ATOM
      1 C1          4.3920    3.2240   -4.8180 c1        1 23Z      0.298000
      2 O2          5.6070    3.2360   -4.8360 o         1 23Z     -0.363000
      3 N3          3.6990    3.0810   -3.5790 n2        1 23Z     -0.316000
      4 C4          4.3930    2.9550   -2.3890 c3        1 23Z     -0.033000
      5 C5          4.0510    1.8350   -1.5640 c3        1 23Z     -0.134000
      6 C6          2.5530    1.4180   -1.5640 c2        1 23Z     -0.063000
      7 C7          1.6820    2.0820   -2.4810 c1        1 23Z     -0.202000
      8 C8          2.3380    3.0650   -3.5380 c2        1 23Z      0.041000
      9 C9          0.4070    1.6320   -2.2510 c2        1 23Z     -0.078000
     10 N10         0.4580    0.7050   -1.2160 n2        1 23Z     -0.068000
     11 N11         1.7990    0.5840   -0.8000 n2        1 23Z     -0.098000
     12 C12         2.2860   -0.2540    0.2880 c2        1 23Z     -0.047000
     13 C13         1.1580   -1.1550    0.7810 c3        1 23Z      0.011000
     14 O14         0.5530   -0.5750    1.8930 oh        1 23Z     -0.330000
     15 C15         1.7260   -2.5210    1.1650 c3        1 23Z     -0.068000
     16 N16         1.2520   -2.8900    2.4840 n3        1 23Z     -0.253000
     17 C17         2.2130   -3.8220    3.1100 c3        1 23Z     -0.068500
     18 C18         1.7130   -4.3660    4.4390 c3        1 23Z     -0.146000
     19 C19         0.3460   -4.9410    4.3380 c3        1 23Z     -0.085000
     20 C20        -0.6170   -3.9950    3.7050 c3        1 23Z     -0.146000
     21 C21        -0.1090   -3.4540    2.3800 c3        1 23Z     -0.068500
     22 C22         0.4080   -6.2500    3.4810 c3        1 23Z      0.083000
     23 C23        -0.7500    2.0670   -2.9100 c1        1 23Z      0.026000
     24 C24        -0.9790    1.6960   -4.2270 c1        1 23Z     -0.093500
     25 C25        -2.1310    2.1190   -4.8760 c1        1 23Z     -0.093500
     26 C26        -3.0530    2.9130   -4.2080 c1        1 23Z     -0.115000
     27 C27        -2.8240    3.2840   -2.8890 c1        1 23Z     -0.231000
     28 C28        -1.6730    2.8610   -2.2400 c1        1 23Z     -0.078000
     29 S29        -3.9640    4.3690   -2.0600 ss        1 23Z      0.241000
     30 C30        -4.7410    3.4990   -0.7170 c3        1 23Z     -0.334000
     31 C31        -5.0240    4.4680    0.4180 c2        1 23Z      0.326000
     32 O32        -5.7630    5.4150    0.2380 o         1 23Z     -0.305000
     33 N33        -4.4790    4.2270    1.7100 n         1 23Z     -0.182000
     34 C34        -4.7030    4.9780    2.8280 c1        1 23Z     -0.111500
     35 C35        -3.9960    4.4140    3.8690 c1        1 23Z     -0.181000
     36 C36        -3.3410    3.3230    3.3890 c1        1 23Z     -0.181000
     37 C37        -3.6390    3.2040    2.0490 c1        1 23Z     -0.111500
     38 C38        -4.2910    3.4090   -4.9310 c3        1 23Z      0.466000
     39 F39        -4.1570    4.7150   -5.1990 f         1 23Z     -0.163667
     40 F40        -4.4410    2.7310   -6.0780 f         1 23Z     -0.163667
     41 F41        -5.3650    3.2210   -4.1570 f         1 23Z     -0.163667
     42 O42         0.8460   -5.9390    2.1840 oh        1 23Z     -0.327000
     43 C43         3.6150    3.2670   -6.1200 c3        1 23Z     -0.239000
     44 C44        -0.9710   -6.8750    3.4140 c3        1 23Z     -0.244500
     45 C45         1.3750   -7.2260    4.1210 c3        1 23Z     -0.244500
     46 H4          4.2040    3.7620   -1.8640 h1        1 23Z      0.113000
     47 H4A         5.3410    2.8580   -2.6220 h1        1 23Z      0.113000
     48 H5          4.5610    1.0680   -1.9000 hc        1 23Z      0.114000
     49 H5A         4.2780    2.0780   -0.6450 hc        1 23Z      0.114000
     50 H8          2.0500    3.9700   -3.3010 h4        1 23Z      0.102500
     51 H8A         2.0290    2.7790   -4.4230 h4        1 23Z      0.102500
     52 H12         3.0250   -0.8040   -0.0310 ha        1 23Z      0.122000
     53 H12A        2.5950    0.3130    1.0230 ha        1 23Z      0.122000
     54 H13         0.4950   -1.2660    0.0700 h1        1 23Z      0.117000
     55 HO14       -0.0410    0.0320    1.6240 ho        1 23Z      0.208000
     56 H15         1.4330   -3.1890    0.5150 h1        1 23Z      0.089500
     57 H15A        2.7030   -2.4780    1.1700 h1        1 23Z      0.089500
     58 H17         2.3700   -4.5690    2.5020 h1        1 23Z      0.078250
     59 H17A        3.0570   -3.3530    3.2590 h1        1 23Z      0.078250
     60 H18         1.7040   -3.6410    5.0940 hc        1 23Z      0.086000
     61 H18A        2.3270   -5.0630    4.7470 hc        1 23Z      0.086000
     62 H19         0.0290   -5.1630    5.2340 hc        1 23Z      0.087000
     63 H20        -1.4620   -4.4600    3.5530 hc        1 23Z      0.086000
     64 H20A       -0.7730   -3.2460    4.3150 hc        1 23Z      0.086000
     65 H21        -0.1020   -4.1770    1.7260 h1        1 23Z      0.078250
     66 H21A       -0.7170   -2.7550    2.0710 h1        1 23Z      0.078250
     67 H24        -0.3300    1.1380   -4.6970 ha        1 23Z      0.160500
     68 H25        -2.2920    1.8570   -5.8060 ha        1 23Z      0.160500
     69 H28        -1.5120    3.1210   -1.3160 ha        1 23Z      0.162000
     70 H30        -4.1460    2.7910   -0.4000 h1        1 23Z      0.155500
     71 H30A       -5.5800    3.1040   -1.0260 h1        1 23Z      0.155500
     72 H34        -5.2650    5.7730    2.8810 DU        1 23Z      0.168250
     73 H35        -3.9690    4.7400    4.7870 DU        1 23Z      0.168250
     74 H36        -2.7640    2.7300    3.9030 DU        1 23Z      0.168250
     75 H37        -3.3080    2.5110    1.4480 DU        1 23Z      0.168250
     76 HO42        0.9110   -6.6860    1.7070 ho        1 23Z      0.196000
     77 H43         2.9260    3.9630   -6.0670 hc        1 23Z      0.108000
     78 H43A        3.1910    2.4000   -6.2750 hc        1 23Z      0.108000
     79 H43B        4.2280    3.4680   -6.8620 hc        1 23Z      0.108000
     80 H44        -1.4600   -6.5060    2.6480 hc        1 23Z      0.083167
     81 H44A       -1.4600   -6.6770    4.2400 hc        1 23Z      0.083167
     82 H44B       -0.8850   -7.8470    3.3090 hc        1 23Z      0.083167
     83 H45         1.2890   -7.1790    5.0960 hc        1 23Z      0.083167
     84 H45A        1.1690   -8.1350    3.8180 hc        1 23Z      0.083167
     85 H45B        2.2920   -6.9950    3.8620 hc        1 23Z      0.083167
@<TRIPOS>BOND
     1    1    2 1   
     2    1   43 1   
     3    3    4 1   
     4    3    8 1   
     5    4    5 1   
     6    4   46 1   
     7    4   47 1   
     8    5    6 1   
     9    5   48 1   
    10    5   49 1   
    11    6    7 1   
    12    6   11 1   
    13    7    9 1   
    14    8   50 1   
    15    8   51 1   
    16    9   10 1   
    17    9   23 1   
    18   10   11 1   
    19   12   13 1   
    20   12   52 1   
    21   12   53 1   
    22   13   14 1   
    23   13   15 1   
    24   13   54 1   
    25   14   55 1   
    26   15   16 1   
    27   15   56 1   
    28   15   57 1   
    29   16   17 1   
    30   16   21 1   
    31   17   18 1   
    32   17   58 1   
    33   17   59 1   
    34   18   19 1   
    35   18   60 1   
    36   18   61 1   
    37   19   20 1   
    38   19   22 1   
    39   19   62 1   
    40   20   21 1   
    41   20   63 1   
    42   20   64 1   
    43   21   65 1   
    44   21   66 1   
    45   22   42 1   
    46   22   44 1   
    47   22   45 1   
    48   23   28 1   
    49   24   25 1   
    50   24   67 1   
    51   25   68 1   
    52   26   27 1   
    53   26   38 1   
    54   27   29 1   
    55   28   69 1   
    56   29   30 1   
    57   30   31 1   
    58   30   70 1   
    59   30   71 1   
    60   31   32 1   
    61   31   33 1   
    62   33   34 1   
    63   33   37 1   
    64   34   35 1   
    65   35   36 1   
    66   36   37 1   
    67   38   39 1   
    68   38   40 1   
    69   38   41 1   
    70   42   76 1   
    71   43   77 1   
    72   43   78 1   
    73   43   79 1   
    74   44   80 1   
    75   44   81 1   
    76   44   82 1   
    77   45   83 1   
    78   45   84 1   
    79   45   85 1   
@<TRIPOS>SUBSTRUCTURE
     1 23Z         1 TEMP              0 ****  ****    0 ROOT
