@<TRIPOS>MOLECULE
23Z
   85    89     1     0     0
SMALL
bcc


@<TRIPOS>ATOM
      1 C1         -0.2140   -0.0660    0.0390 c         1 23Z      0.654100
      2 O2          1.0310   -0.0240   -0.0350 o         1 23Z     -0.601100
      3 N3         -0.8330   -0.3200    1.2670 n         1 23Z     -0.457800
      4 C4         -0.0310   -0.3080    2.4750 c3        1 23Z      0.083000
      5 C5         -0.1130    0.9770    3.3190 c3        1 23Z     -0.044100
      6 C6         -1.4990    1.4800    3.3150 cc        1 23Z     -0.065600
      7 C7         -2.5000    1.0240    2.4320 cd        1 23Z     -0.284600
      8 C8         -2.2500   -0.0750    1.4700 c3        1 23Z      0.170300
      9 C9         -3.6690    1.8070    2.7550 cd        1 23Z      0.357800
     10 N10        -3.3670    2.6780    3.7720 nc        1 23Z     -0.507800
     11 N11        -2.0860    2.4700    4.1120 na        1 23Z      0.115400
     12 C12        -1.3740    3.2860    5.0780 c3        1 23Z      0.052300
     13 C13        -0.7130    4.5440    4.4750 c3        1 23Z      0.126100
     14 O14         0.4500    4.0880    3.8030 oh        1 23Z     -0.610800
     15 C15        -0.3510    5.5030    5.6300 c3        1 23Z      0.136800
     16 N16         0.2170    6.7520    5.1480 n3        1 23Z     -0.742600
     17 C17         1.1850    7.3220    6.0760 c3        1 23Z      0.172300
     18 C18         1.8060    8.6240    5.5770 c3        1 23Z     -0.075900
     19 C19         0.7440    9.6430    5.1990 c3        1 23Z     -0.045700
     20 C20        -0.2210    9.0180    4.2040 c3        1 23Z     -0.075900
     21 C21        -0.8000    7.7110    4.7370 c3        1 23Z      0.172300
     22 C22         1.3770   10.9300    4.6330 c3        1 23Z      0.152800
     23 C23        -4.9830    1.7210    2.1370 ca        1 23Z     -0.058500
     24 C24        -5.1090    1.6680    0.7420 ca        1 23Z     -0.124000
     25 C25        -6.3720    1.5770    0.1670 ca        1 23Z     -0.081000
     26 C26        -7.5220    1.5290    0.9610 ca        1 23Z     -0.144300
     27 C27        -7.4130    1.6000    2.3600 ca        1 23Z      0.026900
     28 C28        -6.1360    1.7030    2.9280 ca        1 23Z     -0.126000
     29 S29        -8.8000    1.6360    3.3470 ss        1 23Z     -0.121000
     30 C30        -8.2790    0.9240    4.8770 c3        1 23Z     -0.134300
     31 C31        -9.4020    0.1220    5.4910 c         1 23Z      0.586900
     32 O32        -9.2610   -1.0810    5.7560 o         1 23Z     -0.539100
     33 N33       -10.6030    0.7750    5.7950 n         1 23Z     -0.090200
     34 C34       -11.7130    0.1710    6.4250 cc        1 23Z     -0.133300
     35 C35       -12.7200    1.1190    6.5530 cd        1 23Z     -0.178500
     36 C36       -12.2290    2.3540    5.9800 cd        1 23Z     -0.178500
     37 C37       -10.9380    2.1190    5.5240 cc        1 23Z     -0.133300
     38 C38        -8.8640    1.3870    0.2390 c3        1 23Z      0.689200
     39 F39        -8.7720    1.4240   -1.1340 f         1 23Z     -0.232633
     40 F40        -9.5250    0.2070    0.4780 f         1 23Z     -0.232633
     41 F41        -9.7840    2.3690    0.5160 f         1 23Z     -0.232633
     42 O42         2.0980   10.5470    3.4600 oh        1 23Z     -0.596800
     43 C43        -1.0520    0.0630   -1.2080 c3        1 23Z     -0.170100
     44 C44         0.3000   11.9480    4.2650 c3        1 23Z     -0.126100
     45 C45         2.3360   11.5520    5.6440 c3        1 23Z     -0.126100
     46 H4          1.0480   -0.4850    2.2020 h1        1 23Z      0.071700
     47 H4A        -0.3860   -1.1710    3.1100 h1        1 23Z      0.071700
     48 H5          0.2360    0.7440    4.3590 hc        1 23Z      0.078200
     49 H5A         0.5690    1.7720    2.9050 hc        1 23Z      0.078200
     50 H8         -2.6990   -1.0290    1.8820 h1        1 23Z      0.059700
     51 H8A        -2.7640    0.1450    0.4930 h1        1 23Z      0.059700
     52 H12        -2.0920    3.6060    5.8840 h1        1 23Z      0.079700
     53 H12A       -0.5680    2.6360    5.5260 h1        1 23Z      0.079700
     54 H13        -1.4030    5.0480    3.7430 h1        1 23Z      0.061700
     55 HO14        0.9100    4.8670    3.4650 ho        1 23Z      0.429000
     56 H15        -1.2800    5.6760    6.2480 h1        1 23Z      0.044200
     57 H15A        0.4050    4.9790    6.2800 h1        1 23Z      0.044200
     58 H17         0.7180    7.5120    7.0880 h1        1 23Z      0.030200
     59 H17A        2.0080    6.5660    6.2160 h1        1 23Z      0.030200
     60 H18         2.4560    8.4270    4.6840 hc        1 23Z      0.058950
     61 H18A        2.4560    9.0270    6.3960 hc        1 23Z      0.058950
     62 H19         0.1740    9.9390    6.1250 hc        1 23Z      0.045700
     63 H20         0.3170    8.8410    3.2360 hc        1 23Z      0.058950
     64 H20A       -1.0760    9.7140    4.0040 hc        1 23Z      0.058950
     65 H21        -1.5030    7.9520    5.5900 h1        1 23Z      0.030200
     66 H21A       -1.4110    7.2290    3.9220 h1        1 23Z      0.030200
     67 H24        -4.2140    1.7120    0.1040 ha        1 23Z      0.147000
     68 H25        -6.4650    1.5400   -0.9320 ha        1 23Z      0.158000
     69 H28        -6.0280    1.7910    4.0220 ha        1 23Z      0.151000
     70 H30        -7.4090    0.2310    4.7360 h1        1 23Z      0.107200
     71 H30A       -7.9670    1.7290    5.5900 h1        1 23Z      0.107200
     72 H34       -11.6700   -0.8800    6.7180 h4        1 23Z      0.183000
     73 H35       -13.7000    0.9720    6.9970 ha        1 23Z      0.159000
     74 H36       -12.7780    3.2890    5.9190 ha        1 23Z      0.159000
     75 H37       -10.2350    2.7880    5.0180 h4        1 23Z      0.183000
     76 HO42        2.4930   11.3520    3.1050 ho        1 23Z      0.399000
     77 H43        -0.3680    0.0840   -2.0920 hc        1 23Z      0.067033
     78 H43A       -1.7510   -0.8010   -1.3140 hc        1 23Z      0.067033
     79 H43B       -1.6360    1.0140   -1.1830 hc        1 23Z      0.067033
     80 H44         0.7660   12.9340    4.0250 hc        1 23Z      0.044033
     81 H44A       -0.4070   12.0830    5.1150 hc        1 23Z      0.044033
     82 H44B       -0.2650   11.6010    3.3670 hc        1 23Z      0.044033
     83 H45         1.8390   11.6470    6.6380 hc        1 23Z      0.044033
     84 H45A        3.2490   10.9180    5.7490 hc        1 23Z      0.044033
     85 H45B        2.6530   12.5670    5.3030 hc        1 23Z      0.044033
@<TRIPOS>BOND
     1    1    2 2   
     2    1    3 1   
     3    1   43 1   
     4    3    4 1   
     5    3    8 1   
     6    4    5 1   
     7    4   46 1   
     8    4   47 1   
     9    5    6 1   
    10    5   48 1   
    11    5   49 1   
    12    6    7 2   
    13    6   11 1   
    14    7    8 1   
    15    7    9 1   
    16    8   50 1   
    17    8   51 1   
    18    9   10 2   
    19    9   23 1   
    20   10   11 1   
    21   11   12 1   
    22   12   13 1   
    23   12   52 1   
    24   12   53 1   
    25   13   14 1   
    26   13   15 1   
    27   13   54 1   
    28   14   55 1   
    29   15   16 1   
    30   15   56 1   
    31   15   57 1   
    32   16   17 1   
    33   16   21 1   
    34   17   18 1   
    35   17   58 1   
    36   17   59 1   
    37   18   19 1   
    38   18   60 1   
    39   18   61 1   
    40   19   20 1   
    41   19   22 1   
    42   19   62 1   
    43   20   21 1   
    44   20   63 1   
    45   20   64 1   
    46   21   65 1   
    47   21   66 1   
    48   22   42 1   
    49   22   44 1   
    50   22   45 1   
    51   23   24 ar  
    52   23   28 ar  
    53   24   25 ar  
    54   24   67 1   
    55   25   26 ar  
    56   25   68 1   
    57   26   27 ar  
    58   26   38 1   
    59   27   28 ar  
    60   27   29 1   
    61   28   69 1   
    62   29   30 1   
    63   30   31 1   
    64   30   70 1   
    65   30   71 1   
    66   31   32 2   
    67   31   33 1   
    68   33   34 1   
    69   33   37 1   
    70   34   35 2   
    71   34   72 1   
    72   35   36 1   
    73   35   73 1   
    74   36   37 2   
    75   36   74 1   
    76   37   75 1   
    77   38   39 1   
    78   38   40 1   
    79   38   41 1   
    80   42   76 1   
    81   43   77 1   
    82   43   78 1   
    83   43   79 1   
    84   44   80 1   
    85   44   81 1   
    86   44   82 1   
    87   45   83 1   
    88   45   84 1   
    89   45   85 1   
@<TRIPOS>SUBSTRUCTURE
     1 23Z         1 TEMP              0 ****  ****    0 ROOT
