@<TRIPOS>MOLECULE
240
   61    64     1     0     0
SMALL
bcc


@<TRIPOS>ATOM
      1 OAD         1.8810   -2.1060   -1.0360 o         1 240     -0.826300
      2 CAY         2.5810   -1.1720   -0.5600 c         1 240      0.914600
      3 OAF         3.6100   -0.6870   -1.1070 o         1 240     -0.826300
      4 CBJ         2.1190   -0.6110    0.8140 c3        1 240      0.006100
      5 CAC         0.8170    0.1480    0.6840 c3        1 240     -0.091100
      6 OAW         3.1140    0.3280    1.2910 os        1 240     -0.333900
      7 CBF         3.8070   -0.0700    2.4100 ca        1 240      0.156100
      8 CAO         3.1430   -0.3770    3.6090 ca        1 240     -0.184000
      9 CAK         3.8800   -0.6650    4.7530 ca        1 240     -0.120000
     10 CAJ         5.2730   -0.6520    4.7110 ca        1 240     -0.174000
     11 CAN         5.9310   -0.3610    3.5170 ca        1 240     -0.122000
     12 CBE         5.2180   -0.0750    2.3500 ca        1 240     -0.084300
     13 CAU         5.9160    0.1590    1.0530 c3        1 240     -0.007900
     14 CBG         6.3160    1.5630    0.8480 cc        1 240     -0.034400
     15 CBA         7.4200    2.2280    1.3710 cd        1 240     -0.059600
     16 CAB         8.4830    1.6290    2.2000 c3        1 240     -0.035900
     17 CBH         5.6010    2.5020   -0.0050 ca        1 240     -0.083800
     18 CAT         4.4560    2.3710   -0.7880 ca        1 240     -0.027000
     19 CBC         4.0550    3.5040   -1.5030 ca        1 240      0.032100
     20 OAX         3.0050    3.3780   -2.4200 os        1 240     -0.350900
     21 CBL         1.7540    3.8690   -2.0340 c3        1 240      0.813700
     22 FAG         0.9110    3.5360   -3.0440 f         1 240     -0.226633
     23 FAI         1.2900    3.3470   -0.8740 f         1 240     -0.226633
     24 FAH         1.7600    5.2270   -1.9210 f         1 240     -0.226633
     25 CAR         4.7440    4.7310   -1.4510 ca        1 240     -0.119000
     26 CAS         5.8880    4.8650   -0.6760 ca        1 240     -0.142000
     27 CBI         6.3220    3.7470    0.0480 ca        1 240      0.013600
     28 NBK         7.4300    3.5870    0.9200 n         1 240     -0.254200
     29 CAZ         8.3210    4.6060    1.2580 c         1 240      0.694700
     30 OAE         8.4040    5.6310    0.5550 o         1 240     -0.576100
     31 CBD         9.1530    4.4790    2.4880 ca        1 240     -0.164600
     32 CAQ         8.5550    4.2980    3.7420 ca        1 240     -0.056000
     33 CAM         9.3340    4.2800    4.8920 ca        1 240     -0.190500
     34 CAP        10.5370    4.6470    2.3880 ca        1 240     -0.056000
     35 CAL        11.3340    4.6190    3.5310 ca        1 240     -0.190500
     36 CBB        10.7290    4.4380    4.7810 ca        1 240      0.136100
     37 OAV        11.4130    4.4010    5.9810 os        1 240     -0.326900
     38 CAA        12.8260    4.5460    5.9020 c3        1 240      0.113700
     39 HBJ         2.0070   -1.4660    1.5310 h1        1 240      0.041700
     40 HAC1        0.3910    0.3830    1.6890 hc        1 240      0.034700
     41 HAC2        0.9820    1.1070    0.1360 hc        1 240      0.034700
     42 HAC3        0.0970   -0.4830    0.1100 hc        1 240      0.034700
     43 HAO         2.0430   -0.3850    3.6270 ha        1 240      0.137000
     44 HAK         3.3600   -0.9020    5.6930 ha        1 240      0.114000
     45 HAJ         5.8540   -0.8780    5.6150 ha        1 240      0.113000
     46 HAN         7.0320   -0.3650    3.4860 ha        1 240      0.116000
     47 HAU1        5.2130   -0.1480    0.2110 hc        1 240      0.099200
     48 HAU2        6.8260   -0.5000    1.0000 hc        1 240      0.099200
     49 HAB1        8.2870    1.8150    3.2870 hc        1 240      0.048367
     50 HAB2        9.4910    2.0410    1.9450 hc        1 240      0.048367
     51 HAB3        8.4980    0.5220    2.0280 hc        1 240      0.048367
     52 HAT         3.9040    1.4020   -0.8400 ha        1 240      0.245000
     53 HAR         4.3650    5.5830   -2.0350 ha        1 240      0.139000
     54 HAS         6.4410    5.8150   -0.6380 ha        1 240      0.157000
     55 HAQ         7.4630    4.1690    3.8170 ha        1 240      0.153000
     56 HAM         8.8810    4.1430    5.8830 ha        1 240      0.145000
     57 HAP        10.9950    4.8110    1.4000 ha        1 240      0.153000
     58 HAL        12.4210    4.7450    3.4380 ha        1 240      0.145000
     59 HAA1       13.2750    3.7210    5.2980 h1        1 240      0.043367
     60 HAA2       13.0970    5.5400    5.4700 h1        1 240      0.043367
     61 HAA3       13.1540    4.4770    6.9710 h1        1 240      0.043367
@<TRIPOS>BOND
     1    1    2 1   
     2    2    3 1   
     3    2    4 1   
     4    4    5 1   
     5    4    6 1   
     6    4   39 1   
     7    5   40 1   
     8    5   41 1   
     9    5   42 1   
    10    6    7 1   
    11    7    8 ar  
    12    7   12 ar  
    13    8    9 ar  
    14    8   43 1   
    15    9   10 ar  
    16    9   44 1   
    17   10   11 ar  
    18   10   45 1   
    19   11   12 ar  
    20   11   46 1   
    21   12   13 1   
    22   13   14 1   
    23   13   47 1   
    24   13   48 1   
    25   14   15 2   
    26   14   17 1   
    27   15   16 1   
    28   15   28 1   
    29   16   49 1   
    30   16   50 1   
    31   16   51 1   
    32   17   18 ar  
    33   17   27 ar  
    34   18   19 ar  
    35   18   52 1   
    36   19   20 1   
    37   19   25 ar  
    38   20   21 1   
    39   21   22 1   
    40   21   23 1   
    41   21   24 1   
    42   25   26 ar  
    43   25   53 1   
    44   26   27 ar  
    45   26   54 1   
    46   27   28 1   
    47   28   29 1   
    48   29   30 2   
    49   29   31 1   
    50   31   32 ar  
    51   31   34 ar  
    52   32   33 ar  
    53   32   55 1   
    54   33   36 ar  
    55   33   56 1   
    56   34   35 ar  
    57   34   57 1   
    58   35   36 ar  
    59   35   58 1   
    60   36   37 1   
    61   37   38 1   
    62   38   59 1   
    63   38   60 1   
    64   38   61 1   
@<TRIPOS>SUBSTRUCTURE
     1 240         1 TEMP              0 ****  ****    0 ROOT
