@<TRIPOS>MOLECULE
240
   61    54     1     0     0
SMALL
bcc


@<TRIPOS>ATOM
      1 OAD        -2.3450   -3.2670   -1.1960 o         1 240     -0.565500
      2 CAY        -2.6670   -4.4190   -1.5850 c2        1 240      0.323000
      3 OAF        -3.8260   -4.8560   -1.3640 o         1 240     -0.565500
      4 CBJ        -1.6790   -5.2560   -2.3590 c3        1 240     -0.041000
      5 CAC        -1.3960   -6.5320   -1.6010 c3        1 240     -0.198000
      6 OAW        -0.4790   -4.5330   -2.5270 os        1 240     -0.233000
      7 CBF        -0.6360   -3.3210   -3.2230 c2        1 240      0.105000
      8 CAO        -1.1940   -3.3190   -4.4920 c1        1 240     -0.173000
      9 CAK        -1.2460   -2.1430   -5.2260 c1        1 240     -0.142750
     10 CAJ        -0.7410   -0.9680   -4.6900 c1        1 240     -0.142750
     11 CAN        -0.1830   -0.9680   -3.4200 c1        1 240     -0.123000
     12 CBE        -0.1300   -2.1440   -2.6860 c2        1 240     -0.068000
     13 CAU         0.5790   -2.1670   -1.3360 c3        1 240     -0.100000
     14 CBG         0.7450   -0.7370   -0.8230 c2        1 240     -0.065000
     15 CBA         1.8460   -0.5870    0.0020 c1        1 240     -0.039000
     16 CAB         3.1700   -1.3490    0.0180 c2        1 240     -0.158000
     17 CBH        -0.1880    0.2200   -0.4670 c1        1 240     -0.063000
     18 CAT        -1.4550    0.5350   -0.9810 c1        1 240     -0.035000
     19 CBC        -2.1810    1.5900   -0.4420 c1        1 240     -0.003000
     20 OAX        -3.4590    1.5160   -1.0240 os        1 240     -0.234000
     21 CBL        -3.8270    2.6690   -1.7350 c3        1 240      0.530000
     22 FAG        -4.3540    3.5640   -0.8920 f         1 240     -0.153333
     23 FAI        -2.7470    3.1940   -2.3250 f         1 240     -0.153333
     24 FAH        -4.7330    2.3480   -2.6690 f         1 240     -0.153333
     25 CAR        -1.6520    2.3340    0.6070 c1        1 240     -0.142750
     26 CAS        -0.3980    2.0230    1.1160 c1        1 240     -0.142750
     27 CBI         0.3360    0.9580    0.5730 c1        1 240      0.014000
     28 NBK         1.5960    0.4570    0.8620 n1        1 240     -0.194000
     29 CAZ         2.5030    0.9710    1.8530 c1        1 240      0.369000
     30 OAE         3.6030    0.4740    1.9850 o         1 240     -0.336000
     31 CBD         2.0630    2.1320    2.7750 c2        1 240     -0.147000
     32 CAQ         1.4310    1.8560    3.9820 c2        1 240     -0.058000
     33 CAM         1.1790    2.8820    4.8870 c1        1 240     -0.163000
     34 CAP         2.4440    3.4340    2.4750 c1        1 240     -0.052000
     35 CAL         2.1910    4.4610    3.3820 c1        1 240     -0.215000
     36 CBB         1.5600    4.1840    4.5850 c1        1 240      0.091000
     37 OAV         1.2440    5.2380    5.4780 os        1 240     -0.210000
     38 CAA         2.3560    5.7270    6.2050 c3        1 240     -0.076000
     39 HBJ        -2.0540   -5.4740   -3.2360 h1        1 240      0.074000
     40 HAC1       -1.6870   -6.4300   -0.6710 hc        1 240      0.072333
     41 HAC2       -0.4340   -6.7190   -1.6240 hc        1 240      0.072333
     42 HAC3       -1.8840   -7.2750   -2.0180 hc        1 240      0.072333
     43 HAO        -1.5500   -4.1470   -4.8700 ha        1 240      0.133000
     44 HAK        -1.6060   -2.1500   -6.1350 ha        1 240      0.125500
     45 HAJ        -0.7790   -0.1410   -5.2060 ha        1 240      0.125500
     46 HAN         0.1720   -0.1420   -3.0430 ha        1 240      0.127000
     47 HAU1        1.4590   -2.5800   -1.4380 hc        1 240      0.142000
     48 HAU2        0.0490   -2.6830   -0.6980 hc        1 240      0.142000
     49 HAB1        3.1090   -2.1250   -0.5790 ha        1 240      0.094000
     50 HAB2        3.3610   -1.6540    0.9310 ha        1 240      0.094000
     51 HAB3        3.8910   -0.7590   -0.2860 ha        1 240      0.094000
     52 HAT        -2.1370    0.0430   -1.4790 ha        1 240      0.249000
     53 HAR        -2.0830    3.0970    1.0430 ha        1 240      0.125500
     54 HAS        -0.3150    2.8010    1.6990 ha        1 240      0.125500
     55 HAQ         1.2050    0.9370    4.2130 ha        1 240      0.154000
     56 HAM         0.7110    2.6910    5.7250 ha        1 240      0.153000
     57 HAP         2.9360    3.6200    1.6560 ha        1 240      0.148000
     58 HAL         2.4680    5.3740    3.1750 ha        1 240      0.138000
     59 HAA1        2.1290    5.7730    7.1590 h1        1 240      0.083000
     60 HAA2        3.1200    5.1230    6.0790 h1        1 240      0.083000
     61 HAA3        2.5910    6.6230    5.8810 h1        1 240      0.083000
@<TRIPOS>BOND
     1    1    2 1   
     2    2    3 1   
     3    2    4 1   
     4    4    5 1   
     5    4    6 1   
     6    4   39 1   
     7    5   40 1   
     8    5   41 1   
     9    5   42 1   
    10    6    7 1   
    11    7    8 1   
    12    7   12 1   
    13    8   43 1   
    14    9   10 1   
    15    9   44 1   
    16   10   45 1   
    17   11   12 1   
    18   11   46 1   
    19   12   13 1   
    20   13   14 1   
    21   13   47 1   
    22   13   48 1   
    23   14   15 1   
    24   14   17 1   
    25   15   28 1   
    26   16   49 1   
    27   16   50 1   
    28   16   51 1   
    29   17   27 1   
    30   18   19 1   
    31   18   52 1   
    32   19   20 1   
    33   20   21 1   
    34   21   22 1   
    35   21   23 1   
    36   21   24 1   
    37   25   26 1   
    38   25   53 1   
    39   26   54 1   
    40   29   30 1   
    41   29   31 1   
    42   31   32 1   
    43   31   34 1   
    44   32   33 1   
    45   32   55 1   
    46   33   56 1   
    47   34   57 1   
    48   35   36 1   
    49   35   58 1   
    50   36   37 1   
    51   37   38 1   
    52   38   59 1   
    53   38   60 1   
    54   38   61 1   
@<TRIPOS>SUBSTRUCTURE
     1 240         1 TEMP              0 ****  ****    0 ROOT
