@<TRIPOS>MOLECULE
240
   61    64     1     0     0
SMALL
bcc


@<TRIPOS>ATOM
      1 OAD         1.8910   -2.1020   -1.0580 o         1 240     -0.826300
      2 CAY         2.5890   -1.1690   -0.5780 c         1 240      0.914600
      3 OAF         3.6200   -0.6820   -1.1210 o         1 240     -0.826300
      4 CBJ         2.1230   -0.6100    0.7960 c3        1 240      0.006100
      5 CAC         0.8220    0.1480    0.6640 c3        1 240     -0.091100
      6 OAW         3.1160    0.3280    1.2780 os        1 240     -0.333900
      7 CBF         3.8060   -0.0720    2.3980 ca        1 240      0.156100
      8 CAO         3.1390   -0.3820    3.5950 ca        1 240     -0.184000
      9 CAK         3.8720   -0.6710    4.7410 ca        1 240     -0.120000
     10 CAJ         5.2660   -0.6580    4.7020 ca        1 240     -0.174000
     11 CAN         5.9280   -0.3650    3.5110 ca        1 240     -0.122000
     12 CBE         5.2180   -0.0770    2.3430 ca        1 240     -0.084300
     13 CAU         5.9190    0.1600    1.0480 c3        1 240     -0.007900
     14 CBG         6.3200    1.5650    0.8470 cc        1 240     -0.034400
     15 CBA         7.4210    2.2280    1.3750 cd        1 240     -0.059600
     16 CAB         8.4820    1.6290    2.2050 c3        1 240     -0.035900
     17 CBH         5.6070    2.5050   -0.0070 ca        1 240     -0.083800
     18 CAT         4.4640    2.3750   -0.7940 ca        1 240     -0.027000
     19 CBC         4.0650    3.5100   -1.5070 ca        1 240      0.032100
     20 OAX         3.0190    3.3850   -2.4280 os        1 240     -0.350900
     21 CBL         1.7660    3.8750   -2.0460 c3        1 240      0.813700
     22 FAG         0.9260    3.5430   -3.0580 f         1 240     -0.226633
     23 FAI         1.2990    3.3500   -0.8870 f         1 240     -0.226633
     24 FAH         1.7710    5.2320   -1.9290 f         1 240     -0.226633
     25 CAR         4.7540    4.7360   -1.4510 ca        1 240     -0.119000
     26 CAS         5.8960    4.8700   -0.6720 ca        1 240     -0.142000
     27 CBI         6.3280    3.7500    0.0510 ca        1 240      0.013600
     28 NBK         7.4330    3.5890    0.9260 n         1 240     -0.254200
     29 CAZ         8.3220    4.6080    1.2690 c         1 240      0.694700
     30 OAE         8.4080    5.6340    0.5690 o         1 240     -0.576100
     31 CBD         9.1500    4.4790    2.5020 ca        1 240     -0.164600
     32 CAQ         8.5470    4.2950    3.7530 ca        1 240     -0.056000
     33 CAM         9.3230    4.2750    4.9060 ca        1 240     -0.190500
     34 CAP        10.5340    4.6480    2.4070 ca        1 240     -0.056000
     35 CAL        11.3270    4.6190    3.5530 ca        1 240     -0.190500
     36 CBB        10.7180    4.4340    4.8000 ca        1 240      0.136100
     37 OAV        11.3980    4.3950    6.0020 os        1 240     -0.326900
     38 CAA        12.8110    4.5420    5.9290 c3        1 240      0.113700
     39 HBJ         2.0090   -1.4670    1.5110 h1        1 240      0.041700
     40 HAC1        0.1030   -0.4820    0.0860 hc        1 240      0.034700
     41 HAC2        0.3920    0.3820    1.6670 hc        1 240      0.034700
     42 HAC3        0.9880    1.1080    0.1180 hc        1 240      0.034700
     43 HAO         2.0390   -0.3900    3.6090 ha        1 240      0.137000
     44 HAK         3.3500   -0.9110    5.6780 ha        1 240      0.114000
     45 HAJ         5.8440   -0.8860    5.6080 ha        1 240      0.113000
     46 HAN         7.0280   -0.3680    3.4830 ha        1 240      0.116000
     47 HAU1        5.2190   -0.1460    0.2030 hc        1 240      0.099200
     48 HAU2        6.8300   -0.4990    0.9960 hc        1 240      0.099200
     49 HAB1        8.2830    1.8120    3.2920 hc        1 240      0.048367
     50 HAB2        9.4910    2.0410    1.9550 hc        1 240      0.048367
     51 HAB3        8.4980    0.5220    2.0310 hc        1 240      0.048367
     52 HAT         3.9130    1.4060   -0.8490 ha        1 240      0.245000
     53 HAR         4.3760    5.5890   -2.0350 ha        1 240      0.139000
     54 HAS         6.4480    5.8190   -0.6300 ha        1 240      0.157000
     55 HAQ         7.4550    4.1650    3.8250 ha        1 240      0.153000
     56 HAM         8.8660    4.1350    5.8950 ha        1 240      0.145000
     57 HAP        10.9950    4.8140    1.4210 ha        1 240      0.153000
     58 HAL        12.4140    4.7460    3.4630 ha        1 240      0.145000
     59 HAA1       13.1350    4.4710    6.9980 h1        1 240      0.043367
     60 HAA2       13.0820    5.5370    5.5000 h1        1 240      0.043367
     61 HAA3       13.2630    3.7180    5.3250 h1        1 240      0.043367
@<TRIPOS>BOND
     1    1    2 1   
     2    2    3 1   
     3    2    4 1   
     4    4    5 1   
     5    4    6 1   
     6    4   39 1   
     7    5   40 1   
     8    5   41 1   
     9    5   42 1   
    10    6    7 1   
    11    7    8 ar  
    12    7   12 ar  
    13    8    9 ar  
    14    8   43 1   
    15    9   10 ar  
    16    9   44 1   
    17   10   11 ar  
    18   10   45 1   
    19   11   12 ar  
    20   11   46 1   
    21   12   13 1   
    22   13   14 1   
    23   13   47 1   
    24   13   48 1   
    25   14   15 2   
    26   14   17 1   
    27   15   16 1   
    28   15   28 1   
    29   16   49 1   
    30   16   50 1   
    31   16   51 1   
    32   17   18 ar  
    33   17   27 ar  
    34   18   19 ar  
    35   18   52 1   
    36   19   20 1   
    37   19   25 ar  
    38   20   21 1   
    39   21   22 1   
    40   21   23 1   
    41   21   24 1   
    42   25   26 ar  
    43   25   53 1   
    44   26   27 ar  
    45   26   54 1   
    46   27   28 1   
    47   28   29 1   
    48   29   30 2   
    49   29   31 1   
    50   31   32 ar  
    51   31   34 ar  
    52   32   33 ar  
    53   32   55 1   
    54   33   36 ar  
    55   33   56 1   
    56   34   35 ar  
    57   34   57 1   
    58   35   36 ar  
    59   35   58 1   
    60   36   37 1   
    61   37   38 1   
    62   38   59 1   
    63   38   60 1   
    64   38   61 1   
@<TRIPOS>SUBSTRUCTURE
     1 240         1 TEMP              0 ****  ****    0 ROOT
