@<TRIPOS>MOLECULE
240
   61    64     1     0     0
SMALL
bcc


@<TRIPOS>ATOM
      1 OAD         5.4300   -2.7700    1.3090 o         1 240     -0.826300
      2 CAY         4.3500   -2.2060    0.9880 c         1 240      0.914600
      3 OAF         3.6090   -1.5590    1.7780 o         1 240     -0.826300
      4 CBJ         3.9240   -2.3530   -0.4990 c3        1 240      0.006100
      5 CAC         4.8460   -1.5740   -1.4120 c3        1 240     -0.091100
      6 OAW         2.5950   -1.7960   -0.6600 os        1 240     -0.333900
      7 CBF         1.6100   -2.7080   -0.9560 ca        1 240      0.156100
      8 CAO         1.6880   -3.5240   -2.0950 ca        1 240     -0.184000
      9 CAK         0.6210   -4.3530   -2.4270 ca        1 240     -0.120000
     10 CAJ        -0.5220   -4.3760   -1.6300 ca        1 240     -0.174000
     11 CAN        -0.5940   -3.5750   -0.4910 ca        1 240     -0.122000
     12 CBE         0.4650   -2.7390   -0.1290 ca        1 240     -0.084300
     13 CAU         0.4250   -1.9400    1.1300 c3        1 240     -0.007900
     14 CBG        -0.2240   -0.6250    0.9700 cc        1 240     -0.034400
     15 CBA        -1.5830   -0.3360    0.9400 cd        1 240     -0.059600
     16 CAB        -2.6820   -1.2980    1.1400 c3        1 240     -0.035900
     17 CBH         0.4980    0.6340    0.8510 ca        1 240     -0.083800
     18 CAT         1.8570    0.9390    0.8480 ca        1 240     -0.027000
     19 CBC         2.1940    2.2900    0.7260 ca        1 240      0.032100
     20 OAX         3.5360    2.6590    0.8740 os        1 240     -0.350900
     21 CBL         4.2520    2.9540   -0.2900 c3        1 240      0.813700
     22 FAG         5.5270    3.1780    0.1190 f         1 240     -0.226633
     23 FAI         4.2460    1.9590   -1.2090 f         1 240     -0.226633
     24 FAH         3.7960    4.0910   -0.8860 f         1 240     -0.226633
     25 CAR         1.2360    3.3150    0.6030 ca        1 240     -0.119000
     26 CAS        -0.1200    3.0170    0.6090 ca        1 240     -0.142000
     27 CBI        -0.4930    1.6730    0.7380 ca        1 240      0.013600
     28 NBK        -1.7780    1.0720    0.7630 n         1 240     -0.254200
     29 CAZ        -2.9780    1.7700    0.6180 c         1 240      0.694700
     30 OAE        -3.0180    3.0020    0.7960 o         1 240     -0.576100
     31 CBD        -4.2110    1.0380    0.2140 ca        1 240     -0.164600
     32 CAQ        -4.2500    0.3020   -0.9780 ca        1 240     -0.056000
     33 CAM        -5.4340   -0.2940   -1.3930 ca        1 240     -0.190500
     34 CAP        -5.3650    1.1790    0.9890 ca        1 240     -0.056000
     35 CAL        -6.5580    0.5770    0.5920 ca        1 240     -0.190500
     36 CBB        -6.5890   -0.1570   -0.6010 ca        1 240      0.136100
     37 OAV        -7.7120   -0.7900   -1.0990 os        1 240     -0.326900
     38 CAA        -8.8940   -0.6800   -0.3150 c3        1 240      0.113700
     39 HBJ         3.9310   -3.4410   -0.7680 h1        1 240      0.041700
     40 HAC1        5.9010   -1.8250   -1.1450 hc        1 240      0.034700
     41 HAC2        4.6590   -1.8310   -2.4820 hc        1 240      0.034700
     42 HAC3        4.6850   -0.4770   -1.2780 hc        1 240      0.034700
     43 HAO         2.5970   -3.4970   -2.7130 ha        1 240      0.137000
     44 HAK         0.6810   -4.9910   -3.3210 ha        1 240      0.114000
     45 HAJ        -1.3640   -5.0300   -1.8940 ha        1 240      0.113000
     46 HAN        -1.4940   -3.6070    0.1410 ha        1 240      0.116000
     47 HAU1       -0.1140   -2.5280    1.9230 hc        1 240      0.099200
     48 HAU2        1.4970   -1.7790    1.4830 hc        1 240      0.099200
     49 HAB1       -3.5220   -0.8550    1.7300 hc        1 240      0.048367
     50 HAB2       -3.0840   -1.6480    0.1550 hc        1 240      0.048367
     51 HAB3       -2.2890   -2.1880    1.6960 hc        1 240      0.048367
     52 HAT         2.6250    0.1350    0.9500 ha        1 240      0.245000
     53 HAR         1.5770    4.3560    0.5030 ha        1 240      0.139000
     54 HAS        -0.8770    3.8110    0.5260 ha        1 240      0.157000
     55 HAQ        -3.3380    0.1950   -1.5890 ha        1 240      0.153000
     56 HAM        -5.4820   -0.8720   -2.3270 ha        1 240      0.145000
     57 HAP        -5.3310    1.7780    1.9120 ha        1 240      0.153000
     58 HAL        -7.4560    0.6900    1.2130 ha        1 240      0.145000
     59 HAA1       -9.6490   -1.2640   -0.9000 h1        1 240      0.043367
     60 HAA2       -8.7420   -1.1320    0.6950 h1        1 240      0.043367
     61 HAA3       -9.2070    0.3880   -0.2230 h1        1 240      0.043367
@<TRIPOS>BOND
     1    1    2 1   
     2    2    3 1   
     3    2    4 1   
     4    4    5 1   
     5    4    6 1   
     6    4   39 1   
     7    5   40 1   
     8    5   41 1   
     9    5   42 1   
    10    6    7 1   
    11    7    8 ar  
    12    7   12 ar  
    13    8    9 ar  
    14    8   43 1   
    15    9   10 ar  
    16    9   44 1   
    17   10   11 ar  
    18   10   45 1   
    19   11   12 ar  
    20   11   46 1   
    21   12   13 1   
    22   13   14 1   
    23   13   47 1   
    24   13   48 1   
    25   14   15 2   
    26   14   17 1   
    27   15   16 1   
    28   15   28 1   
    29   16   49 1   
    30   16   50 1   
    31   16   51 1   
    32   17   18 ar  
    33   17   27 ar  
    34   18   19 ar  
    35   18   52 1   
    36   19   20 1   
    37   19   25 ar  
    38   20   21 1   
    39   21   22 1   
    40   21   23 1   
    41   21   24 1   
    42   25   26 ar  
    43   25   53 1   
    44   26   27 ar  
    45   26   54 1   
    46   27   28 1   
    47   28   29 1   
    48   29   30 2   
    49   29   31 1   
    50   31   32 ar  
    51   31   34 ar  
    52   32   33 ar  
    53   32   55 1   
    54   33   36 ar  
    55   33   56 1   
    56   34   35 ar  
    57   34   57 1   
    58   35   36 ar  
    59   35   58 1   
    60   36   37 1   
    61   37   38 1   
    62   38   59 1   
    63   38   60 1   
    64   38   61 1   
@<TRIPOS>SUBSTRUCTURE
     1 240         1 TEMP              0 ****  ****    0 ROOT
