@<TRIPOS>MOLECULE
241
   61    64     1     0     0
SMALL
bcc


@<TRIPOS>ATOM
      1 CAA        -0.0600   -2.3960    0.0580 c3        1 241      0.115700
      2 OAV         1.3340   -2.1820   -0.1080 os        1 241     -0.318900
      3 CBC         1.9640   -1.4650    0.8920 ca        1 241      0.134100
      4 CAM         1.2870   -0.8240    1.9410 ca        1 241     -0.181500
      5 CAO         2.0190   -0.1090    2.8830 ca        1 241     -0.045500
      6 CAN         3.3640   -1.3950    0.7880 ca        1 241     -0.181500
      7 CAP         4.0830   -0.6770    1.7380 ca        1 241     -0.045500
      8 CBF         3.4160   -0.0380    2.7930 ca        1 241     -0.203600
      9 CAZ         4.1200    0.8020    3.7870 c         1 241      0.712700
     10 OAE         3.6170    1.8660    4.1960 o         1 241     -0.587100
     11 NBK         5.3890    0.4300    4.2830 n         1 241     -0.255200
     12 CBB         5.9680   -0.8670    4.3920 cc        1 241      0.055400
     13 CAB         5.2950   -2.1190    4.0020 c3        1 241     -0.091900
     14 CBI         6.3080    1.3550    4.8340 ca        1 241      0.013600
     15 CAR         6.2250    2.7460    4.9870 ca        1 241     -0.111000
     16 CAQ         7.3030    3.4100    5.5570 ca        1 241     -0.136000
     17 CBE         8.4440    2.6930    5.9620 ca        1 241      0.041100
     18 OAX         9.4530    3.3600    6.6680 os        1 241     -0.367900
     19 CBL        10.3520    4.1350    5.9300 c3        1 241      0.813700
     20 FAI        11.0070    3.4310    4.9730 f         1 241     -0.225633
     21 FAG         9.7550    5.2100    5.3520 f         1 241     -0.225633
     22 FAH        11.2590    4.5840    6.8370 f         1 241     -0.225633
     23 CAT         8.5620    1.3110    5.8110 ca        1 241     -0.078000
     24 CBH         7.4850    0.6310    5.2520 ca        1 241     -0.062800
     25 CBG         7.2380   -0.7680    4.9640 cd        1 241     -0.143400
     26 CAU         8.1840   -1.8620    5.2520 c3        1 241      0.044100
     27 CBA         9.0770   -2.1740    4.0950 ca        1 241     -0.076300
     28 CAS         8.6100   -2.9910    3.0630 ca        1 241     -0.136000
     29 CAK        10.3760   -1.6570    4.0400 ca        1 241     -0.150000
     30 CAJ        11.2000   -1.9460    2.9530 ca        1 241     -0.134000
     31 CAL        10.7390   -2.7410    1.9070 ca        1 241     -0.160000
     32 CBD         9.4380   -3.2630    1.9650 ca        1 241      0.133100
     33 OAW         9.0390   -4.1440    0.9770 os        1 241     -0.356900
     34 CBJ         8.0770   -3.6090    0.0360 c3        1 241      0.037100
     35 CAC         7.8350   -4.7340   -0.9500 c3        1 241     -0.079100
     36 CAY         6.7420   -3.1680    0.6700 c         1 241      0.892600
     37 OAD         6.1560   -3.9110    1.5100 o         1 241     -0.844300
     38 OAF         6.2670   -2.0570    0.2920 o         1 241     -0.844300
     39 HAA1       -0.3300   -3.0540   -0.8070 h1        1 241      0.037033
     40 HAA2       -0.2740   -2.9110    1.0260 h1        1 241      0.037033
     41 HAA3       -0.6170   -1.4280    0.0010 h1        1 241      0.037033
     42 HAM         0.1940   -0.8760    2.0290 ha        1 241      0.165500
     43 HAO         1.5020    0.4130    3.7020 ha        1 241      0.171000
     44 HAN         3.9150   -1.9250   -0.0100 ha        1 241      0.165500
     45 HAP         5.1870   -0.6500    1.6310 ha        1 241      0.171000
     46 HAB1        5.6410   -2.9460    4.6730 hc        1 241      0.085033
     47 HAB2        5.5650   -2.4100    2.9410 hc        1 241      0.085033
     48 HAB3        4.1830   -2.0430    4.0740 hc        1 241      0.085033
     49 HAR         5.3260    3.2960    4.6710 ha        1 241      0.165000
     50 HAQ         7.2780    4.5010    5.6930 ha        1 241      0.142000
     51 HAT         9.4720    0.7790    6.1250 ha        1 241      0.150000
     52 HAU1        8.8090   -1.5750    6.1420 hc        1 241      0.046700
     53 HAU2        7.6100   -2.7900    5.5300 hc        1 241      0.046700
     54 HAS         7.5870   -3.4110    3.0800 ha        1 241      0.192000
     55 HAK        10.7440   -1.0110    4.8500 ha        1 241      0.114000
     56 HAJ        12.2190   -1.5340    2.9170 ha        1 241      0.113000
     57 HAL        11.3780   -2.9670    1.0430 ha        1 241      0.129000
     58 HBJ         8.5530   -2.7260   -0.4720 h1        1 241      0.035700
     59 HAC1        7.1720   -4.3610   -1.7650 hc        1 241      0.034033
     60 HAC2        8.7970   -5.0910   -1.3870 hc        1 241      0.034033
     61 HAC3        7.3350   -5.5870   -0.4310 hc        1 241      0.034033
@<TRIPOS>BOND
     1    1    2 1   
     2    1   39 1   
     3    1   40 1   
     4    1   41 1   
     5    2    3 1   
     6    3    4 ar  
     7    3    6 ar  
     8    4    5 ar  
     9    4   42 1   
    10    5    8 ar  
    11    5   43 1   
    12    6    7 ar  
    13    6   44 1   
    14    7    8 ar  
    15    7   45 1   
    16    8    9 1   
    17    9   10 2   
    18    9   11 1   
    19   11   12 1   
    20   11   14 1   
    21   12   13 1   
    22   12   25 2   
    23   13   46 1   
    24   13   47 1   
    25   13   48 1   
    26   14   15 ar  
    27   14   24 ar  
    28   15   16 ar  
    29   15   49 1   
    30   16   17 ar  
    31   16   50 1   
    32   17   18 1   
    33   17   23 ar  
    34   18   19 1   
    35   19   20 1   
    36   19   21 1   
    37   19   22 1   
    38   23   24 ar  
    39   23   51 1   
    40   24   25 1   
    41   25   26 1   
    42   26   27 1   
    43   26   52 1   
    44   26   53 1   
    45   27   28 ar  
    46   27   29 ar  
    47   28   32 ar  
    48   28   54 1   
    49   29   30 ar  
    50   29   55 1   
    51   30   31 ar  
    52   30   56 1   
    53   31   32 ar  
    54   31   57 1   
    55   32   33 1   
    56   33   34 1   
    57   34   35 1   
    58   34   36 1   
    59   34   58 1   
    60   35   59 1   
    61   35   60 1   
    62   35   61 1   
    63   36   37 1   
    64   36   38 1   
@<TRIPOS>SUBSTRUCTURE
     1 241         1 TEMP              0 ****  ****    0 ROOT
