@<TRIPOS>MOLECULE
241
   61    54     1     0     0
SMALL
bcc


@<TRIPOS>ATOM
      1 CAA        -0.7380   -2.8300   -8.6340 c3        1 241     -0.077000
      2 OAV        -1.5800   -2.1500   -7.6820 os        1 241     -0.206000
      3 CBC        -1.0480   -2.1240   -6.3510 c2        1 241      0.101000
      4 CAM        -0.2770   -1.0400   -5.9280 c2        1 241     -0.165000
      5 CAO         0.2950   -1.0450   -4.6550 c1        1 241     -0.056000
      6 CAN        -1.2460   -3.2100   -5.5020 c1        1 241     -0.218000
      7 CAP        -0.6760   -3.2160   -4.2320 c1        1 241     -0.046000
      8 CBF         0.0960   -2.1330   -3.8070 c1        1 241     -0.163000
      9 CAZ         0.8390   -2.2040   -2.4650 c2        1 241      0.374000
     10 OAE         1.9400   -2.7240   -2.4060 o         1 241     -0.317000
     11 NBK         0.2600   -1.5960   -1.2830 n         1 241     -0.199000
     12 CBB         0.8480   -1.5340   -0.0280 c1        1 241      0.011000
     13 CAB         2.1570   -2.2120    0.2330 c2        1 241     -0.169000
     14 CBI        -0.9310   -0.8990   -1.2320 c1        1 241      0.011000
     15 CAR        -1.9370   -0.6810   -2.1890 c1        1 241     -0.143250
     16 CAQ        -3.0880    0.0330   -1.8400 c1        1 241     -0.143250
     17 CBE        -3.2360    0.5290   -0.5400 c1        1 241      0.008000
     18 OAX        -4.3310    1.1140    0.1900 os        1 241     -0.249000
     19 CBL        -5.0370    2.1290   -0.5390 c3        1 241      0.531000
     20 FAI        -5.3970    3.1160    0.3000 f         1 241     -0.148333
     21 FAG        -4.2460    2.6240   -1.4940 f         1 241     -0.148333
     22 FAH        -6.1380    1.5940   -1.1030 f         1 241     -0.148333
     23 CAT        -2.2430    0.3140    0.4020 c1        1 241     -0.058000
     24 CBH        -1.0820   -0.4050    0.0540 c1        1 241     -0.078000
     25 CBG         0.0180   -0.7990    0.7970 c1        1 241     -0.078000
     26 CAU         0.1300   -0.8180    2.3330 c2        1 241     -0.060000
     27 CBA         0.9530    0.4130    2.8060 c2        1 241     -0.051000
     28 CAS         0.6870    0.9990    4.0530 c2        1 241     -0.180000
     29 CAK         1.9500    0.9320    1.9940 c1        1 241     -0.197000
     30 CAJ         2.6950    2.0420    2.4190 c1        1 241     -0.143250
     31 CAL         2.4320    2.6300    3.6660 c1        1 241     -0.143250
     32 CBD         1.4360    2.1150    4.4790 c1        1 241      0.126000
     33 OAW         1.1280    2.7590    5.7450 os        1 241     -0.172000
     34 CBJ         2.2120    2.7330    6.6910 c3        1 241     -0.067000
     35 CAC         2.7460    4.1540    6.8970 c3        1 241     -0.227000
     36 CAY         1.7300    2.1980    7.9770 c2        1 241      0.351000
     37 OAD         1.5640    0.9680    8.1190 o         1 241     -0.551500
     38 OAF         1.4140    2.9820    8.9020 o         1 241     -0.551500
     39 HAA1       -0.2940   -3.5990   -8.1930 h1        1 241      0.085333
     40 HAA2       -1.2890   -3.1570   -9.3900 h1        1 241      0.085333
     41 HAA3       -0.0530   -2.2050   -8.9720 h1        1 241      0.085333
     42 HAM        -0.0980   -0.2910   -6.5460 ha        1 241      0.158000
     43 HAO         0.8390   -0.2820   -4.3550 ha        1 241      0.157000
     44 HAN        -1.8170   -3.9700   -5.7930 ha        1 241      0.142000
     45 HAP        -0.8150   -3.9780   -3.6380 ha        1 241      0.150000
     46 HAB1        2.4450   -2.0220    1.1490 ha        1 241      0.102333
     47 HAB2        2.8300   -1.8790   -0.3980 ha        1 241      0.102333
     48 HAB3        2.0520   -3.1840    0.1180 ha        1 241      0.102333
     49 HAR        -1.8690   -1.0980   -3.0740 ha        1 241      0.138000
     50 HAQ        -3.7530    0.2310   -2.5090 ha        1 241      0.138000
     51 HAT        -2.3490    0.6680    1.3240 ha        1 241      0.171000
     52 HAU1        0.5780   -1.6370    2.6150 ha        1 241      0.095500
     53 HAU2       -0.7600   -0.7840    2.7250 ha        1 241      0.095500
     54 HAS         0.0240    0.5880    4.6590 ha        1 241      0.145000
     55 HAK         2.1750    0.4830    1.1400 ha        1 241      0.116000
     56 HAJ         3.3460    2.4510    1.8150 ha        1 241      0.138000
     57 HAL         2.9970    3.3660    3.9890 ha        1 241      0.138000
     58 HBJ         2.9230    2.1670    6.3510 h1        1 241      0.077000
     59 HAC1        3.2010    4.2140    7.7860 hc        1 241      0.072333
     60 HAC2        3.3890    4.3690    6.1830 hc        1 241      0.072333
     61 HAC3        2.0000    4.7920    6.8680 hc        1 241      0.072333
@<TRIPOS>BOND
     1    1    2 1   
     2    1   39 1   
     3    1   40 1   
     4    1   41 1   
     5    2    3 1   
     6    3    4 1   
     7    3    6 1   
     8    4    5 1   
     9    4   42 1   
    10    5   43 1   
    11    6   44 1   
    12    7    8 1   
    13    7   45 1   
    14    8    9 1   
    15    9   10 1   
    16    9   11 1   
    17   11   12 1   
    18   11   14 1   
    19   12   25 1   
    20   13   46 1   
    21   13   47 1   
    22   13   48 1   
    23   14   24 1   
    24   15   16 1   
    25   15   49 1   
    26   16   50 1   
    27   17   18 1   
    28   17   23 1   
    29   18   19 1   
    30   19   20 1   
    31   19   21 1   
    32   19   22 1   
    33   23   51 1   
    34   26   27 1   
    35   26   52 1   
    36   26   53 1   
    37   27   28 1   
    38   27   29 1   
    39   28   32 1   
    40   28   54 1   
    41   29   55 1   
    42   30   31 1   
    43   30   56 1   
    44   31   57 1   
    45   32   33 1   
    46   33   34 1   
    47   34   35 1   
    48   34   36 1   
    49   34   58 1   
    50   35   59 1   
    51   35   60 1   
    52   35   61 1   
    53   36   37 1   
    54   36   38 1   
@<TRIPOS>SUBSTRUCTURE
     1 241         1 TEMP              0 ****  ****    0 ROOT
