@<TRIPOS>MOLECULE
241
   61    64     1     0     0
SMALL
bcc


@<TRIPOS>ATOM
      1 CAA         4.0460    6.5190    0.3990 c3        1 241      0.115700
      2 OAV         3.8140    5.2050    0.8840 os        1 241     -0.318900
      3 CBC         2.6070    4.6290    0.5330 ca        1 241      0.134100
      4 CAM         1.5720    5.3170   -0.1180 ca        1 241     -0.181500
      5 CAO         0.3880    4.6450   -0.4050 ca        1 241     -0.045500
      6 CAN         2.4610    3.2780    0.8930 ca        1 241     -0.181500
      7 CAP         1.2710    2.6190    0.5990 ca        1 241     -0.045500
      8 CBF         0.2340    3.2960   -0.0570 ca        1 241     -0.203600
      9 CAZ        -1.0800    2.6700   -0.3260 c         1 241      0.712700
     10 OAE        -2.1360    3.3170   -0.1920 o         1 241     -0.587100
     11 NBK        -1.1720    1.3180   -0.7210 n         1 241     -0.255200
     12 CBB        -0.2120    0.5100   -1.3970 cc        1 241      0.055400
     13 CAB         1.1120    0.9800   -1.8440 c3        1 241     -0.091900
     14 CBI        -2.3360    0.5340   -0.5400 ca        1 241      0.013600
     15 CAR        -3.5680    0.8490    0.0490 ca        1 241     -0.111000
     16 CAQ        -4.5430   -0.1380    0.1050 ca        1 241     -0.136000
     17 CBE        -4.2860   -1.4180   -0.4180 ca        1 241      0.041100
     18 OAX        -5.3290   -2.3500   -0.4860 os        1 241     -0.367900
     19 CBL        -5.6640   -3.0300    0.6890 c3        1 241      0.813700
     20 FAI        -4.6250   -3.7150    1.2270 f         1 241     -0.225633
     21 FAG        -6.1820   -2.2040    1.6340 f         1 241     -0.225633
     22 FAH        -6.6260   -3.9170    0.3210 f         1 241     -0.225633
     23 CAT        -3.0650   -1.7680   -0.9990 ca        1 241     -0.078000
     24 CBH        -2.0830   -0.7850   -1.0710 ca        1 241     -0.062800
     25 CBG        -0.7370   -0.7670   -1.6080 cd        1 241     -0.143400
     26 CAU        -0.0810   -1.9130   -2.2640 c3        1 241      0.044100
     27 CBA         0.7160   -2.7450   -1.3130 ca        1 241     -0.076300
     28 CAS         2.0070   -2.3440   -0.9610 ca        1 241     -0.136000
     29 CAK         0.1820   -3.9220   -0.7760 ca        1 241     -0.150000
     30 CAJ         0.9300   -4.6870    0.1170 ca        1 241     -0.134000
     31 CAL         2.2100   -4.2870    0.4940 ca        1 241     -0.160000
     32 CBD         2.7470   -3.1100   -0.0490 ca        1 241      0.133100
     33 OAW         4.0600   -2.7900    0.2450 os        1 241     -0.356900
     34 CBJ         4.2260   -1.6720    1.1490 c3        1 241      0.037100
     35 CAC         5.7250   -1.5500    1.3390 c3        1 241     -0.079100
     36 CAY         3.6510   -0.3390    0.6270 c         1 241      0.892600
     37 OAD         2.9820    0.3570    1.4470 o         1 241     -0.844300
     38 OAF         3.8730    0.0310   -0.5610 o         1 241     -0.844300
     39 HAA1        3.9680    6.5540   -0.7150 h1        1 241      0.037033
     40 HAA2        3.3290    7.2420    0.8600 h1        1 241      0.037033
     41 HAA3        5.0920    6.7400    0.7280 h1        1 241      0.037033
     42 HAM         1.6800    6.3710   -0.4030 ha        1 241      0.165500
     43 HAO        -0.4400    5.1750   -0.9010 ha        1 241      0.171000
     44 HAN         3.2810    2.7120    1.3720 ha        1 241      0.165500
     45 HAP         1.1940    1.5510    0.8880 ha        1 241      0.171000
     46 HAB1        1.9050    0.7550   -1.0660 hc        1 241      0.085033
     47 HAB2        1.3980    0.4360   -2.7790 hc        1 241      0.085033
     48 HAB3        1.1240    2.0780   -2.0510 hc        1 241      0.085033
     49 HAR        -3.7610    1.8560    0.4500 ha        1 241      0.165000
     50 HAQ        -5.5220    0.0690    0.5600 ha        1 241      0.142000
     51 HAT        -2.8880   -2.7800   -1.3860 ha        1 241      0.150000
     52 HAU1       -0.8700   -2.5510   -2.7500 hc        1 241      0.046700
     53 HAU2        0.5980   -1.5390   -3.0800 hc        1 241      0.046700
     54 HAS         2.4530   -1.4170   -1.3670 ha        1 241      0.192000
     55 HAK        -0.8350   -4.2370   -1.0500 ha        1 241      0.114000
     56 HAJ         0.5020   -5.6090    0.5360 ha        1 241      0.113000
     57 HAL         2.8030   -4.8800    1.2030 ha        1 241      0.129000
     58 HBJ         3.7200   -1.9380    2.1170 h1        1 241      0.035700
     59 HAC1        5.9270   -0.7640    2.1040 hc        1 241      0.034033
     60 HAC2        6.1620   -2.5190    1.6780 hc        1 241      0.034033
     61 HAC3        6.2030   -1.2560    0.3740 hc        1 241      0.034033
@<TRIPOS>BOND
     1    1    2 1   
     2    1   39 1   
     3    1   40 1   
     4    1   41 1   
     5    2    3 1   
     6    3    4 ar  
     7    3    6 ar  
     8    4    5 ar  
     9    4   42 1   
    10    5    8 ar  
    11    5   43 1   
    12    6    7 ar  
    13    6   44 1   
    14    7    8 ar  
    15    7   45 1   
    16    8    9 1   
    17    9   10 2   
    18    9   11 1   
    19   11   12 1   
    20   11   14 1   
    21   12   13 1   
    22   12   25 2   
    23   13   46 1   
    24   13   47 1   
    25   13   48 1   
    26   14   15 ar  
    27   14   24 ar  
    28   15   16 ar  
    29   15   49 1   
    30   16   17 ar  
    31   16   50 1   
    32   17   18 1   
    33   17   23 ar  
    34   18   19 1   
    35   19   20 1   
    36   19   21 1   
    37   19   22 1   
    38   23   24 ar  
    39   23   51 1   
    40   24   25 1   
    41   25   26 1   
    42   26   27 1   
    43   26   52 1   
    44   26   53 1   
    45   27   28 ar  
    46   27   29 ar  
    47   28   32 ar  
    48   28   54 1   
    49   29   30 ar  
    50   29   55 1   
    51   30   31 ar  
    52   30   56 1   
    53   31   32 ar  
    54   31   57 1   
    55   32   33 1   
    56   33   34 1   
    57   34   35 1   
    58   34   36 1   
    59   34   58 1   
    60   35   59 1   
    61   35   60 1   
    62   35   61 1   
    63   36   37 1   
    64   36   38 1   
@<TRIPOS>SUBSTRUCTURE
     1 241         1 TEMP              0 ****  ****    0 ROOT
