@<TRIPOS>MOLECULE
241
   61    64     1     0     0
SMALL
bcc


@<TRIPOS>ATOM
      1 CAA        -0.0760   -2.4760    0.1370 c3        1 241      0.115700
      2 OAV         1.3120   -2.2340   -0.0480 os        1 241     -0.318900
      3 CBC         1.9440   -1.5190    0.9530 ca        1 241      0.134100
      4 CAM         1.2720   -0.9060    2.0210 ca        1 241     -0.181500
      5 CAO         2.0050   -0.1910    2.9610 ca        1 241     -0.045500
      6 CAN         3.3400   -1.4220    0.8280 ca        1 241     -0.181500
      7 CAP         4.0610   -0.7040    1.7780 ca        1 241     -0.045500
      8 CBF         3.3990   -0.0920    2.8510 ca        1 241     -0.203600
      9 CAZ         4.1030    0.7470    3.8460 c         1 241      0.712700
     10 OAE         3.5870    1.7960    4.2770 o         1 241     -0.587100
     11 NBK         5.3860    0.3920    4.3170 n         1 241     -0.255200
     12 CBB         5.9890   -0.8960    4.3990 cc        1 241      0.055400
     13 CAB         5.3330   -2.1550    4.0020 c3        1 241     -0.091900
     14 CBI         6.2950    1.3250    4.8680 ca        1 241      0.013600
     15 CAR         6.1910    2.7120    5.0420 ca        1 241     -0.111000
     16 CAQ         7.2650    3.3880    5.6050 ca        1 241     -0.136000
     17 CBE         8.4240    2.6860    5.9830 ca        1 241      0.041100
     18 OAX         9.4320    3.3610    6.6830 os        1 241     -0.367900
     19 CBL        10.3060    4.1630    5.9420 c3        1 241      0.813700
     20 FAI        10.9580    3.4840    4.9660 f         1 241     -0.225633
     21 FAG         9.6810    5.2340    5.3890 f         1 241     -0.225633
     22 FAH        11.2170    4.6160    6.8420 f         1 241     -0.225633
     23 CAT         8.5650    1.3080    5.8100 ca        1 241     -0.078000
     24 CBH         7.4920    0.6170    5.2580 ca        1 241     -0.062800
     25 CBG         7.2660   -0.7820    4.9540 cd        1 241     -0.143400
     26 CAU         8.2350   -1.8630    5.2120 c3        1 241      0.044100
     27 CBA         9.1170   -2.1420    4.0380 ca        1 241     -0.076300
     28 CAS         8.6490   -2.9530    3.0010 ca        1 241     -0.136000
     29 CAK        10.4050   -1.6010    3.9700 ca        1 241     -0.150000
     30 CAJ        11.2180   -1.8590    2.8680 ca        1 241     -0.134000
     31 CAL        10.7560   -2.6480    1.8170 ca        1 241     -0.160000
     32 CBD         9.4650   -3.1940    1.8870 ca        1 241      0.133100
     33 OAW         9.0660   -4.0680    0.8920 os        1 241     -0.356900
     34 CBJ         8.0820   -3.5370   -0.0260 c3        1 241      0.037100
     35 CAC         7.8450   -4.6520   -1.0250 c3        1 241     -0.079100
     36 CAY         6.7480   -3.1290    0.6340 c         1 241      0.892600
     37 OAD         6.2470   -2.0220    0.2790 o         1 241     -0.844300
     38 OAF         6.1890   -3.8950    1.4710 o         1 241     -0.844300
     39 HAA1       -0.2640   -3.0090    1.1000 h1        1 241      0.037033
     40 HAA2       -0.6510   -1.5190    0.1020 h1        1 241      0.037033
     41 HAA3       -0.3460   -3.1280   -0.7330 h1        1 241      0.037033
     42 HAM         0.1820   -0.9790    2.1240 ha        1 241      0.165500
     43 HAO         1.4910    0.3110    3.7960 ha        1 241      0.171000
     44 HAN         3.8890   -1.9310    0.0140 ha        1 241      0.165500
     45 HAP         5.1630   -0.6550    1.6540 ha        1 241      0.171000
     46 HAB1        4.2210   -2.1010    4.0920 hc        1 241      0.085033
     47 HAB2        5.5920   -2.4260    2.9330 hc        1 241      0.085033
     48 HAB3        5.7040   -2.9850    4.6560 hc        1 241      0.085033
     49 HAR         5.2770    3.2500    4.7470 ha        1 241      0.165000
     50 HAQ         7.2220    4.4760    5.7570 ha        1 241      0.142000
     51 HAT         9.4890    0.7890    6.1030 ha        1 241      0.150000
     52 HAU1        8.8690   -1.5770    6.0970 hc        1 241      0.046700
     53 HAU2        7.6830   -2.8050    5.4850 hc        1 241      0.046700
     54 HAS         7.6330   -3.3910    3.0270 ha        1 241      0.192000
     55 HAK        10.7740   -0.9600    4.7850 ha        1 241      0.114000
     56 HAJ        12.2280   -1.4280    2.8220 ha        1 241      0.113000
     57 HAL        11.3860   -2.8500    0.9410 ha        1 241      0.129000
     58 HBJ         8.5340   -2.6380   -0.5280 h1        1 241      0.035700
     59 HAC1        8.8070   -4.9850   -1.4820 hc        1 241      0.034033
     60 HAC2        7.3680   -5.5210   -0.5110 hc        1 241      0.034033
     61 HAC3        7.1630   -4.2790   -1.8250 hc        1 241      0.034033
@<TRIPOS>BOND
     1    1    2 1   
     2    1   39 1   
     3    1   40 1   
     4    1   41 1   
     5    2    3 1   
     6    3    4 ar  
     7    3    6 ar  
     8    4    5 ar  
     9    4   42 1   
    10    5    8 ar  
    11    5   43 1   
    12    6    7 ar  
    13    6   44 1   
    14    7    8 ar  
    15    7   45 1   
    16    8    9 1   
    17    9   10 2   
    18    9   11 1   
    19   11   12 1   
    20   11   14 1   
    21   12   13 1   
    22   12   25 2   
    23   13   46 1   
    24   13   47 1   
    25   13   48 1   
    26   14   15 ar  
    27   14   24 ar  
    28   15   16 ar  
    29   15   49 1   
    30   16   17 ar  
    31   16   50 1   
    32   17   18 1   
    33   17   23 ar  
    34   18   19 1   
    35   19   20 1   
    36   19   21 1   
    37   19   22 1   
    38   23   24 ar  
    39   23   51 1   
    40   24   25 1   
    41   25   26 1   
    42   26   27 1   
    43   26   52 1   
    44   26   53 1   
    45   27   28 ar  
    46   27   29 ar  
    47   28   32 ar  
    48   28   54 1   
    49   29   30 ar  
    50   29   55 1   
    51   30   31 ar  
    52   30   56 1   
    53   31   32 ar  
    54   31   57 1   
    55   32   33 1   
    56   33   34 1   
    57   34   35 1   
    58   34   36 1   
    59   34   58 1   
    60   35   59 1   
    61   35   60 1   
    62   35   61 1   
    63   36   37 1   
    64   36   38 1   
@<TRIPOS>SUBSTRUCTURE
     1 241         1 TEMP              0 ****  ****    0 ROOT
