@<TRIPOS>MOLECULE
242
   48    51     1     0     0
SMALL
bcc


@<TRIPOS>ATOM
      1 C4          0.1690   -0.7210    0.1120 ca        1 242      0.490200
      2 C2          1.5380   -0.2980    0.0200 ca        1 242     -0.322600
      3 C3          2.1740    0.0470    1.2530 ca        1 242      0.468600
      4 N2          1.5090   -0.0140    2.4540 nb        1 242     -0.763000
      5 C1          0.2010   -0.4020    2.4160 ca        1 242      0.873900
      6 N3         -0.5020   -0.7880    1.2410 nb        1 242     -0.730000
      7 C8          2.2430   -0.2260   -1.2000 ca        1 242     -0.057000
      8 C9          3.5600    0.1860   -1.2180 cp        1 242     -0.073000
      9 C10         4.2060    0.5230    0.0030 ca        1 242     -0.085000
     10 C11         3.5470    0.4580    1.2040 ca        1 242     -0.194300
     11 N15        -0.5370   -0.3680    3.6000 nh        1 242     -0.928500
     12 C16         4.3070    0.2510   -2.4780 cp        1 242     -0.046000
     13 C17         4.6200   -0.9450   -3.1350 ca        1 242     -0.062000
     14 C18         5.3400   -0.9270   -4.3330 ca        1 242     -0.159600
     15 C19         5.7350    0.2910   -4.8920 ca        1 242     -0.098000
     16 C20         5.4140    1.4810   -4.2460 ca        1 242     -0.141000
     17 C21         4.7030    1.4790   -3.0390 ca        1 242     -0.032300
     18 C25         4.3560    2.7670   -2.3950 c3        1 242     -0.063800
     19 C29         5.6280   -2.2320   -4.9980 c         1 242      0.685700
     20 O30         4.7730   -3.1340   -5.0540 o         1 242     -0.581100
     21 N31         6.9070   -2.3680   -5.5280 n         1 242     -0.471100
     22 C32         7.4410   -3.4870   -6.1840 ca        1 242      0.072600
     23 C33         8.8240   -3.4830   -6.4940 ca        1 242     -0.145000
     24 C34         9.3920   -4.5660   -7.1580 ca        1 242     -0.138300
     25 C35         8.6240   -5.6700   -7.5280 ca        1 242     -0.113000
     26 C36         7.2650   -5.6780   -7.2240 ca        1 242     -0.108000
     27 C37         6.6690   -4.6070   -6.5640 ca        1 242     -0.130000
     28 C5         10.8770   -4.5290   -7.4990 c3        1 242      0.686200
     29 F3         11.4750   -5.7630   -7.5910 f         1 242     -0.237633
     30 F1         11.1630   -3.9290   -8.7030 f         1 242     -0.237633
     31 F2         11.6560   -3.8460   -6.5960 f         1 242     -0.237633
     32 H4         -0.3740   -1.0200   -0.8060 h4        1 242      0.030100
     33 H8          1.7270   -0.5020   -2.1330 ha        1 242      0.142000
     34 H10         5.2620    0.8350   -0.0290 ha        1 242      0.140000
     35 H11         4.0590    0.7190    2.1430 ha        1 242      0.154000
     36 H151       -1.3890   -0.8780    3.6160 hn        1 242      0.431300
     37 H152       -0.0250   -0.3230    4.4500 hn        1 242      0.431300
     38 H17         4.2910   -1.9090   -2.7130 ha        1 242      0.159000
     39 H19         6.2790    0.3230   -5.8480 ha        1 242      0.138000
     40 H20         5.7190    2.4410   -4.6930 ha        1 242      0.141000
     41 H251        3.2770    3.0030   -2.5770 hc        1 242      0.053700
     42 H252        4.9730    3.6040   -2.8040 hc        1 242      0.053700
     43 H253        4.5170    2.7150   -1.2890 hc        1 242      0.053700
     44 HN31        7.5430   -1.6170   -5.3690 hn        1 242      0.322500
     45 H33         9.4660   -2.6320   -6.2120 ha        1 242      0.147000
     46 H35         9.0910   -6.5210   -8.0470 ha        1 242      0.153000
     47 H36         6.6480   -6.5440   -7.5100 ha        1 242      0.145000
     48 H37         5.5890   -4.6470   -6.3390 ha        1 242      0.180000
@<TRIPOS>BOND
     1    1    2 ar  
     2    1    6 ar  
     3    1   32 1   
     4    2    3 ar  
     5    2    7 ar  
     6    3    4 ar  
     7    3   10 ar  
     8    4    5 ar  
     9    5    6 ar  
    10    5   11 1   
    11    7    8 ar  
    12    7   33 1   
    13    8    9 ar  
    14    8   12 1   
    15    9   10 ar  
    16    9   34 1   
    17   10   35 1   
    18   11   36 1   
    19   11   37 1   
    20   12   13 ar  
    21   12   17 ar  
    22   13   14 ar  
    23   13   38 1   
    24   14   15 ar  
    25   14   19 1   
    26   15   16 ar  
    27   15   39 1   
    28   16   17 ar  
    29   16   40 1   
    30   17   18 1   
    31   18   41 1   
    32   18   42 1   
    33   18   43 1   
    34   19   20 2   
    35   19   21 1   
    36   21   22 1   
    37   21   44 1   
    38   22   23 ar  
    39   22   27 ar  
    40   23   24 ar  
    41   23   45 1   
    42   24   25 ar  
    43   24   28 1   
    44   25   26 ar  
    45   25   46 1   
    46   26   27 ar  
    47   26   47 1   
    48   27   48 1   
    49   28   29 1   
    50   28   30 1   
    51   28   31 1   
@<TRIPOS>SUBSTRUCTURE
     1 242         1 TEMP              0 ****  ****    0 ROOT
