@<TRIPOS>MOLECULE
242
   48    51     1     0     0
SMALL
bcc


@<TRIPOS>ATOM
      1 C4          0.1630   -0.6910    0.0980 ca        1 242      0.490200
      2 C2          1.5380   -0.2860    0.0180 ca        1 242     -0.322600
      3 C3          2.1730    0.0350    1.2570 ca        1 242      0.468600
      4 N2          1.5020   -0.0290    2.4540 nb        1 242     -0.763000
      5 C1          0.1880   -0.3980    2.4060 ca        1 242      0.873900
      6 N3         -0.5140   -0.7610    1.2230 nb        1 242     -0.730000
      7 C8          2.2500   -0.2100   -1.1980 ca        1 242     -0.057000
      8 C9          3.5730    0.1830   -1.2050 cp        1 242     -0.073000
      9 C10         4.2180    0.4960    0.0220 ca        1 242     -0.085000
     10 C11         3.5520    0.4270    1.2190 ca        1 242     -0.194300
     11 N15        -0.5540   -0.3670    3.5870 nv        1 242     -0.928500
     12 C16         4.3270    0.2520   -2.4610 cp        1 242     -0.046000
     13 C17         4.6260   -0.9410   -3.1310 ca        1 242     -0.062000
     14 C18         5.3510   -0.9200   -4.3250 ca        1 242     -0.159600
     15 C19         5.7670    0.2990   -4.8680 ca        1 242     -0.098000
     16 C20         5.4590    1.4860   -4.2100 ca        1 242     -0.141000
     17 C21         4.7420    1.4800   -3.0060 ca        1 242     -0.032300
     18 C25         4.4110    2.7660   -2.3490 c3        1 242     -0.063800
     19 C29         5.6250   -2.2210   -5.0030 c         1 242      0.685700
     20 O30         4.7580   -3.1100   -5.0720 o         1 242     -0.581100
     21 N31         6.9040   -2.3680   -5.5300 ns        1 242     -0.471100
     22 C32         7.4260   -3.4860   -6.1970 ca        1 242      0.072600
     23 C33         8.8080   -3.4940   -6.5060 ca        1 242     -0.145000
     24 C34         9.3640   -4.5770   -7.1820 ca        1 242     -0.138300
     25 C35         8.5850   -5.6690   -7.5620 ca        1 242     -0.113000
     26 C36         7.2250   -5.6640   -7.2590 ca        1 242     -0.108000
     27 C37         6.6410   -4.5940   -6.5880 ca        1 242     -0.130000
     28 C5         10.8510   -4.5530   -7.5220 c3        1 242      0.686200
     29 F3         11.4350   -5.7920   -7.6250 f         1 242     -0.237633
     30 F1         11.1430   -3.9460   -8.7210 f         1 242     -0.237633
     31 F2         11.6360   -3.8860   -6.6130 f         1 242     -0.237633
     32 H4         -0.3800   -0.9710   -0.8260 h4        1 242      0.030100
     33 H8          1.7340   -0.4680   -2.1360 ha        1 242      0.142000
     34 H10         5.2780    0.7940   -0.0020 ha        1 242      0.140000
     35 H11         4.0640    0.6700    2.1640 ha        1 242      0.154000
     36 H151       -1.4140   -0.8650    3.5930 hn        1 242      0.431300
     37 H152       -0.0460   -0.3390    4.4390 hn        1 242      0.431300
     38 H17         4.2820   -1.9050   -2.7210 ha        1 242      0.159000
     39 H19         6.3150    0.3350   -5.8210 ha        1 242      0.138000
     40 H20         5.7790    2.4460   -4.6440 ha        1 242      0.141000
     41 H251        3.3360    3.0190   -2.5320 hc        1 242      0.053700
     42 H252        4.5670    2.6980   -1.2430 hc        1 242      0.053700
     43 H253        5.0410    3.5990   -2.7460 hc        1 242      0.053700
     44 HN31        7.5500   -1.6270   -5.3610 hn        1 242      0.322500
     45 H33         9.4600   -2.6540   -6.2160 ha        1 242      0.147000
     46 H35         9.0430   -6.5200   -8.0900 ha        1 242      0.153000
     47 H36         6.5990   -6.5210   -7.5530 ha        1 242      0.145000
     48 H37         5.5610   -4.6240   -6.3640 ha        1 242      0.180000
@<TRIPOS>BOND
     1    1    2 ar  
     2    1    6 ar  
     3    1   32 1   
     4    2    3 ar  
     5    2    7 ar  
     6    3    4 ar  
     7    3   10 ar  
     8    4    5 ar  
     9    5    6 ar  
    10    5   11 1   
    11    7    8 ar  
    12    7   33 1   
    13    8    9 ar  
    14    8   12 1   
    15    9   10 ar  
    16    9   34 1   
    17   10   35 1   
    18   11   36 1   
    19   11   37 1   
    20   12   13 ar  
    21   12   17 ar  
    22   13   14 ar  
    23   13   38 1   
    24   14   15 ar  
    25   14   19 1   
    26   15   16 ar  
    27   15   39 1   
    28   16   17 ar  
    29   16   40 1   
    30   17   18 1   
    31   18   41 1   
    32   18   42 1   
    33   18   43 1   
    34   19   20 2   
    35   19   21 1   
    36   21   22 1   
    37   21   44 1   
    38   22   23 ar  
    39   22   27 ar  
    40   23   24 ar  
    41   23   45 1   
    42   24   25 ar  
    43   24   28 1   
    44   25   26 ar  
    45   25   46 1   
    46   26   27 ar  
    47   26   47 1   
    48   27   48 1   
    49   28   29 1   
    50   28   30 1   
    51   28   31 1   
@<TRIPOS>SUBSTRUCTURE
     1 242         1 TEMP              0 ****  ****    0 ROOT
