@<TRIPOS>MOLECULE
242
   48    41     1     0     0
SMALL
bcc


@<TRIPOS>ATOM
      1 C4         -4.7020    1.4980    3.1160 c1        1 242      0.025000
      2 C2         -3.3150    1.5390    3.0870 c1        1 242     -0.192000
      3 C3         -2.6160    1.6030    4.2500 c1        1 242      0.075000
      4 N2         -3.2780    1.6260    5.4430 n1        1 242     -0.237000
      5 C1         -4.6440    1.5860    5.4680 c1        1 242      0.155000
      6 N3         -5.3510    1.5210    4.2940 n1        1 242     -0.203000
      7 C8         -2.6300    1.5120    1.8500 c2        1 242     -0.056000
      8 C9         -1.2440    1.5500    1.8240 c1        1 242     -0.074000
      9 C10        -0.5310    1.6160    3.0090 c1        1 242     -0.085000
     10 C11        -1.2020    1.6420    4.2230 c2        1 242     -0.129000
     11 N15        -5.4340    1.4650    6.6470 n3        1 242     -0.326000
     12 C16        -0.3510    1.5500    0.7530 c1        1 242     -0.046000
     13 C17         0.1450    0.3480    0.2620 c1        1 242     -0.062000
     14 C18         1.0590    0.3490   -0.7840 c1        1 242     -0.138000
     15 C19         1.4760    1.5500   -1.3380 c1        1 242     -0.115000
     16 C20         0.9800    2.7510   -0.8470 c1        1 242     -0.115000
     17 C21         0.0670    2.7500    0.1980 c1        1 242     -0.025000
     18 C25        -0.4840    4.0620    0.7250 c3        1 242     -0.189000
     19 C29         1.5450   -0.9730   -1.3740 c2        1 242      0.357000
     20 O30         1.1120   -2.0240   -0.9470 o         1 242     -0.336000
     21 N31         2.4820   -0.9730   -2.4470 n         1 242     -0.325000
     22 C32         2.9080   -2.1980   -3.0130 c2        1 242      0.081000
     23 C33         2.2060   -2.7530   -4.0710 c2        1 242     -0.114000
     24 C34         2.6630   -3.9180   -4.6730 c1        1 242     -0.132000
     25 C35         3.8220   -4.5260   -4.2160 c1        1 242     -0.115000
     26 C36         4.5250   -3.9690   -3.1560 c1        1 242     -0.115000
     27 C37         4.0690   -2.8070   -2.5560 c1        1 242     -0.162000
     28 C5          1.9250   -4.4950   -5.8660 c3        1 242      0.466000
     29 F3          2.3730   -5.7340   -6.1120 f         1 242     -0.165000
     30 F1          0.6140   -4.5400   -5.6000 f         1 242     -0.165000
     31 F2          2.1370   -3.7210   -6.9400 f         1 242     -0.165000
     32 H4         -5.2060    1.4520    2.2810 ha        1 242      0.167000
     33 H8         -3.1320    1.4660    1.0140 ha        1 242      0.143000
     34 H10         0.4450    1.6430    2.9900 ha        1 242      0.139000
     35 H11        -0.6980    1.6880    5.0590 ha        1 242      0.154000
     36 H151       -6.3420    1.3760    6.5820 hn        1 242      0.226500
     37 H152       -5.0340    1.4830    7.4700 hn        1 242      0.226500
     38 H17        -0.1490   -0.4950    0.6520 ha        1 242      0.160000
     39 H19         2.1180    1.5510   -2.0720 ha        1 242      0.143000
     40 H20         1.2740    3.5970   -1.2370 ha        1 242      0.143000
     41 H251       -1.4370    4.1310    0.5000 hc        1 242      0.092667
     42 H252        0.0030    4.8090    0.3170 hc        1 242      0.092667
     43 H253       -0.3750    4.0950    1.7000 hc        1 242      0.092667
     44 HN31        2.7660   -0.2000   -2.7900 hn        1 242      0.235000
     45 H33         1.3910   -2.3250   -4.3920 ha        1 242      0.191000
     46 H35         4.1440   -5.3460   -4.6390 ha        1 242      0.143000
     47 H36         5.3420   -4.3980   -2.8340 ha        1 242      0.143000
     48 H37         4.5640   -2.4160   -1.8110 ha        1 242      0.135000
@<TRIPOS>BOND
     1    1    6 1   
     2    1   32 1   
     3    2    3 1   
     4    2    7 1   
     5    3   10 1   
     6    4    5 1   
     7    5   11 1   
     8    7    8 1   
     9    7   33 1   
    10    9   10 1   
    11    9   34 1   
    12   10   35 1   
    13   11   36 1   
    14   11   37 1   
    15   12   17 1   
    16   13   14 1   
    17   13   38 1   
    18   14   19 1   
    19   15   16 1   
    20   15   39 1   
    21   16   40 1   
    22   17   18 1   
    23   18   41 1   
    24   18   42 1   
    25   18   43 1   
    26   19   20 1   
    27   19   21 1   
    28   21   22 1   
    29   21   44 1   
    30   22   23 1   
    31   22   27 1   
    32   23   24 1   
    33   23   45 1   
    34   24   28 1   
    35   25   26 1   
    36   25   46 1   
    37   26   47 1   
    38   27   48 1   
    39   28   29 1   
    40   28   30 1   
    41   28   31 1   
@<TRIPOS>SUBSTRUCTURE
     1 242         1 TEMP              0 ****  ****    0 ROOT
