@<TRIPOS>MOLECULE
242
   50    53     1     0     0
SMALL
bcc


@<TRIPOS>ATOM
      1 C4          1.0600    1.6270    0.5450 ca        1 242      0.509200
      2 C2          1.8050    0.4580    0.1570 ca        1 242     -0.243600
      3 C3          1.5440   -0.7470    0.8870 ca        1 242      0.418600
      4 N2          0.6200   -0.7690    1.9180 nb        1 242     -0.626000
      5 C1          0.0020    0.3930    2.1740 ca        1 242      0.694900
      6 N3          0.1730    1.6260    1.5260 nb        1 242     -0.676000
      7 C8          2.7550    0.4650   -0.8850 ca        1 242     -0.077000
      8 C9          3.4390   -0.6950   -1.2110 cp        1 242     -0.011000
      9 C10         3.1760   -1.8920   -0.4930 ca        1 242     -0.082000
     10 C11         2.2590   -1.9310    0.5320 ca        1 242     -0.143300
     11 N15        -0.9970    0.4020    3.2840 n4        1 242     -0.814300
     12 C16         4.4260   -0.7200   -2.2960 cp        1 242     -0.072000
     13 C17         4.2810   -1.6840   -3.3020 ca        1 242     -0.025000
     14 C18         5.1970   -1.7550   -4.3640 ca        1 242     -0.205600
     15 C19         6.2820   -0.8650   -4.4040 ca        1 242     -0.065000
     16 C20         6.4310    0.0830   -3.4020 ca        1 242     -0.128000
     17 C21         5.5120    0.1750   -2.3410 ca        1 242      0.032700
     18 C25         5.7350    1.2080   -1.3040 c3        1 242     -0.088800
     19 C29         4.9730   -2.8040   -5.3560 c         1 242      0.582700
     20 O30         4.2950   -3.8170   -5.2430 o         1 242     -0.428100
     21 N31         5.6020   -2.6220   -6.7320 n4        1 242     -0.542200
     22 C32         6.9240   -3.2480   -6.8280 ca        1 242     -0.066400
     23 C33         8.0470   -2.4570   -7.1230 ca        1 242     -0.071000
     24 C34         9.2930   -3.0740   -7.2340 ca        1 242     -0.147300
     25 C35         9.4310   -4.4530   -7.0710 ca        1 242     -0.022000
     26 C36         8.3050   -5.2300   -6.7840 ca        1 242     -0.100000
     27 C37         7.0510   -4.6410   -6.6580 ca        1 242     -0.074000
     28 C5         10.5190   -2.2000   -7.5280 c3        1 242      0.691200
     29 F3         11.5820   -2.8820   -8.0540 f         1 242     -0.213967
     30 F1         10.2640   -1.1820   -8.4130 f         1 242     -0.213967
     31 F2         11.0080   -1.5720   -6.4090 f         1 242     -0.213967
     32 H4          1.2090    2.5940    0.0190 h4        1 242      0.074100
     33 H8          2.9450    1.4040   -1.4320 ha        1 242      0.165000
     34 H10         3.7320   -2.8070   -0.7620 ha        1 242      0.168000
     35 H11         2.0720   -2.8680    1.0850 ha        1 242      0.184000
     36 H151       -1.9110    0.6870    2.9080 hn        1 242      0.485467
     37 H152       -0.6970    1.0810    3.9970 hn        1 242      0.485467
     38 H17         3.4380   -2.3980   -3.2610 ha        1 242      0.169000
     39 H19         7.0430   -0.9210   -5.1990 ha        1 242      0.143000
     40 H20         7.2910    0.7750   -3.4290 ha        1 242      0.176000
     41 H251        5.2490    0.9320   -0.3360 hc        1 242      0.075033
     42 H252        6.8300    1.3530   -1.1190 hc        1 242      0.075033
     43 H253        5.3120    2.1870   -1.6490 hc        1 242      0.075033
     44 HN31        5.6770   -1.6220   -6.9470 hn        1 242      0.468300
     45 H33         7.9730   -1.3670   -7.2870 ha        1 242      0.167000
     46 H35        10.4260   -4.9270   -7.1760 ha        1 242      0.195000
     47 H36         8.4100   -6.3220   -6.6580 ha        1 242      0.187000
     48 H37         6.1700   -5.2680   -6.4280 ha        1 242      0.175000
     49 H153       -1.0730   -0.5330    3.7080 hn        1 242      0.485467
     50 H312        4.9890   -3.0710   -7.4310 hn        1 242      0.468300
@<TRIPOS>BOND
     1    1    2 ar  
     2    1    6 ar  
     3    1   32 1   
     4    2    3 ar  
     5    2    7 ar  
     6    3    4 ar  
     7    3   10 ar  
     8    4    5 ar  
     9    5    6 ar  
    10    5   11 1   
    11    7    8 ar  
    12    7   33 1   
    13    8    9 ar  
    14    8   12 1   
    15    9   10 ar  
    16    9   34 1   
    17   10   35 1   
    18   11   36 1   
    19   11   37 1   
    20   11   49 1   
    21   12   13 ar  
    22   12   17 ar  
    23   13   14 ar  
    24   13   38 1   
    25   14   15 ar  
    26   14   19 1   
    27   15   16 ar  
    28   15   39 1   
    29   16   17 ar  
    30   16   40 1   
    31   17   18 1   
    32   18   41 1   
    33   18   42 1   
    34   18   43 1   
    35   19   20 2   
    36   19   21 1   
    37   21   22 1   
    38   21   44 1   
    39   21   50 1   
    40   22   23 ar  
    41   22   27 ar  
    42   23   24 ar  
    43   23   45 1   
    44   24   25 ar  
    45   24   28 1   
    46   25   26 ar  
    47   25   46 1   
    48   26   27 ar  
    49   26   47 1   
    50   27   48 1   
    51   28   29 1   
    52   28   30 1   
    53   28   31 1   
@<TRIPOS>SUBSTRUCTURE
     1 242         1 TEMP              0 ****  ****    0 ROOT
