@<TRIPOS>MOLECULE
242
   48    51     1     0     0
SMALL
bcc


@<TRIPOS>ATOM
      1 C4          3.0820   -0.7060    3.3810 ca        1 242      0.489200
      2 C2          2.7290   -0.5450    1.9980 ca        1 242     -0.323600
      3 C3          3.0460    0.7190    1.4100 ca        1 242      0.469600
      4 N2          3.6550    1.7200    2.1280 nb        1 242     -0.763000
      5 C1          3.9690    1.4450    3.4280 ca        1 242      0.875900
      6 N3          3.6700    0.2260    4.0980 nb        1 242     -0.730000
      7 C8          2.1010   -1.5560    1.2400 ca        1 242     -0.058000
      8 C9          1.7840   -1.3350   -0.0850 cp        1 242     -0.072000
      9 C10         2.0980   -0.0830   -0.6810 ca        1 242     -0.084000
     10 C11         2.7050    0.9190    0.0320 ca        1 242     -0.193300
     11 N15         4.6840    2.3960    4.1540 nh        1 242     -0.931500
     12 C16         1.1480   -2.3750   -0.8990 cp        1 242     -0.047000
     13 C17         1.9140   -3.0280   -1.8730 ca        1 242     -0.061000
     14 C18         1.3430   -4.0220   -2.6730 ca        1 242     -0.158600
     15 C19         0.0040   -4.3810   -2.4920 ca        1 242     -0.098000
     16 C20        -0.7570   -3.7340   -1.5230 ca        1 242     -0.141000
     17 C21        -0.2030   -2.7260   -0.7240 ca        1 242     -0.033300
     18 C25        -1.0510   -2.0400    0.2780 c3        1 242     -0.062800
     19 C29         2.2120   -4.6970   -3.6810 c         1 242      0.684700
     20 O30         3.3860   -5.0120   -3.4180 o         1 242     -0.578100
     21 N31         1.6260   -4.9290   -4.9220 n         1 242     -0.471100
     22 C32         2.2180   -5.5280   -6.0440 ca        1 242      0.073600
     23 C33         1.4970   -5.5210   -7.2630 ca        1 242     -0.145000
     24 C34         2.0410   -6.1160   -8.3970 ca        1 242     -0.138300
     25 C35         3.2950   -6.7240   -8.3640 ca        1 242     -0.113000
     26 C36         4.0070   -6.7320   -7.1660 ca        1 242     -0.108000
     27 C37         3.4870   -6.1480   -6.0150 ca        1 242     -0.130000
     28 C5          1.2360   -6.1140   -9.6930 c3        1 242      0.686200
     29 F3          1.9930   -6.1580  -10.8380 f         1 242     -0.237967
     30 F1          0.3750   -7.1780   -9.8210 f         1 242     -0.237967
     31 F2          0.4310   -5.0140   -9.8650 f         1 242     -0.237967
     32 H4          2.8510   -1.6570    3.8980 h4        1 242      0.028100
     33 H8          1.8760   -2.5210    1.7200 ha        1 242      0.140000
     34 H10         1.8430    0.0720   -1.7420 ha        1 242      0.140000
     35 H11         2.9420    1.8840   -0.4420 ha        1 242      0.155000
     36 H151        4.6970    2.3000    5.1410 hn        1 242      0.433300
     37 H152        4.7150    3.3180    3.7880 hn        1 242      0.433300
     38 H17         2.9780   -2.7690   -2.0050 ha        1 242      0.160000
     39 H19        -0.4510   -5.1830   -3.0920 ha        1 242      0.138000
     40 H20        -1.8100   -4.0200   -1.3800 ha        1 242      0.140000
     41 H251       -0.4880   -1.8810    1.2320 hc        1 242      0.053033
     42 H252       -1.3630   -1.0370   -0.1120 hc        1 242      0.053033
     43 H253       -1.9720   -2.6320    0.5030 hc        1 242      0.053033
     44 HN31        0.7030   -4.5780   -5.0580 hn        1 242      0.322500
     45 H33         0.5060   -5.0440   -7.3330 ha        1 242      0.147000
     46 H35         3.7130   -7.1850   -9.2720 ha        1 242      0.153000
     47 H36         5.0000   -7.2090   -7.1260 ha        1 242      0.145000
     48 H37         4.0790   -6.1730   -5.0840 ha        1 242      0.181000
@<TRIPOS>BOND
     1    1    2 ar  
     2    1    6 ar  
     3    1   32 1   
     4    2    3 ar  
     5    2    7 ar  
     6    3    4 ar  
     7    3   10 ar  
     8    4    5 ar  
     9    5    6 ar  
    10    5   11 1   
    11    7    8 ar  
    12    7   33 1   
    13    8    9 ar  
    14    8   12 1   
    15    9   10 ar  
    16    9   34 1   
    17   10   35 1   
    18   11   36 1   
    19   11   37 1   
    20   12   13 ar  
    21   12   17 ar  
    22   13   14 ar  
    23   13   38 1   
    24   14   15 ar  
    25   14   19 1   
    26   15   16 ar  
    27   15   39 1   
    28   16   17 ar  
    29   16   40 1   
    30   17   18 1   
    31   18   41 1   
    32   18   42 1   
    33   18   43 1   
    34   19   20 2   
    35   19   21 1   
    36   21   22 1   
    37   21   44 1   
    38   22   23 ar  
    39   22   27 ar  
    40   23   24 ar  
    41   23   45 1   
    42   24   25 ar  
    43   24   28 1   
    44   25   26 ar  
    45   25   46 1   
    46   26   27 ar  
    47   26   47 1   
    48   27   48 1   
    49   28   29 1   
    50   28   30 1   
    51   28   31 1   
@<TRIPOS>SUBSTRUCTURE
     1 242         1 TEMP              0 ****  ****    0 ROOT
