@<TRIPOS>MOLECULE
243
   52    51     1     0     0
SMALL
bcc


@<TRIPOS>ATOM
      1 OAS         1.8310    2.2750    2.1580 o         1 243     -0.852800
      2 CAA         3.0140    1.9380    1.8640 c         1 243      0.907600
      3 OAT         4.0440    2.4870    2.3520 o         1 243     -0.852800
      4 CAB         3.2010    0.7770    0.8710 c3        1 243     -0.194400
      5 CAC         4.2500    1.1040   -0.1640 c3        1 243     -0.065400
      6 CAD         4.5810   -0.0940   -1.0290 c3        1 243     -0.078400
      7 CAE         5.6200    0.2490   -2.0760 c3        1 243     -0.079400
      8 CAF         5.9590   -0.9510   -2.9340 c3        1 243     -0.079400
      9 CAG         6.9960   -0.6060   -3.9820 c3        1 243     -0.078400
     10 CAH         7.3320   -1.8110   -4.8370 c3        1 243     -0.061200
     11 CAI         8.3440   -1.5020   -5.8730 c2        1 243     -0.122200
     12 CAJ         8.7930   -2.3670   -6.7940 ce        1 243     -0.187000
     13 CAK         8.3620   -3.7440   -6.8980 ce        1 243     -0.098000
     14 CAL         8.6420   -4.5830   -7.9040 c2        1 243     -0.228200
     15 CAM         9.4290   -4.2950   -9.1390 c3        1 243      0.180300
     16 OAU         9.2570   -2.9740   -9.6470 oh        1 243     -0.607800
     17 CAN        10.9250   -4.4880   -8.8860 c3        1 243     -0.073400
     18 CAO        11.7030   -4.5110  -10.1830 c3        1 243     -0.078400
     19 CAP        13.1890   -4.6460   -9.9280 c3        1 243     -0.078400
     20 CAQ        13.9690   -4.6800  -11.2260 c3        1 243     -0.079400
     21 CAR        15.4490   -4.8090  -10.9790 c3        1 243     -0.092100
     22 HAB         3.5100   -0.1260    1.4570 hc        1 243      0.018700
     23 HABA        2.2240    0.5490    0.3780 hc        1 243      0.018700
     24 HAC         3.8850    1.9440   -0.8110 hc        1 243      0.044200
     25 HACA        5.1720    1.4680    0.3620 hc        1 243      0.044200
     26 HAD         4.9620   -0.9290   -0.3840 hc        1 243      0.026700
     27 HADA        3.6500   -0.4650   -1.5330 hc        1 243      0.026700
     28 HAE         6.5480    0.6260   -1.5710 hc        1 243      0.037700
     29 HAEA        5.2370    1.0800   -2.7250 hc        1 243      0.037700
     30 HAF         5.0290   -1.3290   -3.4350 hc        1 243      0.035200
     31 HAFA        6.3440   -1.7800   -2.2830 hc        1 243      0.035200
     32 HAG         6.6110    0.2230   -4.6330 hc        1 243      0.041200
     33 HAGA        7.9260   -0.2280   -3.4800 hc        1 243      0.041200
     34 HAH         7.7130   -2.6390   -4.1770 hc        1 243      0.051200
     35 HAHA        6.3940   -2.1920   -5.3260 hc        1 243      0.051200
     36 HAI         8.7380   -0.4700   -5.8610 ha        1 243      0.126000
     37 HAJ         9.5540   -2.0430   -7.5290 ha        1 243      0.139000
     38 HAK         7.7510   -4.1140   -6.0510 ha        1 243      0.124000
     39 HAL         8.2800   -5.6250   -7.8520 ha        1 243      0.122000
     40 HAM         9.0940   -5.0070   -9.9530 h1        1 243      0.034700
     41 HOAU        8.3580   -2.7000   -9.4320 ho        1 243      0.408000
     42 HAN        11.2930   -3.6520   -8.2360 hc        1 243      0.050700
     43 HANA       11.0720   -5.4500   -8.3310 hc        1 243      0.050700
     44 HAO        11.3510   -5.3650  -10.8200 hc        1 243      0.046200
     45 HAOA       11.4960   -3.5660  -10.7510 hc        1 243      0.046200
     46 HAP        13.3890   -5.5830   -9.3450 hc        1 243      0.038700
     47 HAPA       13.5420   -3.7840   -9.3020 hc        1 243      0.038700
     48 HAQ        13.7640   -3.7440  -11.8090 hc        1 243      0.037700
     49 HAQA       13.6140   -5.5420  -11.8510 hc        1 243      0.037700
     50 HAR        16.0050   -4.8330  -11.9470 hc        1 243      0.030700
     51 HARA       15.6750   -5.7490  -10.4190 hc        1 243      0.030700
     52 HARB       15.8250   -3.9460  -10.3780 hc        1 243      0.030700
@<TRIPOS>BOND
     1    1    2 1   
     2    2    3 1   
     3    2    4 1   
     4    4    5 1   
     5    4   22 1   
     6    4   23 1   
     7    5    6 1   
     8    5   24 1   
     9    5   25 1   
    10    6    7 1   
    11    6   26 1   
    12    6   27 1   
    13    7    8 1   
    14    7   28 1   
    15    7   29 1   
    16    8    9 1   
    17    8   30 1   
    18    8   31 1   
    19    9   10 1   
    20    9   32 1   
    21    9   33 1   
    22   10   11 1   
    23   10   34 1   
    24   10   35 1   
    25   11   12 2   
    26   11   36 1   
    27   12   13 1   
    28   12   37 1   
    29   13   14 2   
    30   13   38 1   
    31   14   15 1   
    32   14   39 1   
    33   15   16 1   
    34   15   17 1   
    35   15   40 1   
    36   16   41 1   
    37   17   18 1   
    38   17   42 1   
    39   17   43 1   
    40   18   19 1   
    41   18   44 1   
    42   18   45 1   
    43   19   20 1   
    44   19   46 1   
    45   19   47 1   
    46   20   21 1   
    47   20   48 1   
    48   20   49 1   
    49   21   50 1   
    50   21   51 1   
    51   21   52 1   
@<TRIPOS>SUBSTRUCTURE
     1 243         1 TEMP              0 ****  ****    0 ROOT
