@<TRIPOS>MOLECULE
243
   52    51     1     0     0
SMALL
bcc


@<TRIPOS>ATOM
      1 OAS         1.8560    2.3220    2.1550 o         1 243     -0.852800
      2 CAA         3.0360    1.9660    1.8670 c         1 243      0.907600
      3 OAT         4.0710    2.4930    2.3700 o         1 243     -0.852800
      4 CAB         3.2110    0.8110    0.8660 c3        1 243     -0.194400
      5 CAC         4.2730    1.1280   -0.1570 c3        1 243     -0.065400
      6 CAD         4.5910   -0.0670   -1.0310 c3        1 243     -0.078400
      7 CAE         5.6440    0.2670   -2.0660 c3        1 243     -0.079400
      8 CAF         5.9690   -0.9310   -2.9330 c3        1 243     -0.079400
      9 CAG         7.0200   -0.5950   -3.9680 c3        1 243     -0.078400
     10 CAH         7.3410   -1.7980   -4.8320 c3        1 243     -0.061200
     11 CAI         8.3660   -1.4980   -5.8580 c2        1 243     -0.122200
     12 CAJ         8.8040   -2.3620   -6.7860 ce        1 243     -0.187000
     13 CAK         8.3450   -3.7280   -6.9100 ce        1 243     -0.098000
     14 CAL         8.6120   -4.5600   -7.9250 c2        1 243     -0.228200
     15 CAM         9.4110   -4.2720   -9.1530 c3        1 243      0.180300
     16 OAU         9.2710   -2.9420   -9.6440 oh        1 243     -0.607800
     17 CAN        10.9020   -4.5020   -8.8960 c3        1 243     -0.073400
     18 CAO        11.6850   -4.5260  -10.1900 c3        1 243     -0.078400
     19 CAP        13.1660   -4.6960   -9.9310 c3        1 243     -0.078400
     20 CAQ        13.9500   -4.7310  -11.2260 c3        1 243     -0.079400
     21 CAR        15.4270   -4.8960  -10.9740 c3        1 243     -0.092100
     22 HAB         2.2330    0.6050    0.3630 hc        1 243      0.018700
     23 HABA        3.4990   -0.1030    1.4460 hc        1 243      0.018700
     24 HAC         5.1980    1.4710    0.3800 hc        1 243      0.044200
     25 HACA        3.9300    1.9810   -0.8000 hc        1 243      0.044200
     26 HAD         4.9510   -0.9150   -0.3910 hc        1 243      0.026700
     27 HADA        3.6570   -0.4170   -1.5460 hc        1 243      0.026700
     28 HAE         6.5750    0.6220   -1.5500 hc        1 243      0.037700
     29 HAEA        5.2820    1.1110   -2.7100 hc        1 243      0.037700
     30 HAF         5.0360   -1.2870   -3.4450 hc        1 243      0.035200
     31 HAFA        6.3330   -1.7740   -2.2870 hc        1 243      0.035200
     32 HAG         6.6560    0.2470   -4.6140 hc        1 243      0.041200
     33 HAGA        7.9530   -0.2400   -3.4550 hc        1 243      0.041200
     34 HAH         7.7020   -2.6390   -4.1780 hc        1 243      0.051200
     35 HAHA        6.4000   -2.1570   -5.3320 hc        1 243      0.051200
     36 HAI         8.7820   -0.4750   -5.8300 ha        1 243      0.126000
     37 HAJ         9.5760   -2.0450   -7.5120 ha        1 243      0.139000
     38 HAK         7.7230   -4.0960   -6.0710 ha        1 243      0.124000
     39 HAL         8.2290   -5.5940   -7.8880 ha        1 243      0.122000
     40 HAM         9.0640   -4.9660   -9.9770 h1        1 243      0.033700
     41 HOAU        8.3770   -2.6510   -9.4290 ho        1 243      0.408000
     42 HAN        11.0240   -5.4750   -8.3530 hc        1 243      0.050700
     43 HANA       11.2850   -3.6830   -8.2340 hc        1 243      0.050700
     44 HAO        11.3170   -5.3630  -10.8400 hc        1 243      0.046200
     45 HAOA       11.5010   -3.5680  -10.7470 hc        1 243      0.046200
     46 HAP        13.5350   -3.8510   -9.2920 hc        1 243      0.038700
     47 HAPA       13.3420   -5.6450   -9.3590 hc        1 243      0.038700
     48 HAQ        13.7690   -3.7830  -11.7970 hc        1 243      0.038200
     49 HAQA       13.5800   -5.5770  -11.8640 hc        1 243      0.038200
     50 HAR        15.8190   -4.0500  -10.3600 hc        1 243      0.030700
     51 HARA       15.6300   -5.8480  -10.4250 hc        1 243      0.030700
     52 HARB       15.9860   -4.9200  -11.9400 hc        1 243      0.030700
@<TRIPOS>BOND
     1    1    2 1   
     2    2    3 1   
     3    2    4 1   
     4    4    5 1   
     5    4   22 1   
     6    4   23 1   
     7    5    6 1   
     8    5   24 1   
     9    5   25 1   
    10    6    7 1   
    11    6   26 1   
    12    6   27 1   
    13    7    8 1   
    14    7   28 1   
    15    7   29 1   
    16    8    9 1   
    17    8   30 1   
    18    8   31 1   
    19    9   10 1   
    20    9   32 1   
    21    9   33 1   
    22   10   11 1   
    23   10   34 1   
    24   10   35 1   
    25   11   12 2   
    26   11   36 1   
    27   12   13 1   
    28   12   37 1   
    29   13   14 2   
    30   13   38 1   
    31   14   15 1   
    32   14   39 1   
    33   15   16 1   
    34   15   17 1   
    35   15   40 1   
    36   16   41 1   
    37   17   18 1   
    38   17   42 1   
    39   17   43 1   
    40   18   19 1   
    41   18   44 1   
    42   18   45 1   
    43   19   20 1   
    44   19   46 1   
    45   19   47 1   
    46   20   21 1   
    47   20   48 1   
    48   20   49 1   
    49   21   50 1   
    50   21   51 1   
    51   21   52 1   
@<TRIPOS>SUBSTRUCTURE
     1 243         1 TEMP              0 ****  ****    0 ROOT
