@<TRIPOS>MOLECULE
243
   52    51     1     0     0
SMALL
bcc


@<TRIPOS>ATOM
      1 OAS        -9.8340   -1.2200   -0.8050 o         1 243     -0.853300
      2 CAA        -8.8290   -0.6860   -1.3560 c         1 243      0.907600
      3 OAT        -8.9070    0.1450   -2.3070 o         1 243     -0.853300
      4 CAB        -7.4340   -1.0960   -0.8510 c3        1 243     -0.194400
      5 CAC        -6.5440    0.1080   -0.6630 c3        1 243     -0.065400
      6 CAD        -5.1140   -0.2880   -0.3550 c3        1 243     -0.078400
      7 CAE        -4.2350    0.9280   -0.1580 c3        1 243     -0.078400
      8 CAF        -2.8010    0.5370    0.1300 c3        1 243     -0.079400
      9 CAG        -1.9250    1.7580    0.3160 c3        1 243     -0.078400
     10 CAH        -0.4870    1.3670    0.5910 c3        1 243     -0.060200
     11 CAI         0.3910    2.5470    0.7590 c2        1 243     -0.125200
     12 CAJ         1.7230    2.5040    0.9130 ce        1 243     -0.172000
     13 CAK         2.5090    1.2890    0.9410 ce        1 243     -0.106000
     14 CAL         3.8460    1.2850    1.0200 c2        1 243     -0.223200
     15 CAM         4.6790    0.0460    1.0650 c3        1 243      0.173300
     16 OAU         3.9450   -1.1310    0.7610 oh        1 243     -0.594800
     17 CAN         5.8900    0.1880    0.1420 c3        1 243     -0.106400
     18 CAO         6.8400   -0.9790    0.3030 c3        1 243     -0.080400
     19 CAP         7.9830   -0.8990   -0.6840 c3        1 243     -0.078400
     20 CAQ         8.9410   -2.0580   -0.5110 c3        1 243     -0.080400
     21 CAR        10.0790   -1.9880   -1.4960 c3        1 243     -0.092100
     22 HAB        -7.5380   -1.6580    0.1110 hc        1 243      0.018700
     23 HABA       -6.9860   -1.7890   -1.6080 hc        1 243      0.018700
     24 HAC        -6.5800    0.7300   -1.5980 hc        1 243      0.044200
     25 HACA       -6.9440    0.7420    0.1710 hc        1 243      0.044200
     26 HAD        -5.0890   -0.9230    0.5690 hc        1 243      0.026700
     27 HADA       -4.7090   -0.9110   -1.1950 hc        1 243      0.026700
     28 HAE        -4.2730    1.5690   -1.0780 hc        1 243      0.036700
     29 HAEA       -4.6330    1.5450    0.6900 hc        1 243      0.036700
     30 HAF        -2.7620   -0.0990    1.0530 hc        1 243      0.035700
     31 HAFA       -2.4050   -0.0840   -0.7160 hc        1 243      0.035700
     32 HAG        -1.9720    2.3970   -0.6040 hc        1 243      0.040200
     33 HAGA       -2.3170    2.3740    1.1680 hc        1 243      0.040200
     34 HAH        -0.4430    0.7340    1.5200 hc        1 243      0.052700
     35 HAHA       -0.1080    0.7290   -0.2540 hc        1 243      0.052700
     36 HAI        -0.1220    3.5250    0.7520 ha        1 243      0.123000
     37 HAJ         2.2890    3.4450    1.0290 ha        1 243      0.117000
     38 HAK         1.9460    0.3370    0.8990 ha        1 243      0.134000
     39 HAL         4.4210    2.2230    1.0770 ha        1 243      0.123000
     40 HAM         5.0270   -0.1290    2.1270 h1        1 243      0.078700
     41 HOAU        3.5910   -1.0260   -0.1300 ho        1 243      0.400000
     42 HAN         5.5390    0.2470   -0.9210 hc        1 243      0.045200
     43 HANA        6.4200    1.1470    0.3770 hc        1 243      0.045200
     44 HAO         7.2440   -0.9910    1.3500 hc        1 243      0.048200
     45 HAOA        6.2720   -1.9370    0.1580 hc        1 243      0.048200
     46 HAP         7.5780   -0.9000   -1.7310 hc        1 243      0.037700
     47 HAPA        8.5350    0.0680   -0.5450 hc        1 243      0.037700
     48 HAQ         9.3470   -2.0550    0.5350 hc        1 243      0.039700
     49 HAQA        8.3850   -3.0240   -0.6460 hc        1 243      0.039700
     50 HAR        10.7730   -2.8510   -1.3510 hc        1 243      0.031367
     51 HARA        9.6960   -2.0160   -2.5450 hc        1 243      0.031367
     52 HARB       10.6590   -1.0430   -1.3620 hc        1 243      0.031367
@<TRIPOS>BOND
     1    1    2 1   
     2    2    3 1   
     3    2    4 1   
     4    4    5 1   
     5    4   22 1   
     6    4   23 1   
     7    5    6 1   
     8    5   24 1   
     9    5   25 1   
    10    6    7 1   
    11    6   26 1   
    12    6   27 1   
    13    7    8 1   
    14    7   28 1   
    15    7   29 1   
    16    8    9 1   
    17    8   30 1   
    18    8   31 1   
    19    9   10 1   
    20    9   32 1   
    21    9   33 1   
    22   10   11 1   
    23   10   34 1   
    24   10   35 1   
    25   11   12 2   
    26   11   36 1   
    27   12   13 1   
    28   12   37 1   
    29   13   14 2   
    30   13   38 1   
    31   14   15 1   
    32   14   39 1   
    33   15   16 1   
    34   15   17 1   
    35   15   40 1   
    36   16   41 1   
    37   17   18 1   
    38   17   42 1   
    39   17   43 1   
    40   18   19 1   
    41   18   44 1   
    42   18   45 1   
    43   19   20 1   
    44   19   46 1   
    45   19   47 1   
    46   20   21 1   
    47   20   48 1   
    48   20   49 1   
    49   21   50 1   
    50   21   51 1   
    51   21   52 1   
@<TRIPOS>SUBSTRUCTURE
     1 243         1 TEMP              0 ****  ****    0 ROOT
