@<TRIPOS>MOLECULE
243
   52    49     1     0     0
SMALL
bcc


@<TRIPOS>ATOM
      1 OAS         4.5790   -8.1630   -1.4570 o         1 243     -0.588000
      2 CAA         4.1870   -6.9940   -1.7100 c2        1 243      0.327000
      3 OAT         4.8910   -6.2350   -2.4260 o         1 243     -0.588000
      4 CAB         2.8710   -6.4990   -1.1490 c3        1 243     -0.223000
      5 CAC         3.1120   -5.8290    0.1860 c3        1 243     -0.144000
      6 CAD         1.8140   -5.2440    0.6970 c3        1 243     -0.157000
      7 CAE         2.1110   -4.2100    1.7600 c3        1 243     -0.157000
      8 CAF         0.8380   -3.4770    2.1220 c3        1 243     -0.158000
      9 CAG         1.1830   -2.1470    2.7550 c3        1 243     -0.157000
     10 CAH         0.0310   -1.1850    2.5670 c3        1 243     -0.142000
     11 CAI         0.5420    0.2360    2.6540 c2        1 243     -0.124000
     12 CAJ        -0.2870    1.2670    2.3990 c1        1 243     -0.173000
     13 CAK        -1.7290    1.0040    2.0240 c1        1 243     -0.142500
     14 CAL        -2.3460    1.7930    1.1220 c1        1 243     -0.142500
     15 CAM        -1.5970    2.9420    0.4860 c2        1 243      0.060000
     16 OAU        -0.5110    2.4410   -0.2560 oh        1 243     -0.331000
     17 CAN        -2.5270    3.7020   -0.4320 c3        1 243     -0.197000
     18 CAO        -1.7220    4.6580   -1.2860 c3        1 243     -0.159000
     19 CAP        -2.6320    5.3160   -2.3000 c3        1 243     -0.158000
     20 CAQ        -1.8230    6.2540   -3.1690 c3        1 243     -0.159000
     21 CAR        -2.6580    6.6900   -4.3530 c3        1 243     -0.210000
     22 HAB         2.2630   -7.2560   -1.0290 hc        1 243      0.058000
     23 HABA        2.4730   -5.8570   -1.7700 hc        1 243      0.058000
     24 HAC         3.7710   -5.1150    0.0780 hc        1 243      0.083500
     25 HACA        3.4470   -6.4880    0.8260 hc        1 243      0.083500
     26 HAD         1.3320   -4.8220   -0.0430 hc        1 243      0.066000
     27 HADA        1.2630   -5.9560    1.0800 hc        1 243      0.066000
     28 HAE         2.4690   -4.6530    2.5550 hc        1 243      0.076000
     29 HAEA        2.7690   -3.5710    1.4190 hc        1 243      0.076000
     30 HAF         0.3210   -4.0150    2.7550 hc        1 243      0.074500
     31 HAFA        0.3080   -3.3260    1.3140 hc        1 243      0.074500
     32 HAG         1.9850   -1.7830    2.3300 hc        1 243      0.079500
     33 HAGA        1.3490   -2.2740    3.7100 hc        1 243      0.079500
     34 HAH        -0.3760   -1.3310    1.6890 hc        1 243      0.091500
     35 HAHA       -0.6370   -1.3350    3.2650 hc        1 243      0.091500
     36 HAI         1.4720    0.4070    2.8960 ha        1 243      0.122000
     37 HAJ         0.0430    2.1840    2.4550 ha        1 243      0.116000
     38 HAK        -2.2120    0.2620    2.4340 ha        1 243      0.134000
     39 HAL        -3.2760    1.6230    0.8800 ha        1 243      0.134000
     40 HAM        -1.2660    3.5420    1.1840 h4        1 243      0.079000
     41 HOAU        0.1590    3.0250   -0.2320 ho        1 243      0.196000
     42 HAN        -3.1720    4.2070    0.1020 hc        1 243      0.100000
     43 HANA       -3.0030    3.0720   -1.0090 hc        1 243      0.100000
     44 HAO        -1.3190    5.3430   -0.7170 hc        1 243      0.074500
     45 HAOA       -1.0180    4.1640   -1.7520 hc        1 243      0.074500
     46 HAP        -3.0470    4.6290   -2.8600 hc        1 243      0.082500
     47 HAPA       -3.3280    5.8210   -1.8350 hc        1 243      0.082500
     48 HAQ        -1.5630    7.0390   -2.6470 hc        1 243      0.076500
     49 HAQA       -1.0210    5.7930   -3.4880 hc        1 243      0.076500
     50 HAR        -2.8370    5.9180   -4.9290 hc        1 243      0.072000
     51 HARA       -3.5060    7.0640   -4.0350 hc        1 243      0.072000
     52 HARB       -2.1720    7.3720   -4.8620 hc        1 243      0.072000
@<TRIPOS>BOND
     1    1    2 1   
     2    2    3 1   
     3    2    4 1   
     4    4    5 1   
     5    4   22 1   
     6    4   23 1   
     7    5    6 1   
     8    5   24 1   
     9    5   25 1   
    10    6    7 1   
    11    6   26 1   
    12    6   27 1   
    13    7    8 1   
    14    7   28 1   
    15    7   29 1   
    16    8    9 1   
    17    8   30 1   
    18    8   31 1   
    19    9   10 1   
    20    9   32 1   
    21    9   33 1   
    22   10   11 1   
    23   10   34 1   
    24   10   35 1   
    25   11   12 1   
    26   11   36 1   
    27   12   37 1   
    28   13   14 1   
    29   13   38 1   
    30   14   39 1   
    31   15   16 1   
    32   15   17 1   
    33   15   40 1   
    34   16   41 1   
    35   17   18 1   
    36   17   42 1   
    37   17   43 1   
    38   18   19 1   
    39   18   44 1   
    40   18   45 1   
    41   19   20 1   
    42   19   46 1   
    43   19   47 1   
    44   20   21 1   
    45   20   48 1   
    46   20   49 1   
    47   21   50 1   
    48   21   51 1   
    49   21   52 1   
@<TRIPOS>SUBSTRUCTURE
     1 243         1 TEMP              0 ****  ****    0 ROOT
