@<TRIPOS>MOLECULE
244
   31    33     1     0     0
SMALL
bcc


@<TRIPOS>ATOM
      1 C1          0.0630    0.1730   -0.0480 ca        1 244     -0.127000
      2 C2          1.4560    0.1240    0.0040 ca        1 244     -0.047300
      3 C3          2.0340    0.0840    1.2730 ca        1 244      0.039100
      4 C4          1.2710    0.0920    2.4810 ca        1 244     -0.057800
      5 C5         -0.1170    0.1430    2.4130 ca        1 244     -0.169000
      6 C6         -0.7000    0.1830    1.1400 ca        1 244      0.114100
      7 O9          3.4000    0.0260    1.5620 os        1 244     -0.204200
      8 C10         3.4900   -0.0000    2.9750 cc        1 244      0.119900
      9 C11         2.2380    0.0380    3.5570 cd        1 244     -0.181200
     10 O12        -2.0660    0.2300    0.9600 oh        1 244     -0.496100
     11 C13         2.2840    0.0870   -1.2330 c3        1 244      0.030000
     12 C14         2.2450    1.3380   -1.9610 c1        1 244      0.213700
     13 N17         2.2250    2.3380   -2.5530 n1        1 244     -0.367800
     14 C18         4.8210   -0.0580    3.5260 ca        1 244     -0.084800
     15 C19         4.9940   -0.1510    4.9160 ca        1 244     -0.063000
     16 C20         6.2700   -0.2050    5.4660 ca        1 244     -0.190000
     17 C21         7.3870   -0.1670    4.6180 ca        1 244      0.141100
     18 C22         7.2300   -0.0730    3.2240 ca        1 244     -0.190000
     19 C23         5.9500   -0.0200    2.6900 ca        1 244     -0.063000
     20 O28         8.6780   -0.2170    5.0870 oh        1 244     -0.491100
     21 H1         -0.4590    0.2090   -1.0150 ha        1 244      0.160000
     22 H5         -0.7320    0.1530    3.3230 ha        1 244      0.144000
     23 H11         2.0010    0.0310    4.6170 ha        1 244      0.165000
     24 H12        -2.4810    0.2570    1.8340 ho        1 244      0.421000
     25 H131        1.9130   -0.7370   -1.9090 hc        1 244      0.088700
     26 H132        3.3560   -0.1430   -0.9670 hc        1 244      0.088700
     27 H19         4.1140   -0.1810    5.5770 ha        1 244      0.145000
     28 H20         6.4020   -0.2780    6.5540 ha        1 244      0.148000
     29 H22         8.1200   -0.0430    2.5790 ha        1 244      0.148000
     30 H23         5.8130    0.0550    1.5990 ha        1 244      0.145000
     31 H28         8.6450   -0.2750    6.0540 ho        1 244      0.423000
@<TRIPOS>BOND
     1    1    2 ar  
     2    1    6 ar  
     3    1   21 1   
     4    2    3 ar  
     5    2   11 1   
     6    3    4 ar  
     7    3    7 1   
     8    4    5 ar  
     9    4    9 1   
    10    5    6 ar  
    11    5   22 1   
    12    6   10 1   
    13    7    8 1   
    14    8    9 2   
    15    8   14 1   
    16    9   23 1   
    17   10   24 1   
    18   11   12 1   
    19   11   25 1   
    20   11   26 1   
    21   12   13 3   
    22   14   15 ar  
    23   14   19 ar  
    24   15   16 ar  
    25   15   27 1   
    26   16   17 ar  
    27   16   28 1   
    28   17   18 ar  
    29   17   20 1   
    30   18   19 ar  
    31   18   29 1   
    32   19   30 1   
    33   20   31 1   
@<TRIPOS>SUBSTRUCTURE
     1 244         1 TEMP              0 ****  ****    0 ROOT
