@<TRIPOS>MOLECULE
244
   31    24     1     0     0
SMALL
bcc


@<TRIPOS>ATOM
      1 C1         -2.7760   -1.1500   -2.2990 c1        1 244     -0.144000
      2 C2         -1.3900   -1.1110   -2.2510 c1        1 244     -0.041000
      3 C3         -0.7370   -0.8210   -1.0420 c1        1 244     -0.006000
      4 C4         -1.4710   -0.5760    0.0930 c1        1 244     -0.046000
      5 C5         -2.8740   -0.6150    0.0440 c1        1 244     -0.168000
      6 C6         -3.5190   -0.9020   -1.1510 c1        1 244      0.082000
      7 O9          0.6100   -0.7200   -0.7120 o         1 244     -0.115000
      8 C10         0.6990   -0.4120    0.6230 c2        1 244      0.063000
      9 C11        -0.5850   -0.3220    1.1280 c1        1 244     -0.192000
     10 O12        -4.9210   -0.8810   -1.2620 oh        1 244     -0.248000
     11 C13        -0.8540   -1.8120   -3.4800 c3        1 244     -0.029000
     12 C14        -0.6030   -0.7950   -4.5710 c1        1 244     -0.139000
     13 N17        -0.4130   -0.0280   -5.3940 n1        1 244     -0.042000
     14 C18         1.5810    0.3380    1.3850 c1        1 244     -0.074000
     15 C19         1.7910    1.6750    1.0860 c1        1 244     -0.136500
     16 C20         2.6410    2.4360    1.8730 c1        1 244     -0.136500
     17 C21         3.2810    1.8600    2.9590 c1        1 244      0.082000
     18 C22         3.0720    0.5230    3.2580 c1        1 244     -0.144000
     19 C23         2.2220   -0.2380    2.4710 c1        1 244     -0.071000
     20 O28         4.1090    2.6440    3.7850 oh        1 244     -0.248000
     21 H1         -3.2300   -1.3510   -3.1400 ha        1 244      0.158000
     22 H5         -3.3960   -0.4410    0.8500 ha        1 244      0.145000
     23 H11        -0.8250   -0.1150    2.0520 DU        1 244      0.166000
     24 H12        -5.2090   -0.0400   -1.2250 ho        1 244      0.221000
     25 H131       -0.0160   -2.2650   -3.2580 hc        1 244      0.127500
     26 H132       -1.5080   -2.4700   -3.7920 hc        1 244      0.127500
     27 H19         1.3400    2.0810    0.3220 ha        1 244      0.145500
     28 H20         2.7880    3.3780    1.6630 ha        1 244      0.145500
     29 H22         3.5230    0.1180    4.0230 ha        1 244      0.158000
     30 H23         2.0740   -1.1790    2.6820 ha        1 244      0.140000
     31 H28         4.5970    3.1910    3.2810 ho        1 244      0.221000
@<TRIPOS>BOND
     1    1    6 1   
     2    1   21 1   
     3    2    3 1   
     4    2   11 1   
     5    4    5 1   
     6    5   22 1   
     7    6   10 1   
     8    7    8 1   
     9    8    9 1   
    10    8   14 1   
    11   10   24 1   
    12   11   12 1   
    13   11   25 1   
    14   11   26 1   
    15   12   13 1   
    16   14   19 1   
    17   15   16 1   
    18   15   27 1   
    19   16   28 1   
    20   17   18 1   
    21   17   20 1   
    22   18   29 1   
    23   19   30 1   
    24   20   31 1   
@<TRIPOS>SUBSTRUCTURE
     1 244         1 TEMP              0 ****  ****    0 ROOT
