@<TRIPOS>MOLECULE
244
   31    33     1     0     0
SMALL
bcc


@<TRIPOS>ATOM
      1 C1         -0.0480   -0.4070   -3.7530 ca        1 244     -0.127000
      2 C2          0.6800   -0.4980   -2.5660 ca        1 244     -0.047300
      3 C3         -0.0200   -0.2580   -1.3840 ca        1 244      0.039100
      4 C4         -1.4110    0.0680   -1.3500 ca        1 244     -0.057800
      5 C5         -2.1230    0.1570   -2.5420 ca        1 244     -0.169000
      6 C6         -1.4220   -0.0840   -3.7300 ca        1 244      0.114100
      7 O9          0.5000   -0.3000   -0.0880 os        1 244     -0.204200
      8 C10        -0.5850    0.0080    0.7690 cc        1 244      0.119900
      9 C11        -1.7420    0.2330    0.0510 cd        1 244     -0.181200
     10 O12        -2.0320   -0.0270   -4.9650 oh        1 244     -0.496100
     11 C13         2.1240   -0.8620   -2.5600 c3        1 244      0.030000
     12 C14         2.9580    0.1800   -3.1210 c1        1 244      0.213700
     13 N17         3.6380    1.0100   -3.5670 n1        1 244     -0.367800
     14 C18        -0.2930    0.0300    2.1810 ca        1 244     -0.084800
     15 C19        -1.3270    0.2630    3.1010 ca        1 244     -0.063000
     16 C20        -1.0640    0.2900    4.4660 ca        1 244     -0.190000
     17 C21         0.2470    0.0820    4.9190 ca        1 244      0.141100
     18 C22         1.2940   -0.1530    4.0100 ca        1 244     -0.190000
     19 C23         1.0160   -0.1770    2.6510 ca        1 244     -0.063000
     20 O28         0.5830    0.0930    6.2510 oh        1 244     -0.491100
     21 H1          0.4410   -0.5820   -4.7230 ha        1 244      0.160000
     22 H5         -3.1910    0.4080   -2.5490 ha        1 244      0.144000
     23 H11        -2.7230    0.4890    0.4400 ha        1 244      0.165000
     24 H12        -2.9570    0.2240   -4.8300 ho        1 244      0.421000
     25 H131        2.2750   -1.8070   -3.1550 hc        1 244      0.088700
     26 H132        2.4600   -1.0640   -1.5020 hc        1 244      0.088700
     27 H19        -2.3540    0.4260    2.7400 ha        1 244      0.145000
     28 H20        -1.8760    0.4740    5.1830 ha        1 244      0.148000
     29 H22         2.3140   -0.3130    4.3870 ha        1 244      0.148000
     30 H23         1.8280   -0.3580    1.9270 ha        1 244      0.145000
     31 H28        -0.2210    0.2680    6.7630 ho        1 244      0.423000
@<TRIPOS>BOND
     1    1    2 ar  
     2    1    6 ar  
     3    1   21 1   
     4    2    3 ar  
     5    2   11 1   
     6    3    4 ar  
     7    3    7 1   
     8    4    5 ar  
     9    4    9 1   
    10    5    6 ar  
    11    5   22 1   
    12    6   10 1   
    13    7    8 1   
    14    8    9 2   
    15    8   14 1   
    16    9   23 1   
    17   10   24 1   
    18   11   12 1   
    19   11   25 1   
    20   11   26 1   
    21   12   13 3   
    22   14   15 ar  
    23   14   19 ar  
    24   15   16 ar  
    25   15   27 1   
    26   16   17 ar  
    27   16   28 1   
    28   17   18 ar  
    29   17   20 1   
    30   18   19 ar  
    31   18   29 1   
    32   19   30 1   
    33   20   31 1   
@<TRIPOS>SUBSTRUCTURE
     1 244         1 TEMP              0 ****  ****    0 ROOT
