@<TRIPOS>MOLECULE
244
   31    33     1     0     0
SMALL
bcc


@<TRIPOS>ATOM
      1 C1          0.0660    0.1770   -0.0530 ca        1 244     -0.127000
      2 C2          1.4590    0.1270    0.0010 ca        1 244     -0.047300
      3 C3          2.0340    0.0850    1.2700 ca        1 244      0.039100
      4 C4          1.2700    0.0930    2.4770 ca        1 244     -0.057800
      5 C5         -0.1180    0.1460    2.4080 ca        1 244     -0.169000
      6 C6         -0.6990    0.1870    1.1340 ca        1 244      0.114100
      7 O9          3.4000    0.0260    1.5620 os        1 244     -0.204200
      8 C10         3.4880   -0.0010    2.9750 cc        1 244      0.119900
      9 C11         2.2360    0.0370    3.5550 cd        1 244     -0.181200
     10 O12        -2.0640    0.2340    0.9520 oh        1 244     -0.496100
     11 C13         2.2880    0.0900   -1.2350 c3        1 244      0.030000
     12 C14         2.2620    1.3460   -1.9550 c1        1 244      0.213700
     13 N17         2.2520    2.3500   -2.5400 n1        1 244     -0.367800
     14 C18         4.8180   -0.0600    3.5280 ca        1 244     -0.084800
     15 C19         4.9900   -0.1560    4.9180 ca        1 244     -0.063000
     16 C20         6.2650   -0.2120    5.4690 ca        1 244     -0.190000
     17 C21         7.3830   -0.1720    4.6240 ca        1 244      0.141100
     18 C22         7.2280   -0.0760    3.2290 ca        1 244     -0.190000
     19 C23         5.9490   -0.0210    2.6930 ca        1 244     -0.063000
     20 O28         8.6720   -0.2240    5.0940 oh        1 244     -0.491100
     21 H1         -0.4550    0.2130   -1.0210 ha        1 244      0.160000
     22 H5         -0.7340    0.1550    3.3170 ha        1 244      0.144000
     23 H11         1.9970    0.0300    4.6150 ha        1 244      0.165000
     24 H12        -2.4810    0.2610    1.8250 ho        1 244      0.421000
     25 H131        1.9110   -0.7260   -1.9170 hc        1 244      0.088700
     26 H132        3.3570   -0.1520   -0.9690 hc        1 244      0.088700
     27 H19         4.1090   -0.1880    5.5770 ha        1 244      0.145000
     28 H20         6.3950   -0.2870    6.5580 ha        1 244      0.148000
     29 H22         8.1190   -0.0450    2.5850 ha        1 244      0.148000
     30 H23         5.8140    0.0570    1.6030 ha        1 244      0.145000
     31 H28         8.6380   -0.2840    6.0610 ho        1 244      0.423000
@<TRIPOS>BOND
     1    1    2 ar  
     2    1    6 ar  
     3    1   21 1   
     4    2    3 ar  
     5    2   11 1   
     6    3    4 ar  
     7    3    7 1   
     8    4    5 ar  
     9    4    9 1   
    10    5    6 ar  
    11    5   22 1   
    12    6   10 1   
    13    7    8 1   
    14    8    9 2   
    15    8   14 1   
    16    9   23 1   
    17   10   24 1   
    18   11   12 1   
    19   11   25 1   
    20   11   26 1   
    21   12   13 3   
    22   14   15 ar  
    23   14   19 ar  
    24   15   16 ar  
    25   15   27 1   
    26   16   17 ar  
    27   16   28 1   
    28   17   18 ar  
    29   17   20 1   
    30   18   19 ar  
    31   18   29 1   
    32   19   30 1   
    33   20   31 1   
@<TRIPOS>SUBSTRUCTURE
     1 244         1 TEMP              0 ****  ****    0 ROOT
