@<TRIPOS>MOLECULE
245
   27    23     1     0     0
SMALL
bcc


@<TRIPOS>ATOM
      1 CL7        -5.7480    0.2210    1.1930 cl        1 245      0.021000
      2 C1         -0.1030   -0.4890   -0.1320 c1        1 245      0.404000
      3 O1         -0.1410    0.4260    0.6650 o         1 245     -0.360000
      4 N2         -1.1000   -1.5000   -0.1010 n3        1 245     -0.329000
      5 C3         -2.1410   -1.4400    0.8620 c2        1 245      0.129000
      6 C4         -1.9840   -2.0450    2.0750 c2        1 245     -0.245000
      7 C5         -2.9830   -1.9500    3.0300 c1        1 245     -0.035000
      8 N6         -4.1220   -1.2550    2.7580 n1        1 245     -0.146000
      9 C7         -4.2810   -0.6510    1.5470 c2        1 245      0.016000
     10 C8         -3.2820   -0.7440    0.5900 c2        1 245     -0.192000
     11 N9          0.9000   -0.5130   -1.1380 n2        1 245     -0.315000
     12 C10         1.8590    0.5350   -1.2110 c1        1 245      0.063000
     13 C11         1.5780    1.6810   -1.9380 c1        1 245     -0.123750
     14 C12         2.5320    2.6800   -2.0540 c1        1 245     -0.123750
     15 C13         3.7670    2.5330   -1.4420 c1        1 245     -0.123750
     16 C14         4.0480    1.3870   -0.7150 c1        1 245     -0.123750
     17 C15         3.0940    0.3880   -0.6000 c1        1 245     -0.176000
     18 HN2        -1.0730   -2.1860   -0.7020 hn        1 245      0.230000
     19 H4         -1.1680   -2.5430    2.2700 ha        1 245      0.143000
     20 H5         -2.8710   -2.3820    3.8980 ha        1 245      0.166000
     21 H8         -3.4030   -0.3260   -0.2830 ha        1 245      0.195000
     22 HN9         0.9280   -1.1990   -1.7390 hn        1 245      0.223000
     23 H11         0.7090    1.7850   -2.3690 ha        1 245      0.144000
     24 H12         2.3350    3.4870   -2.5660 ha        1 245      0.144000
     25 H13         4.4400    3.2360   -1.5240 ha        1 245      0.144000
     26 H14         4.9180    1.2830   -0.2850 ha        1 245      0.144000
     27 H15         3.2920   -0.4190   -0.0880 ha        1 245      0.128000
@<TRIPOS>BOND
     1    1    9 1   
     2    2    3 1   
     3    2    4 1   
     4    4    5 1   
     5    4   18 1   
     6    5    6 1   
     7    5   10 1   
     8    6    7 1   
     9    6   19 1   
    10    7   20 1   
    11    8    9 1   
    12    9   10 1   
    13   10   21 1   
    14   11   12 1   
    15   11   22 1   
    16   12   17 1   
    17   13   14 1   
    18   13   23 1   
    19   14   24 1   
    20   15   16 1   
    21   15   25 1   
    22   16   26 1   
    23   17   27 1   
@<TRIPOS>SUBSTRUCTURE
     1 245         1 TEMP              0 ****  ****    0 ROOT
