@<TRIPOS>MOLECULE
245
   29    29     1     0     0
SMALL
bcc


@<TRIPOS>ATOM
      1 CL7         3.1110    2.2250    1.7440 cl        1 245     -0.061300
      2 C1          5.9890    1.8560   -0.6920 c         1 245      0.650100
      3 O1          6.2340    2.8650   -0.0260 o         1 245     -0.448100
      4 C3          4.4880    0.0030   -0.0370 c2        1 245     -0.170000
      5 C4          1.0720   -2.2310    3.1150 c1        1 245      0.063500
      6 C5          1.5180   -1.1500    2.8150 cg        1 245     -0.164000
      7 N6          1.8680    0.1260    2.6100 ne        1 245     -0.219700
      8 C7          2.8320    0.5070    1.8250 cf        1 245      0.404600
      9 C8          3.7260   -0.3280    1.0240 cf        1 245     -0.077600
     10 N9          6.9100    1.1940   -1.5070 n         1 245     -0.442500
     11 C10         8.2290    1.6110   -1.6720 ce        1 245      0.367900
     12 C11         8.7440    2.8190   -0.9690 c3        1 245     -0.204500
     13 C12        10.1490    3.1540   -1.2320 c2        1 245      0.035800
     14 C13        10.9370    2.4090   -2.0670 cf        1 245     -0.193000
     15 C14        10.4050    1.2720   -2.7100 cf        1 245      0.150000
     16 C15         9.0750    0.8800   -2.5150 ce        1 245     -0.334600
     17 HN2         4.0290    2.0130    0.0150 hn        1 245      0.496800
     18 H4          5.0870   -0.7600   -0.5710 hx        1 245      0.193000
     19 H5          0.6720   -3.1830    3.3880 ha        1 245      0.214500
     20 H8          3.7460   -1.4030    1.3300 ha        1 245      0.212000
     21 HN9         6.6310    0.3630   -1.9980 hn        1 245      0.373500
     22 H11         8.6050    2.7040    0.1600 hc        1 245      0.187200
     23 H12         8.1020    3.7280   -1.2270 hc        1 245      0.187200
     24 H13        10.5460    4.0530   -0.7150 ha        1 245      0.209000
     25 H14        11.9950    2.6870   -2.2470 ha        1 245      0.217000
     26 H15        11.0510    0.6720   -3.3870 ha        1 245      0.211000
     27 H92         8.7160   -0.0210   -3.0490 ha        1 245      0.194000
     28 H22         4.1470    1.3270   -1.5540 hn        1 245      0.496800
     29 N2          4.5740    1.3330   -0.6170 n4        1 245     -0.548600
@<TRIPOS>BOND
     1    1    8 1   
     2    2    3 2   
     3    2   10 1   
     4    2   29 1   
     5    4    9 2   
     6    4   18 1   
     7    4   29 1   
     8    5    6 3   
     9    5   19 1   
    10    6    7 1   
    11    7    8 2   
    12    8    9 1   
    13    9   20 1   
    14   10   11 2   
    15   10   21 1   
    16   11   12 1   
    17   11   16 1   
    18   12   13 1   
    19   12   22 1   
    20   12   23 1   
    21   13   14 2   
    22   13   24 1   
    23   14   15 1   
    24   14   25 1   
    25   15   16 2   
    26   15   26 1   
    27   16   27 1   
    28   17   29 1   
    29   28   29 1   
@<TRIPOS>SUBSTRUCTURE
     1 245         1 TEMP              0 ****  ****    0 ROOT
