@<TRIPOS>MOLECULE
245
   27    27     1     0     0
SMALL
bcc


@<TRIPOS>ATOM
      1 Cl7        -0.0120   -0.5730   -0.2410 cl        1 245     -0.006000
      2 C1          6.1030    1.0100   -0.5070 c2        1 245      0.376000
      3 O1          6.5410    0.3270    0.4480 o         1 245     -0.382000
      4 C3          3.8250    0.2880   -0.0440 c2        1 245      0.063000
      5 C4          3.6770   -1.1690    3.2060 c1        1 245     -0.203000
      6 C5          2.7590   -1.0730    2.4330 c1        1 245     -0.108000
      7 N6          1.6420   -1.0570    1.6870 n2        1 245     -0.090000
      8 C7          1.5400   -0.4690    0.5320 c2        1 245      0.105000
      9 C8          2.4860    0.2920   -0.2700 c2        1 245     -0.301000
     10 N9          6.9450    1.8680   -1.2440 ns        1 245     -0.301000
     11 C10         8.3790    1.6570   -1.1060 c3        1 245     -0.041000
     12 C11         9.0110    2.5730   -0.0970 c2        1 245     -0.073000
     13 C12        10.2640    3.0350   -0.2940 c2        1 245     -0.205000
     14 C13        10.9830    2.7340   -1.5050 c2        1 245      0.003000
     15 C14        10.4050    1.9900   -2.4940 c2        1 245     -0.242000
     16 C15         9.0590    1.5680   -2.4180 c1        1 245     -0.099000
     17 HN2         4.3780    1.5740   -1.5520 hn        1 245      0.238000
     18 H4          4.2960   -0.2990    0.7770 h4        1 245      0.192000
     19 H5          4.4830   -1.2570    3.8870 ha        1 245      0.236000
     20 H8          2.0460    0.8750   -1.0960 ha        1 245      0.150000
     21 HN9         6.6740    2.0770   -2.1840 hn        1 245      0.230000
     22 H11         8.5720    0.6000   -0.6700 h1        1 245      0.189000
     23 H12         8.4410    2.7870    0.8210 ha        1 245      0.155000
     24 H13        10.7670    3.6590    0.4600 ha        1 245      0.145000
     25 H14        12.0010    3.1450   -1.6100 ha        1 245      0.138000
     26 H15        10.9530    1.7640   -3.4240 ha        1 245      0.155000
     27 N2          4.7260    0.9930   -0.8230 ns        1 245     -0.324000
@<TRIPOS>BOND
     1    1    8 1   
     2    2    3 1   
     3    2   10 1   
     4    2   27 1   
     5    4    9 1   
     6    4   18 1   
     7    4   27 1   
     8    5    6 1   
     9    5   19 1   
    10    6    7 1   
    11    7    8 1   
    12    8    9 1   
    13    9   20 1   
    14   10   11 1   
    15   10   21 1   
    16   11   12 1   
    17   11   16 1   
    18   11   22 1   
    19   12   13 1   
    20   12   23 1   
    21   13   14 1   
    22   13   24 1   
    23   14   15 1   
    24   14   25 1   
    25   15   16 1   
    26   15   26 1   
    27   17   27 1   
@<TRIPOS>SUBSTRUCTURE
     1 245         1 TEMP              0 ****  ****    0 ROOT
