@<TRIPOS>MOLECULE
245
   27    28     1     0     0
SMALL
bcc


@<TRIPOS>ATOM
      1 CL7         5.4010    0.9180    1.1280 cl        1 245     -0.152000
      2 C1         -0.8590    0.0450    0.1630 c         1 245      0.778100
      3 O1         -0.9710   -1.1950    0.0630 o         1 245     -0.602100
      4 C3          1.6320   -0.0030    0.2000 ca        1 245      0.121600
      5 C4          1.8020   -1.3350   -0.2350 ca        1 245     -0.267300
      6 C5          3.0930   -1.8860   -0.2140 ca        1 245      0.427200
      7 N6          4.1980   -1.2360    0.1880 nb        1 245     -0.671000
      8 C7          4.0260    0.0420    0.6030 ca        1 245      0.513300
      9 C8          2.7860    0.7010    0.6340 ca        1 245     -0.300300
     10 N9         -1.9790    0.8920    0.2920 n         1 245     -0.461100
     11 C10        -3.3020    0.4500    0.0780 ca        1 245      0.055600
     12 C11        -3.7340   -0.8450    0.4330 ca        1 245     -0.154000
     13 C12        -5.0680   -1.2040    0.2600 ca        1 245     -0.108000
     14 C13        -5.9920   -0.2970   -0.2550 ca        1 245     -0.146000
     15 C14        -5.5740    0.9850   -0.6070 ca        1 245     -0.108000
     16 C15        -4.2450    1.3640   -0.4510 ca        1 245     -0.154000
     17 HN2         0.4550    1.6330    0.4520 hn        1 245      0.317500
     18 H4          0.9530   -1.9450   -0.5790 ha        1 245      0.187000
     19 H5          3.2560   -2.9290   -0.5470 h4        1 245      0.033100
     20 H8          2.7270    1.7400    0.9880 ha        1 245      0.152000
     21 HN9        -1.8440    1.8690    0.1480 hn        1 245      0.309500
     22 H11        -3.0200   -1.5820    0.8360 ha        1 245      0.148000
     23 H12        -5.3900   -2.2190    0.5380 ha        1 245      0.135500
     24 H13        -7.0430   -0.5910   -0.3850 ha        1 245      0.135000
     25 H14        -6.2970    1.7070   -1.0160 ha        1 245      0.135500
     26 H15        -3.9400    2.3810   -0.7380 ha        1 245      0.148000
     27 N2          0.4080    0.6760    0.1780 n         1 245     -0.474100
@<TRIPOS>BOND
     1    1    8 1   
     2    2    3 2   
     3    2   10 1   
     4    2   27 1   
     5    4    5 ar  
     6    4    9 ar  
     7    4   27 1   
     8    5    6 ar  
     9    5   18 1   
    10    6    7 ar  
    11    6   19 1   
    12    7    8 ar  
    13    8    9 ar  
    14    9   20 1   
    15   10   11 1   
    16   10   21 1   
    17   11   12 ar  
    18   11   16 ar  
    19   12   13 ar  
    20   12   22 1   
    21   13   14 ar  
    22   13   23 1   
    23   14   15 ar  
    24   14   24 1   
    25   15   16 ar  
    26   15   25 1   
    27   16   26 1   
    28   17   27 1   
@<TRIPOS>SUBSTRUCTURE
     1 245         1 TEMP              0 ****  ****    0 ROOT
