@<TRIPOS>MOLECULE
246
   31    32     1     0     0
SMALL
bcc


@<TRIPOS>ATOM
      1 CL5         0.2520    1.3570   -0.2600 cl        1 246     -0.093000
      2 C1          6.3510   -0.2510    0.5640 c         1 246      0.646100
      3 O1          6.7650   -0.9460   -0.3680 o         1 246     -0.480100
      4 N2          7.3790   -0.0850    1.6900 n4        1 246     -0.675800
      5 C3          4.0770    0.2770   -0.2110 ca        1 246      0.066600
      6 N3          5.1480    0.3810    0.7180 n         1 246     -0.421100
      7 C4          2.8230    0.8010    0.1800 ca        1 246     -0.272300
      8 C5          1.7570    0.7220   -0.7380 ca        1 246      0.521300
      9 N6          1.8680    0.1690   -1.9720 nb        1 246     -0.628000
     10 C7          3.0670   -0.3210   -2.3160 ca        1 246      0.448200
     11 C8          4.2070   -0.2980   -1.4860 ca        1 246     -0.260300
     12 C9          7.9090    1.3180    1.7750 c3        1 246      0.179100
     13 C10         9.0390    1.3950    2.7400 ca        1 246     -0.199300
     14 C11         8.8120    1.8160    4.0560 ca        1 246     -0.098000
     15 C12         9.8810    1.9250    4.9430 ca        1 246     -0.117000
     16 C13        11.1750    1.6120    4.5210 ca        1 246     -0.072000
     17 C14        11.4020    1.1930    3.2080 ca        1 246     -0.117000
     18 C15        10.3380    1.0850    2.3160 ca        1 246     -0.098000
     19 HN2         8.1610   -0.7230    1.4690 hn        1 246      0.466300
     20 HN3         4.9520    0.9030    1.5470 hn        1 246      0.349500
     21 H4          2.6600    1.2620    1.1650 ha        1 246      0.164000
     22 H7          3.1270   -0.7660   -3.3290 h4        1 246      0.057100
     23 H8          5.1500   -0.7280   -1.8560 ha        1 246      0.182000
     24 H91         8.2470    1.6120    0.7370 hx        1 246      0.107700
     25 H92         7.0630    1.9930    2.0890 hx        1 246      0.107700
     26 H11         7.7970    2.0800    4.3900 ha        1 246      0.139500
     27 H12         9.7050    2.2630    5.9770 ha        1 246      0.162500
     28 H13        12.0200    1.7020    5.2240 ha        1 246      0.164000
     29 H14        12.4250    0.9540    2.8740 ha        1 246      0.162500
     30 H15        10.5240    0.7730    1.2770 ha        1 246      0.139500
     31 H22         6.9870   -0.3650    2.5930 hn        1 246      0.466300
@<TRIPOS>BOND
     1    1    8 1   
     2    2    3 2   
     3    2    4 1   
     4    2    6 1   
     5    4   12 1   
     6    4   19 1   
     7    4   31 1   
     8    5    6 1   
     9    5    7 ar  
    10    5   11 ar  
    11    6   20 1   
    12    7    8 ar  
    13    7   21 1   
    14    8    9 ar  
    15    9   10 ar  
    16   10   11 ar  
    17   10   22 1   
    18   11   23 1   
    19   12   13 1   
    20   12   24 1   
    21   12   25 1   
    22   13   14 ar  
    23   13   18 ar  
    24   14   15 ar  
    25   14   26 1   
    26   15   16 ar  
    27   15   27 1   
    28   16   17 ar  
    29   16   28 1   
    30   17   18 ar  
    31   17   29 1   
    32   18   30 1   
@<TRIPOS>SUBSTRUCTURE
     1 246         1 TEMP              0 ****  ****    0 ROOT
