@<TRIPOS>MOLECULE
246
   30    31     1     0     0
SMALL
bcc


@<TRIPOS>ATOM
      1 CL5        -5.5300    0.9980    0.5380 cl        1 246     -0.154000
      2 C1          0.5670   -0.4360   -0.7960 c         1 246      0.758100
      3 O1          0.7160   -1.6190   -0.4120 o         1 246     -0.618100
      4 N2          1.5470    0.1940   -1.5970 n         1 246     -0.526900
      5 C3         -1.7550   -0.2170    0.0910 ca        1 246      0.123600
      6 N3         -0.5970    0.3050   -0.4960 n         1 246     -0.469100
      7 C4         -2.9500    0.5460    0.0130 ca        1 246     -0.301300
      8 C5         -4.1040    0.0530    0.6450 ca        1 246      0.514300
      9 N6         -4.1590   -1.1160    1.3260 nb        1 246     -0.673000
     10 C7         -3.0180   -1.8250    1.3840 ca        1 246      0.427200
     11 C8         -1.8020   -1.4370    0.8000 ca        1 246     -0.271300
     12 C9          2.8490   -0.4250   -1.6970 c3        1 246      0.119300
     13 C10         3.8270   -0.0370   -0.6250 ca        1 246     -0.139300
     14 C11         4.8520    0.8740   -0.8960 ca        1 246     -0.115000
     15 C12         5.7710    1.2070    0.0980 ca        1 246     -0.132500
     16 C13         5.6670    0.6350    1.3660 ca        1 246     -0.120000
     17 C14         4.6440   -0.2730    1.6400 ca        1 246     -0.132500
     18 C15         3.7250   -0.6100    0.6470 ca        1 246     -0.115000
     19 HN2         1.5720    1.1910   -1.5730 hn        1 246      0.292500
     20 HN3        -0.7170    1.1870   -0.9470 hn        1 246      0.317500
     21 H4         -2.9870    1.5040   -0.5240 ha        1 246      0.152000
     22 H7         -3.0840   -2.7770    1.9440 h4        1 246      0.032100
     23 H8         -0.9190   -2.0860    0.8970 ha        1 246      0.188000
     24 H91         2.7150   -1.5470   -1.6830 h1        1 246      0.078700
     25 H92         3.2590   -0.1300   -2.7070 h1        1 246      0.078700
     26 H11         4.9400    1.3230   -1.8970 ha        1 246      0.142000
     27 H12         6.5790    1.9210   -0.1190 ha        1 246      0.134500
     28 H13         6.3930    0.8990    2.1500 ha        1 246      0.134000
     29 H14         4.5620   -0.7260    2.6390 ha        1 246      0.134500
     30 H15         2.9150   -1.3290    0.8530 ha        1 246      0.142000
@<TRIPOS>BOND
     1    1    8 1   
     2    2    3 2   
     3    2    4 1   
     4    2    6 1   
     5    4   12 1   
     6    4   19 1   
     7    5    6 1   
     8    5    7 ar  
     9    5   11 ar  
    10    6   20 1   
    11    7    8 ar  
    12    7   21 1   
    13    8    9 ar  
    14    9   10 ar  
    15   10   11 ar  
    16   10   22 1   
    17   11   23 1   
    18   12   13 1   
    19   12   24 1   
    20   12   25 1   
    21   13   14 ar  
    22   13   18 ar  
    23   14   15 ar  
    24   14   26 1   
    25   15   16 ar  
    26   15   27 1   
    27   16   17 ar  
    28   16   28 1   
    29   17   18 ar  
    30   17   29 1   
    31   18   30 1   
@<TRIPOS>SUBSTRUCTURE
     1 246         1 TEMP              0 ****  ****    0 ROOT
