@<TRIPOS>MOLECULE
246
   31    32     1     0     0
SMALL
bcc


@<TRIPOS>ATOM
      1 Cl5         0.2510    1.3760   -0.2440 cl        1 246     -0.093000
      2 C1          6.3460   -0.2560    0.5710 c         1 246      0.646100
      3 O1          6.7550   -0.9570   -0.3590 o         1 246     -0.480100
      4 N2          7.3780   -0.0850    1.6920 ny        1 246     -0.675800
      5 C3          4.0700    0.2730   -0.1980 ca        1 246      0.066600
      6 N3          5.1450    0.3790    0.7260 ns        1 246     -0.421100
      7 C4          2.8210    0.8080    0.1920 ca        1 246     -0.272300
      8 C5          1.7510    0.7270   -0.7220 ca        1 246      0.521300
      9 N6          1.8550    0.1620   -1.9510 nb        1 246     -0.628000
     10 C7          3.0500   -0.3390   -2.2940 ca        1 246      0.448200
     11 C8          4.1920   -0.3150   -1.4680 ca        1 246     -0.260300
     12 C9          7.9110    1.3180    1.7680 c3        1 246      0.179100
     13 C10         9.0450    1.3980    2.7280 ca        1 246     -0.199300
     14 C11         8.8240    1.8230    4.0440 ca        1 246     -0.098000
     15 C12         9.8970    1.9350    4.9260 ca        1 246     -0.117000
     16 C13        11.1890    1.6210    4.5000 ca        1 246     -0.072000
     17 C14        11.4100    1.1970    3.1870 ca        1 246     -0.117000
     18 C15        10.3420    1.0860    2.3000 ca        1 246     -0.098000
     19 HN2         6.9900   -0.3610    2.5990 hn        1 246      0.466300
     20 HN3         4.9540    0.9070    1.5530 hn        1 246      0.349500
     21 H4          2.6640    1.2800    1.1730 ha        1 246      0.164000
     22 H7          3.1040   -0.7950   -3.3030 h4        1 246      0.057100
     23 H8          5.1310   -0.7540   -1.8370 ha        1 246      0.182000
     24 H91         7.0670    1.9950    2.0840 hx        1 246      0.107700
     25 H92         8.2440    1.6060    0.7280 hx        1 246      0.107700
     26 H11         7.8100    2.0880    4.3820 ha        1 246      0.139500
     27 H12         9.7250    2.2770    5.9590 ha        1 246      0.162500
     28 H13        12.0370    1.7130    5.1980 ha        1 246      0.164000
     29 H14        12.4320    0.9580    2.8490 ha        1 246      0.162500
     30 H15        10.5240    0.7700    1.2610 ha        1 246      0.139500
     31 H22         8.1590   -0.7250    1.4720 hn        1 246      0.466300
@<TRIPOS>BOND
     1    1    8 1   
     2    2    3 2   
     3    2    4 1   
     4    2    6 1   
     5    4   12 1   
     6    4   19 1   
     7    4   31 1   
     8    5    6 1   
     9    5    7 ar  
    10    5   11 ar  
    11    6   20 1   
    12    7    8 ar  
    13    7   21 1   
    14    8    9 ar  
    15    9   10 ar  
    16   10   11 ar  
    17   10   22 1   
    18   11   23 1   
    19   12   13 1   
    20   12   24 1   
    21   12   25 1   
    22   13   14 ar  
    23   13   18 ar  
    24   14   15 ar  
    25   14   26 1   
    26   15   16 ar  
    27   15   27 1   
    28   16   17 ar  
    29   16   28 1   
    30   17   18 ar  
    31   17   29 1   
    32   18   30 1   
@<TRIPOS>SUBSTRUCTURE
     1 246         1 TEMP              0 ****  ****    0 ROOT
