@<TRIPOS>MOLECULE
246
   32    33     1     0     0
SMALL
bcc


@<TRIPOS>ATOM
      1 CL5         2.6470   -1.0930    2.7110 cl        1 246     -0.005000
      2 C1          7.1100    0.5160   -0.7660 c         1 246      0.484100
      3 O1          7.8790    0.9000   -1.6330 o         1 246     -0.300100
      4 N2          7.2870    0.8650    0.6570 n4        1 246     -0.665800
      5 C3          4.6930    0.0070   -0.4980 ca        1 246     -0.050400
      6 N3          5.9490   -0.3560   -1.1700 n4        1 246     -0.519200
      7 C4          4.3410   -0.6450    0.7010 ca        1 246     -0.290300
      8 C5          3.0920   -0.3160    1.2810 ca        1 246      0.537300
      9 N6          2.2400    0.5940    0.7290 nb        1 246     -0.567000
     10 C7          2.6020    1.1870   -0.4120 ca        1 246      0.477200
     11 C8          3.8280    0.9380   -1.0840 ca        1 246     -0.217300
     12 C9          8.6430    0.3510    1.2200 c3        1 246      0.219100
     13 C10         8.8580    0.9700    2.5350 ca        1 246     -0.240300
     14 C11         9.5370    2.2000    2.6280 ca        1 246     -0.076500
     15 C12         9.8210    2.7420    3.8760 ca        1 246     -0.117500
     16 C13         9.4300    2.0700    5.0390 ca        1 246     -0.023000
     17 C14         8.7510    0.8500    4.9510 ca        1 246     -0.117500
     18 C15         8.4610    0.3000    3.7070 ca        1 246     -0.076500
     19 HN2         6.5180    0.5180    1.2500 hn        1 246      0.489800
     20 HN3         6.1760   -1.3460   -0.9670 hn        1 246      0.509800
     21 H4          4.9590   -1.4330    1.1600 ha        1 246      0.178000
     22 H7          1.8670    1.9100   -0.8370 h4        1 246      0.100100
     23 H8          4.0370    1.4600   -2.0320 ha        1 246      0.194000
     24 H91         8.5590   -0.7700    1.2760 hx        1 246      0.120200
     25 H92         9.4290    0.6530    0.4680 hx        1 246      0.120200
     26 H11         9.8740    2.7200    1.7170 ha        1 246      0.144000
     27 H12        10.3680    3.6990    3.9500 ha        1 246      0.182000
     28 H13         9.6670    2.4990    6.0300 ha        1 246      0.185000
     29 H14         8.4560    0.3170    5.8720 ha        1 246      0.182000
     30 H15         7.9510   -0.6740    3.6470 ha        1 246      0.144000
     31 H22         7.3010    1.9010    0.7330 hn        1 246      0.489800
     32 H32         5.8300   -0.2570   -2.2000 hn        1 246      0.509800
@<TRIPOS>BOND
     1    1    8 1   
     2    2    3 2   
     3    2    4 1   
     4    2    6 1   
     5    4   12 1   
     6    4   19 1   
     7    4   31 1   
     8    5    6 1   
     9    5    7 ar  
    10    5   11 ar  
    11    6   20 1   
    12    6   32 1   
    13    7    8 ar  
    14    7   21 1   
    15    8    9 ar  
    16    9   10 ar  
    17   10   11 ar  
    18   10   22 1   
    19   11   23 1   
    20   12   13 1   
    21   12   24 1   
    22   12   25 1   
    23   13   14 ar  
    24   13   18 ar  
    25   14   15 ar  
    26   14   26 1   
    27   15   16 ar  
    28   15   27 1   
    29   16   17 ar  
    30   16   28 1   
    31   17   18 ar  
    32   17   29 1   
    33   18   30 1   
@<TRIPOS>SUBSTRUCTURE
     1 246         1 TEMP              0 ****  ****    0 ROOT
