@<TRIPOS>MOLECULE
246
   30    25     1     0     0
SMALL
bcc


@<TRIPOS>ATOM
      1 CL5        -5.4510   -1.6830   -2.5520 cl        1 246      0.019000
      2 C1         -0.5980   -0.1670   -0.8190 c1        1 246      0.383000
      3 O1         -0.9830   -1.2560   -1.1990 o         1 246     -0.376000
      4 N2          0.5510   -0.0690    0.0080 n3        1 246     -0.336000
      5 C3         -2.4700    0.9040   -1.9990 c1        1 246      0.130000
      6 N3         -1.3090    1.0040   -1.1880 n2        1 246     -0.323000
      7 C4         -3.2590   -0.2070   -1.9260 c1        1 246     -0.196000
      8 C5         -4.4370   -0.2690   -2.6540 c2        1 246      0.016000
      9 N6         -4.8070    0.7790   -3.4420 n2        1 246     -0.148000
     10 C7         -4.0200    1.8890   -3.5160 c1        1 246     -0.035000
     11 C8         -2.8410    1.9530   -2.7890 c1        1 246     -0.247000
     12 C9          1.0710   -1.2300    0.6440 c3        1 246     -0.005000
     13 C10         2.1680   -0.8300    1.6070 c1        1 246     -0.132000
     14 C11         1.8890    0.0380    2.6520 c1        1 246     -0.123750
     15 C12         2.8760    0.3520    3.5740 c1        1 246     -0.123750
     16 C13         4.1410   -0.2000    3.4500 c1        1 246     -0.123750
     17 C14         4.4200   -1.0670    2.4050 c1        1 246     -0.123750
     18 C15         3.4330   -1.3820    1.4840 c1        1 246     -0.119000
     19 HN2         0.9650    0.7360    0.1200 hn        1 246      0.205000
     20 HN3        -1.0140    1.8210   -0.9130 hn        1 246      0.231000
     21 H4         -3.0060   -0.9480   -1.3430 ha        1 246      0.196000
     22 H7         -4.2860    2.6390   -4.0810 ha        1 246      0.165000
     23 H8         -2.2780    2.7480   -2.8420 ha        1 246      0.143000
     24 H91         0.3540   -1.6820    1.1350 h1        1 246      0.118000
     25 H92         1.4360   -1.8370   -0.0330 h1        1 246      0.118000
     26 H11         0.9980    0.4270    2.7390 ha        1 246      0.139500
     27 H12         2.6800    0.9630    4.3090 ha        1 246      0.139500
     28 H13         4.8360    0.0220    4.0990 ha        1 246      0.139500
     29 H14         5.3110   -1.4560    2.3190 ha        1 246      0.139500
     30 H15         3.6300   -1.9930    0.7480 ha        1 246      0.130000
@<TRIPOS>BOND
     1    1    8 1   
     2    2    3 1   
     3    2    4 1   
     4    4   12 1   
     5    4   19 1   
     6    5    6 1   
     7    5   11 1   
     8    6   20 1   
     9    7    8 1   
    10    7   21 1   
    11    8    9 1   
    12    9   10 1   
    13   10   22 1   
    14   11   23 1   
    15   12   13 1   
    16   12   24 1   
    17   12   25 1   
    18   13   18 1   
    19   14   15 1   
    20   14   26 1   
    21   15   27 1   
    22   16   17 1   
    23   16   28 1   
    24   17   29 1   
    25   18   30 1   
@<TRIPOS>SUBSTRUCTURE
     1 246         1 TEMP              0 ****  ****    0 ROOT
