@<TRIPOS>MOLECULE
247
   23    23     1     0     0
SMALL
bcc


@<TRIPOS>ATOM
      1 CAB         1.5500   -0.8780    0.5630 ca        1 247     -0.080500
      2 CAD         2.9150   -0.6670    0.7380 ca        1 247     -0.190500
      3 CAE         3.5950    0.1820   -0.1450 ca        1 247      0.099100
      4 OAK         4.9500    0.4310   -0.0370 oh        1 247     -0.514100
      5 CAF         2.9180    0.8200   -1.1940 ca        1 247     -0.190500
      6 CAC         1.5530    0.5940   -1.3520 ca        1 247     -0.080500
      7 CAA         0.8580   -0.2520   -0.4800 ca        1 247     -0.072300
      8 CAG        -0.6160   -0.4900   -0.6880 c3        1 247      0.165800
      9 NAJ        -0.8970   -1.8890   -0.9550 n3        1 247     -0.896800
     10 CAH        -1.4850    0.0910    0.5050 c3        1 247      0.212600
     11 CAI        -3.0130    0.0250    0.0440 c         1 247      0.915600
     12 OAM        -3.5180   -1.1250    0.0040 o         1 247     -0.793800
     13 OAL        -3.5520    1.1070   -0.2760 o         1 247     -0.793800
     14 F1         -1.2610   -0.6070    1.6770 f         1 247     -0.263300
     15 F2         -1.0850    1.3600    0.8570 f         1 247     -0.263300
     16 HAB         1.0000   -1.5260    1.2640 ha        1 247      0.141000
     17 HAD         3.4520   -1.1570    1.5610 ha        1 247      0.127500
     18 HOAK        5.2680   -0.0390    0.7460 ho        1 247      0.407000
     19 HAF         3.4670    1.4860   -1.8720 ha        1 247      0.127500
     20 HAC         1.0140    1.0940   -2.1720 ha        1 247      0.141000
     21 HAG        -0.9540    0.1000   -1.5920 h1        1 247      0.078700
     22 HAJ1       -0.6980   -2.4280   -0.1310 hn        1 247      0.361800
     23 HAJ2       -1.8820   -1.9870   -1.1520 hn        1 247      0.361800
@<TRIPOS>BOND
     1    1    2 ar  
     2    1    7 ar  
     3    1   16 1   
     4    2    3 ar  
     5    2   17 1   
     6    3    4 1   
     7    3    5 ar  
     8    4   18 1   
     9    5    6 ar  
    10    5   19 1   
    11    6    7 ar  
    12    6   20 1   
    13    7    8 1   
    14    8    9 1   
    15    8   10 1   
    16    8   21 1   
    17    9   22 1   
    18    9   23 1   
    19   10   11 1   
    20   10   14 1   
    21   10   15 1   
    22   11   12 1   
    23   11   13 1   
@<TRIPOS>SUBSTRUCTURE
     1 247         1 TEMP              0 ****  ****    0 ROOT
