@<TRIPOS>MOLECULE
247
   23    20     1     0     0
SMALL
bcc


@<TRIPOS>ATOM
      1 CAB         0.8540   -0.3560   -1.3140 c1        1 247     -0.027500
      2 CAD         2.2360   -0.3580   -1.2770 c1        1 247     -0.107500
      3 CAE         2.9020   -0.2910   -0.0490 c1        1 247      0.082600
      4 OAK         4.3190   -0.3340   -0.0040 oh        1 247     -0.497600
      5 CAF         2.1770   -0.2240    1.1270 c1        1 247     -0.088500
      6 CAC         0.7880   -0.2220    1.0890 c1        1 247     -0.088500
      7 CAA         0.1270   -0.2880   -0.1280 c1        1 247     -0.038100
      8 CAG        -1.3560   -0.3610   -0.1610 c3        1 247      0.131600
      9 NAJ        -1.8140   -1.2150    0.8970 n3        1 247     -0.896800
     10 CAH        -1.9330    1.0300    0.0260 c3        1 247      0.212600
     11 CAI        -3.3160    1.0830   -0.5580 c         1 247      0.915600
     12 OAM        -3.4750    1.0440   -1.8210 o         1 247     -0.793800
     13 OAL        -4.3120    1.2400    0.1970 o         1 247     -0.793800
     14 F1         -1.1570    1.9210   -0.5920 f         1 247     -0.263300
     15 F2         -1.9890    1.3180    1.3430 f         1 247     -0.263300
     16 HAB         0.3790   -0.4040   -2.1860 ha        1 247      0.078500
     17 HAD         2.7590   -0.4010   -2.1260 ha        1 247      0.077500
     18 HOAK        4.6520    0.5190   -0.0570 ho        1 247      0.407000
     19 HAF         2.6480   -0.1770    1.9960 ha        1 247      0.075500
     20 HAC         0.2640   -0.1740    1.9410 ha        1 247      0.075500
     21 HAG        -1.6510   -0.7280   -1.0360 h1        1 247      0.078700
     22 HAJ1       -1.8890   -0.7290    1.6680 hn        1 247      0.361800
     23 HAJ2       -1.2120   -1.8960    1.0230 hn        1 247      0.361800
@<TRIPOS>BOND
     1    1    7 3   
     2    1   16 1   
     3    2    3 3   
     4    2   17 1   
     5    3    4 1   
     6    4   18 1   
     7    5    6 3   
     8    5   19 1   
     9    6   20 1   
    10    7    8 1   
    11    8    9 1   
    12    8   10 1   
    13    8   21 1   
    14    9   22 1   
    15    9   23 1   
    16   10   11 1   
    17   10   14 1   
    18   10   15 1   
    19   11   12 1   
    20   11   13 1   
@<TRIPOS>SUBSTRUCTURE
     1 247         1 TEMP              0 ****  ****    0 ROOT
