@<TRIPOS>MOLECULE
247
   24    24     1     0     0
SMALL
bcc


@<TRIPOS>ATOM
      1 CAB         0.0930   -0.4160    0.0560 ca        1 247     -0.063500
      2 CAD         1.4830   -0.4080    0.1020 ca        1 247     -0.186500
      3 CAE         2.1280   -0.0760    1.3030 ca        1 247      0.157100
      4 OAK         3.4930   -0.0380    1.4280 oh        1 247     -0.486100
      5 CAF         1.3850    0.2470    2.4540 ca        1 247     -0.186500
      6 CAC        -0.0020    0.2370    2.3870 ca        1 247     -0.063500
      7 CAA        -0.6580   -0.0870    1.1910 ca        1 247     -0.195300
      8 CAG        -2.1510   -0.0940    1.1570 c3        1 247      0.122800
      9 NAJ        -2.6700    1.0380    0.3270 nz        1 247     -0.865600
     10 CAH        -2.8240   -1.4460    0.6420 c3        1 247      0.248600
     11 CAI        -4.3970   -1.3730    0.9910 c         1 247      0.924600
     12 OAM        -4.9080   -2.3840    1.4800 o         1 247     -0.737300
     13 OAL        -4.9450   -0.2580    0.7320 o         1 247     -0.737300
     14 F1         -2.6020   -1.6180   -0.7090 f         1 247     -0.230300
     15 F2         -2.1980   -2.5270    1.1970 f         1 247     -0.230300
     16 HAB        -0.4190   -0.7150   -0.8740 ha        1 247      0.147000
     17 HAD         2.0690   -0.6760   -0.7890 ha        1 247      0.154500
     18 HOAK        3.8840   -0.3380    0.5930 ho        1 247      0.428000
     19 HAF         1.9110    0.4920    3.3880 ha        1 247      0.154500
     20 HAC        -0.5870    0.4720    3.2910 ha        1 247      0.147000
     21 HAG        -2.5650    0.0460    2.2020 hx        1 247      0.119700
     22 HAJ1       -2.3740    1.9280    0.7140 hn        1 247      0.459800
     23 HAJ2       -3.7350    0.9490    0.3210 hn        1 247      0.459800
     24 HAJ3       -2.3210    0.9430   -0.6260 hn        1 247      0.459800
@<TRIPOS>BOND
     1    1    2 ar  
     2    1    7 ar  
     3    1   16 1   
     4    2    3 ar  
     5    2   17 1   
     6    3    4 1   
     7    3    5 ar  
     8    4   18 1   
     9    5    6 ar  
    10    5   19 1   
    11    6    7 ar  
    12    6   20 1   
    13    7    8 1   
    14    8    9 1   
    15    8   10 1   
    16    8   21 1   
    17    9   22 1   
    18    9   23 1   
    19    9   24 1   
    20   10   11 1   
    21   10   14 1   
    22   10   15 1   
    23   11   12 1   
    24   11   13 1   
@<TRIPOS>SUBSTRUCTURE
     1 247         1 TEMP              0 ****  ****    0 ROOT
