@<TRIPOS>MOLECULE
247
   24    24     1     0     0
SMALL
bcc


@<TRIPOS>ATOM
      1 CAB         0.0940   -0.4240    0.0590 ca        1 247     -0.063500
      2 CAD         1.4840   -0.4140    0.1070 ca        1 247     -0.186500
      3 CAE         2.1270   -0.0670    1.3060 ca        1 247      0.157100
      4 OAK         3.4920   -0.0260    1.4320 oh        1 247     -0.486100
      5 CAF         1.3820    0.2670    2.4520 ca        1 247     -0.186500
      6 CAC        -0.0040    0.2540    2.3830 ca        1 247     -0.063500
      7 CAA        -0.6580   -0.0840    1.1890 ca        1 247     -0.195300
      8 CAG        -2.1520   -0.0940    1.1540 c3        1 247      0.122800
      9 NAJ        -2.6710    1.0280    0.3110 n4        1 247     -0.865600
     10 CAH        -2.8210   -1.4520    0.6510 c3        1 247      0.248600
     11 CAI        -4.3950   -1.3780    0.9970 c         1 247      0.924600
     12 OAM        -4.9050   -2.3850    1.4960 o         1 247     -0.737300
     13 OAL        -4.9440   -0.2670    0.7280 o         1 247     -0.737300
     14 F1         -2.5980   -1.6370   -0.6970 f         1 247     -0.230300
     15 F2         -2.1950   -2.5270    1.2190 f         1 247     -0.230300
     16 HAB        -0.4160   -0.7330   -0.8680 ha        1 247      0.147000
     17 HAD         2.0720   -0.6900   -0.7800 ha        1 247      0.154500
     18 HOAK        3.8840   -0.3340    0.6000 ho        1 247      0.428000
     19 HAF         1.9070    0.5230    3.3840 ha        1 247      0.154500
     20 HAC        -0.5910    0.4970    3.2840 ha        1 247      0.147000
     21 HAG        -2.5670    0.0560    2.1970 hx        1 247      0.119700
     22 HAJ1       -3.7360    0.9380    0.3050 hn        1 247      0.459800
     23 HAJ2       -2.3770    1.9230    0.6890 hn        1 247      0.459800
     24 HAJ3       -2.3210    0.9240   -0.6410 hn        1 247      0.459800
@<TRIPOS>BOND
     1    1    2 ar  
     2    1    7 ar  
     3    1   16 1   
     4    2    3 ar  
     5    2   17 1   
     6    3    4 1   
     7    3    5 ar  
     8    4   18 1   
     9    5    6 ar  
    10    5   19 1   
    11    6    7 ar  
    12    6   20 1   
    13    7    8 1   
    14    8    9 1   
    15    8   10 1   
    16    8   21 1   
    17    9   22 1   
    18    9   23 1   
    19    9   24 1   
    20   10   11 1   
    21   10   14 1   
    22   10   15 1   
    23   11   12 1   
    24   11   13 1   
@<TRIPOS>SUBSTRUCTURE
     1 247         1 TEMP              0 ****  ****    0 ROOT
