@<TRIPOS>MOLECULE
24A
   59    61     1     0     0
SMALL
bcc


@<TRIPOS>ATOM
      1 C0A         7.9820   -0.4770   -0.7500 c3        1 24A     -0.121100
      2 C1A         7.3700    0.0190    0.5530 c3        1 24A      0.054300
      3 N9A         6.2140    0.8480    0.4130 na        1 24A     -0.281000
      4 C4A         4.8820    0.4090    0.2630 ca        1 24A      0.463800
      5 N3A         4.3450   -0.8270    0.4390 nb        1 24A     -0.765000
      6 C2A         2.9860   -0.8610    0.2410 ca        1 24A      0.719300
      7 N1A         2.1800    0.1830   -0.1040 nb        1 24A     -0.741000
      8 C6A         2.7100    1.4350   -0.2620 ca        1 24A      0.748200
      9 C5A         4.1230    1.6070   -0.0870 ca        1 24A     -0.246200
     10 N7A         4.9820    2.7130   -0.1730 nc        1 24A     -0.535100
     11 C8A         6.2010    2.2320    0.1000 cd        1 24A      0.369700
     12 N6A         1.9050    2.5070   -0.6340 nh        1 24A     -0.699300
     13 CR1         0.4900    2.4010   -0.4650 ca        1 24A      0.094600
     14 CR2        -0.2440    1.4740   -1.2290 ca        1 24A     -0.163500
     15 CR3        -1.6000    1.2840   -0.9620 ca        1 24A     -0.040000
     16 CR4        -2.2280    2.0080    0.0410 ca        1 24A     -0.335500
     17 CR5        -1.5290    2.9910    0.7310 ca        1 24A     -0.040000
     18 CR6        -0.1740    3.2010    0.4910 ca        1 24A     -0.163500
     19 PA         -3.7880    1.6310    0.5070 py        1 24A      1.339800
     20 OA1        -4.5830    1.6520   -0.9120 oh        1 24A     -0.846400
     21 OA2        -4.3280    2.7610    1.2980 o         1 24A     -0.919500
     22 CAB        -3.7310    0.1850    1.0560 c2        1 24A     -0.737000
     23 PB         -4.1140   -1.8440    0.0580 p4        1 24A      1.655300
     24 OB1        -4.5120   -1.3190   -1.2780 o         1 24A     -0.888167
     25 OB2        -2.7490   -2.4450    0.1460 o         1 24A     -0.888167
     26 OB3        -5.1530   -2.3710    0.9750 o         1 24A     -0.936967
     27 NS1        -0.6250   -3.8220   -1.3550 n3        1 24A     -0.914800
     28 CS1         0.2570   -4.2570   -0.2870 c3        1 24A      0.181500
     29 CS2         0.1780   -3.4330    1.0080 c3        1 24A     -0.099900
     30 CS3         0.8480   -2.0840    0.8740 c3        1 24A     -0.068400
     31 CS4         2.2980   -2.2190    0.4210 c3        1 24A     -0.096000
     32 CS5         2.3700   -2.9880   -0.8910 c3        1 24A     -0.068400
     33 CS6         1.7250   -4.3480   -0.7380 c3        1 24A     -0.099900
     34 H0A1        8.8710   -1.1090   -0.5100 hc        1 24A      0.043033
     35 H0A2        7.2490   -1.0940   -1.3240 hc        1 24A      0.043033
     36 H0A3        8.3100    0.3730   -1.3940 hc        1 24A      0.043033
     37 H1A1        7.0800   -0.8740    1.1800 h1        1 24A      0.057700
     38 H1A2        8.1480    0.6120    1.1180 h1        1 24A      0.057700
     39 H8A         7.1230    2.8210    0.1240 h5        1 24A      0.052800
     40 H6A         2.2920    3.4050   -0.4360 hn        1 24A      0.426800
     41 HR2         0.2510    0.8620   -1.9970 ha        1 24A      0.119000
     42 HR3        -2.1890    0.5350   -1.5220 ha        1 24A      0.173500
     43 HR5        -2.0860    3.5790    1.4820 ha        1 24A      0.173500
     44 HR6         0.3750    3.9620    1.0620 ha        1 24A      0.119000
     45 HA1        -4.7630    0.7820   -1.2820 ho        1 24A      0.487000
     46 HAB1       -2.7730   -0.2980    1.2720 ha        1 24A      0.019800
     47 HAB2       -4.5130   -0.1520    1.7460 ha        1 24A      0.019800
     48 HS11       -1.5760   -3.8190   -1.0080 hn        1 24A      0.377800
     49 HS12       -0.4120   -2.8710   -1.5970 hn        1 24A      0.377800
     50 HS22       -0.9130   -3.2520    1.2500 hc        1 24A      0.046450
     51 HS31        0.8160   -1.5480    1.8570 hc        1 24A      0.053450
     52 HS32        0.2520   -1.4720    0.1430 hc        1 24A      0.053450
     53 HS4         2.8640   -2.7920    1.2090 hc        1 24A      0.051700
     54 HS51        1.8470   -2.4070   -1.6950 hc        1 24A      0.053450
     55 HS52        3.4410   -3.1110   -1.1990 hc        1 24A      0.053450
     56 HS61        2.2870   -4.9410    0.0310 hc        1 24A      0.046450
     57 HS62        1.7950   -4.9010   -1.7100 hc        1 24A      0.046450
     58 HS1        -0.0690   -5.3110   -0.0260 h1        1 24A      0.026700
     59 HS21        0.6480   -4.0170    1.8390 hc        1 24A      0.046450
@<TRIPOS>BOND
     1    1    2 1   
     2    1   34 1   
     3    1   35 1   
     4    1   36 1   
     5    2    3 1   
     6    2   37 1   
     7    2   38 1   
     8    3    4 1   
     9    3   11 1   
    10    4    5 ar  
    11    4    9 ar  
    12    5    6 ar  
    13    6    7 ar  
    14    6   31 1   
    15    7    8 ar  
    16    8    9 ar  
    17    8   12 1   
    18    9   10 1   
    19   10   11 2   
    20   11   39 1   
    21   12   13 1   
    22   12   40 1   
    23   13   14 ar  
    24   13   18 ar  
    25   14   15 ar  
    26   14   41 1   
    27   15   16 ar  
    28   15   42 1   
    29   16   17 ar  
    30   16   19 1   
    31   17   18 ar  
    32   17   43 1   
    33   18   44 1   
    34   19   20 1   
    35   19   21 1   
    36   19   22 2   
    37   20   45 1   
    38   22   46 1   
    39   22   47 1   
    40   23   24 1   
    41   23   25 1   
    42   23   26 2   
    43   27   28 1   
    44   27   48 1   
    45   27   49 1   
    46   28   29 1   
    47   28   33 1   
    48   28   58 1   
    49   29   30 1   
    50   29   50 1   
    51   29   59 1   
    52   30   31 1   
    53   30   51 1   
    54   30   52 1   
    55   31   32 1   
    56   31   53 1   
    57   32   33 1   
    58   32   54 1   
    59   32   55 1   
    60   33   56 1   
    61   33   57 1   
@<TRIPOS>SUBSTRUCTURE
     1 24A         1 TEMP              0 ****  ****    0 ROOT
