@<TRIPOS>MOLECULE
24A
   59    55     1     0     0
SMALL
bcc


@<TRIPOS>ATOM
      1 C0A        -3.6090    1.6370   -4.3380 c3        1 24A     -0.238000
      2 C1A        -2.5140    0.5940   -4.1520 c3        1 24A     -0.004000
      3 N9A        -2.1950    0.4740   -2.7460 n3        1 24A     -0.197000
      4 C4A        -1.3380    0.9270   -1.7840 c1        1 24A      0.052000
      5 N3A        -0.3400    1.8600   -1.8130 n1        1 24A     -0.242000
      6 C2A         0.3500    2.1610   -0.6680 c1        1 24A      0.069000
      7 N1A         0.0420    1.5290    0.5040 n1        1 24A     -0.298000
      8 C6A        -0.9420    0.6080    0.5360 c1        1 24A      0.243000
      9 C5A        -1.6440    0.3010   -0.6240 c1        1 24A     -0.212000
     10 N7A        -2.6900   -0.5410   -0.8630 n1        1 24A     -0.041000
     11 C8A        -3.0260   -0.4310   -2.1740 c1        1 24A     -0.068000
     12 N6A        -1.2120    0.2140    1.8820 n3        1 24A     -0.223000
     13 CR1        -1.0350   -1.1440    2.2750 c2        1 24A     -0.014000
     14 CR2         0.2390   -1.6890    2.3310 c2        1 24A     -0.180000
     15 CR3         0.4090   -3.0270    2.6560 c1        1 24A     -0.065000
     16 CR4        -0.6980   -3.8210    2.9270 c1        1 24A     -0.649000
     17 CR5        -1.9710   -3.2770    2.8720 c1        1 24A     -0.047000
     18 CR6        -2.1410   -1.9380    2.5460 c1        1 24A     -0.121000
     19 PA         -0.4700   -5.5570    3.4360 p5        1 24A      2.998000
     20 OA1        -1.8800   -6.2040    3.7500 oh        1 24A     -0.881000
     21 OA2         0.3770   -5.6080    4.6510 o         1 24A     -1.248000
     22 CAB         0.3340   -6.4790    2.0980 c3        1 24A     -1.643000
     23 PB          1.0410   -8.0110    2.7600 p5        1 24A      1.601500
     24 OB1         0.6740   -9.1650    1.8600 o         1 24A     -0.883833
     25 OB2         0.4940   -8.2600    4.1450 o         1 24A     -0.883833
     26 OB3         2.5420   -7.8840    2.8270 o         1 24A     -0.883833
     27 NS1         3.5360    4.8640   -2.6170 n3        1 24A     -0.336000
     28 CS1         3.2350    5.3110   -1.2860 c3        1 24A     -0.033000
     29 CS2         3.5910    4.2080   -0.3060 c3        1 24A     -0.173000
     30 CS3         2.6710    3.0100   -0.4230 c3        1 24A     -0.155000
     31 CS4         1.2020    3.3970   -0.3550 c3        1 24A     -0.036000
     32 CS5         0.8470    4.4990   -1.3350 c3        1 24A     -0.155000
     33 CS6         1.7670    5.6970   -1.2180 c3        1 24A     -0.173000
     34 H0A1       -4.4880    1.2100   -4.2390 hc        1 24A      0.082667
     35 H0A2       -3.5090    2.3380   -3.6640 hc        1 24A      0.082667
     36 H0A3       -3.5360    2.0320   -5.2360 hc        1 24A      0.082667
     37 H1A1       -2.8250   -0.2720   -4.4920 h1        1 24A      0.095500
     38 H1A2       -1.7130    0.8690   -4.6460 h1        1 24A      0.095500
     39 H8A        -3.7170   -0.9480   -2.6350 DU        1 24A      0.208000
     40 H6A        -1.5380    0.8240    2.4800 hn        1 24A      0.224000
     41 HR2         1.0190   -1.1300    2.1400 ha        1 24A      0.102000
     42 HR3         1.3060   -3.4100    2.6950 ha        1 24A      0.174000
     43 HR5        -2.7520   -3.8470    3.0200 ha        1 24A      0.156000
     44 HR6        -3.0360   -1.5560    2.5070 ha        1 24A      0.116000
     45 HA1        -1.8780   -6.5330    4.5750 ho        1 24A      0.282000
     46 HAB1        1.0450   -5.9340    1.7080 hc        1 24A      0.131500
     47 HAB2       -0.3260   -6.6960    1.4090 hc        1 24A      0.131500
     48 HS11        3.3600    5.5350   -3.2100 hn        1 24A      0.140000
     49 HS12        4.4190    4.6360   -2.6690 hn        1 24A      0.140000
     50 HS1         3.7790    6.0980   -1.0870 h1        1 24A      0.082000
     51 HS21        4.5080    3.9190   -0.4750 hc        1 24A      0.079500
     52 HS22        3.5320    4.5630    0.6060 hc        1 24A      0.079500
     53 HS31        2.8690    2.3890    0.3040 hc        1 24A      0.092000
     54 HS32        2.8420    2.5640   -1.2760 hc        1 24A      0.092000
     55 HS4         0.9980    3.7000    0.5480 hc        1 24A      0.109000
     56 HS51       -0.0720    4.7880   -1.1650 hc        1 24A      0.092000
     57 HS52        0.9040    4.1440   -2.2440 hc        1 24A      0.092000
     58 HS61        1.5700    6.3190   -1.9460 hc        1 24A      0.079500
     59 HS62        1.5970    6.1450   -0.3640 hc        1 24A      0.079500
@<TRIPOS>BOND
     1    1    2 1   
     2    1   34 1   
     3    1   35 1   
     4    1   36 1   
     5    2    3 1   
     6    2   37 1   
     7    2   38 1   
     8    3    4 1   
     9    3   11 1   
    10    4    9 1   
    11    5    6 1   
    12    6   31 1   
    13    7    8 1   
    14    8   12 1   
    15   10   11 1   
    16   12   13 1   
    17   12   40 1   
    18   13   14 1   
    19   13   18 1   
    20   14   15 1   
    21   14   41 1   
    22   15   42 1   
    23   16   17 1   
    24   16   19 1   
    25   17   43 1   
    26   18   44 1   
    27   19   20 1   
    28   19   21 1   
    29   19   22 1   
    30   20   45 1   
    31   22   23 1   
    32   22   46 1   
    33   22   47 1   
    34   23   24 1   
    35   23   25 1   
    36   23   26 1   
    37   27   28 1   
    38   27   48 1   
    39   27   49 1   
    40   28   29 1   
    41   28   33 1   
    42   28   50 1   
    43   29   30 1   
    44   29   51 1   
    45   29   52 1   
    46   30   31 1   
    47   30   53 1   
    48   30   54 1   
    49   31   32 1   
    50   31   55 1   
    51   32   33 1   
    52   32   56 1   
    53   32   57 1   
    54   33   58 1   
    55   33   59 1   
@<TRIPOS>SUBSTRUCTURE
     1 24A         1 TEMP              0 ****  ****    0 ROOT
