@<TRIPOS>MOLECULE
24A
   59    62     1     0     0
SMALL
bcc


@<TRIPOS>ATOM
      1 C0A         0.0000    0.0000    0.0000 c3        1 24A     -0.017100
      2 C1A         1.5310    0.0000    0.0000 c3        1 24A     -0.024700
      3 N9A         2.0190    0.0000    1.3810 na        1 24A      0.192000
      4 C4A         2.1940   -1.1020    2.1800 ca        1 24A      0.278800
      5 N3A         2.0250   -2.4110    2.0240 nb        1 24A     -0.726000
      6 C2A         2.2950   -3.2440    3.0070 ca        1 24A      0.617300
      7 N1A         2.7460   -2.8350    4.1790 nb        1 24A     -0.694000
      8 C6A         2.9520   -1.5460    4.4240 ca        1 24A      0.553200
      9 C5A         2.6780   -0.6170    3.4070 ca        1 24A     -0.264200
     10 N7A         2.7640    0.7300    3.2980 nc        1 24A     -0.479100
     11 C8A         2.3770    1.0940    2.1100 cd        1 24A      0.168700
     12 N6A         3.4260   -1.1280    5.6580 nu        1 24A     -0.219300
     13 CR1         3.5830   -2.0500    6.6960 ca        1 24A     -0.092400
     14 CR2         2.7130   -3.1260    6.8070 ca        1 24A     -0.163000
     15 CR3         2.8730   -4.0390    7.8320 ca        1 24A     -0.050500
     16 CR4         3.8930   -3.8750    8.7520 ca        1 24A     -0.019500
     17 CR5         4.7580   -2.8010    8.6460 ca        1 24A     -0.050500
     18 CR6         4.6060   -1.8880    7.6210 ca        1 24A     -0.163000
     19 PA          4.0970   -5.0720   10.1000 p5        1 24A      0.374700
     20 OA1         2.6630   -5.6910   10.4900 o         1 24A     -0.608000
     21 OA2         4.6790   -4.3930   11.2790 o         1 24A     -0.608000
     22 CAB         5.2100   -6.4120    9.5600 c3        1 24A     -0.008800
     23 PB          5.4150   -7.6140   10.9140 p5        1 24A      0.546700
     24 OB1         3.9800   -8.2330   11.3040 o         1 24A     -0.578833
     25 OB2         6.3970   -8.7970   10.4370 o         1 24A     -0.578833
     26 OB3         5.9960   -6.9350   12.0930 o         1 24A     -0.578833
     27 NS1         2.6690   -7.2580    5.1190 nz        1 24A     -0.275600
     28 CS1         2.1670   -7.4810    3.7570 c3        1 24A     -0.025500
     29 CS2         0.8410   -6.7410    3.5740 c3        1 24A     -0.025400
     30 CS3         1.0590   -5.2430    3.7980 c3        1 24A     -0.040400
     31 CS4         2.0800   -4.7180    2.7860 c3        1 24A     -0.071000
     32 CS5         3.4060   -5.4600    2.9690 c3        1 24A     -0.040400
     33 CS6         3.1880   -6.9580    2.7450 c3        1 24A     -0.025400
     34 H0A1       -0.3610    0.5760   -0.8430 hc        1 24A      0.010700
     35 H0A2       -0.3610   -1.0180   -0.0770 hc        1 24A      0.010700
     36 H0A3       -0.3610    0.4420    0.9210 hc        1 24A      0.010700
     37 H1A1        1.8920   -0.8840   -0.5110 h1        1 24A      0.026200
     38 H1A2        1.8920    0.8840   -0.5110 h1        1 24A      0.026200
     39 H8A         2.3440    2.1170    1.7540 h5        1 24A      0.017800
     40 H6A         3.6390   -0.1620    5.8100 hn        1 24A      0.280800
     41 HR2         1.8560   -3.1990    6.1490 ha        1 24A      0.089000
     42 HR3         2.1960   -4.8800    7.9190 ha        1 24A      0.114500
     43 HR5         5.5560   -2.6760    9.3680 ha        1 24A      0.114500
     44 HR6         5.2520   -1.0200    7.5690 ha        1 24A      0.089000
     45 HAB1        6.1750   -5.9960    9.2970 hc        1 24A      0.003700
     46 HAB2        4.7840   -6.9090    8.6970 hc        1 24A      0.003700
     47 HS11        2.8870   -8.1390    5.5430 hn        1 24A      0.209133
     48 HS12        3.4940   -6.6920    5.0830 hn        1 24A      0.209133
     49 HS31        0.1200   -4.7200    3.6660 hc        1 24A      0.036200
     50 HS32        1.4310   -5.0800    4.8020 hc        1 24A      0.036200
     51 HS4         1.7090   -4.8880    1.7820 hc        1 24A      0.031700
     52 HS51        4.1270   -5.0900    2.2490 hc        1 24A      0.036200
     53 HS52        3.7750   -5.2960    3.9740 hc        1 24A      0.036200
     54 HS61        4.1270   -7.4820    2.8770 hc        1 24A      0.015700
     55 HS62        2.8160   -7.1210    1.7410 hc        1 24A      0.015700
     56 HS1         2.0120   -8.5410    3.5940 hx        1 24A      0.032700
     57 HS21        0.1200   -7.1110    4.2920 hc        1 24A      0.015700
     58 HS13        1.9690   -6.7910    5.6600 hn        1 24A      0.209133
     59 HS22        0.4740   -6.9040    2.5680 hc        1 24A      0.015700
@<TRIPOS>BOND
     1    1    2 1   
     2    1   34 1   
     3    1   35 1   
     4    1   36 1   
     5    2    3 1   
     6    2   37 1   
     7    2   38 1   
     8    3    4 1   
     9    3   11 1   
    10    4    5 ar  
    11    4    9 ar  
    12    5    6 ar  
    13    6    7 ar  
    14    6   31 1   
    15    7    8 ar  
    16    8    9 ar  
    17    8   12 1   
    18    9   10 1   
    19   10   11 2   
    20   11   39 1   
    21   12   13 1   
    22   12   40 1   
    23   13   14 ar  
    24   13   18 ar  
    25   14   15 ar  
    26   14   41 1   
    27   15   16 ar  
    28   15   42 1   
    29   16   17 ar  
    30   16   19 1   
    31   17   18 ar  
    32   17   43 1   
    33   18   44 1   
    34   19   20 1   
    35   19   21 1   
    36   19   22 1   
    37   22   23 1   
    38   22   45 1   
    39   22   46 1   
    40   23   24 1   
    41   23   25 1   
    42   23   26 1   
    43   27   28 1   
    44   27   47 1   
    45   27   48 1   
    46   27   58 1   
    47   28   29 1   
    48   28   33 1   
    49   28   56 1   
    50   29   30 1   
    51   29   57 1   
    52   29   59 1   
    53   30   31 1   
    54   30   49 1   
    55   30   50 1   
    56   31   32 1   
    57   31   51 1   
    58   32   33 1   
    59   32   52 1   
    60   32   53 1   
    61   33   54 1   
    62   33   55 1   
@<TRIPOS>SUBSTRUCTURE
     1 24A         1 TEMP              0 ****  ****    0 ROOT
