@<TRIPOS>MOLECULE
24B
   16    14     1     0     0
SMALL
bcc


@<TRIPOS>ATOM
      1 F2          0.4930    0.5780   -0.6570 f         1 24B     -0.075000
      2 F4          1.2150    0.0500   -3.1990 f         1 24B     -0.085000
      3 O1          2.3000    0.5440    4.7740 oh        1 24B     -0.416000
      4 C1          2.0690    0.2220    1.0790 c2        1 24B     -0.138000
      5 C2          1.7250    0.1940   -0.2710 c2        1 24B      0.245000
      6 C3          2.6420   -0.2380   -1.3110 c2        1 24B     -0.276000
      7 C4          2.3830   -0.2940   -2.6380 c2        1 24B      0.098000
      8 C5          4.4500   -0.5190    1.8420 c1        1 24B     -0.185000
      9 C6          3.3640   -0.1850    1.4640 c1        1 24B     -0.121000
     10 HO1         1.4290    0.8120    4.4600 ho        1 24B      0.203000
     11 H3          3.6420   -0.5460   -0.9540 ha        1 24B      0.185000
     12 H5          3.1410   -0.6370   -3.3690 h4        1 24B      0.163000
     13 H6          5.4090   -0.8140    2.1860 ha        1 24B      0.230000
     14 H71         2.7450    0.3010    3.9540 ho        1 24B      0.203000
     15 H72         0.1820    0.9560    1.8020 ha        1 24B      0.055000
     16 C7          1.1900    0.6390    2.1080 c1        1 24B     -0.086000
@<TRIPOS>BOND
     1    1    5 1   
     2    2    7 1   
     3    3   10 1   
     4    3   14 1   
     5    4    5 1   
     6    4    9 1   
     7    4   16 1   
     8    5    6 1   
     9    6    7 1   
    10    6   11 1   
    11    7   12 1   
    12    8    9 1   
    13    8   13 1   
    14   15   16 1   
@<TRIPOS>SUBSTRUCTURE
     1 24B         1 TEMP              0 ****  ****    0 ROOT
