@<TRIPOS>MOLECULE
24B
   16    13     1     0     0
SMALL
bcc


@<TRIPOS>ATOM
      1 F2         -2.2440   -0.2220   -0.8310 f         1 24B     -0.101100
      2 F4          1.8760   -0.1540   -3.0720 f         1 24B     -0.101100
      3 O1         -1.7140    1.1790    1.8170 oh        1 24B     -0.591800
      4 C1         -0.1780   -0.1260    0.4610 c1        1 24B     -0.146100
      5 C2         -0.8840   -0.1620   -0.8070 c1        1 24B      0.123600
      6 C3         -0.1900   -0.1610   -1.9650 c1        1 24B     -0.136000
      7 C4          1.1930   -0.1240   -1.9410 c1        1 24B      0.123600
      8 C5          1.8820   -0.0880   -0.6970 c1        1 24B     -0.136000
      9 C6          1.1810   -0.0900    0.4800 c1        1 24B     -0.014500
     10 C7         -0.9530   -0.0720    1.7560 c3        1 24B      0.141500
     11 HO1        -1.9370    1.3410    2.6440 ho        1 24B      0.402000
     12 H3         -0.6330   -0.2230   -2.7640 ha        1 24B      0.103500
     13 H5          2.8930   -0.0620   -0.6800 ha        1 24B      0.103500
     14 H6          1.6420   -0.0660    1.3040 ha        1 24B      0.100500
     15 H71        -0.3470   -0.1140    2.4940 h1        1 24B      0.064200
     16 H72        -1.5880   -0.8540    1.8010 h1        1 24B      0.064200
@<TRIPOS>BOND
     1    1    5 1   
     2    2    7 1   
     3    3   10 1   
     4    3   11 1   
     5    4    9 3   
     6    4   10 1   
     7    5    6 3   
     8    6   12 1   
     9    7    8 3   
    10    8   13 1   
    11    9   14 1   
    12   10   15 1   
    13   10   16 1   
@<TRIPOS>SUBSTRUCTURE
     1 24B         1 TEMP              0 ****  ****    0 ROOT
