@<TRIPOS>MOLECULE
24B
   16    16     1     0     0
SMALL
bcc


@<TRIPOS>ATOM
      1 F2         -2.2860    0.0020    0.6970 f         1 24B     -0.137900
      2 F4          0.3990   -0.0010   -3.2350 f         1 24B     -0.134900
      3 O1          1.2410   -0.0000    3.0010 oh        1 24B     -0.600800
      4 C1          0.1020    0.0010    0.9160 ca        1 24B     -0.135300
      5 C2         -1.0620    0.0010    0.1150 ca        1 24B      0.147900
      6 C3         -0.9720    0.0010   -1.2860 ca        1 24B     -0.207000
      7 C4          0.2990   -0.0000   -1.8840 ca        1 24B      0.150900
      8 C5          1.4630   -0.0010   -1.0940 ca        1 24B     -0.182000
      9 C6          1.3510   -0.0010    0.2920 ca        1 24B     -0.057000
     10 HO1         1.0920    0.0000    3.9540 ho        1 24B      0.408000
     11 H3         -1.8810    0.0020   -1.9030 ha        1 24B      0.165000
     12 H5          2.4500   -0.0020   -1.5780 ha        1 24B      0.154000
     13 H6          2.2590   -0.0010    0.9180 ha        1 24B      0.166000
     14 H71        -0.6190   -0.9130    2.7220 h1        1 24B      0.040700
     15 H72        -0.6170    0.9160    2.7220 h1        1 24B      0.040700
     16 C7         -0.0450    0.0010    2.4010 c3        1 24B      0.180700
@<TRIPOS>BOND
     1    1    5 1   
     2    2    7 1   
     3    3   10 1   
     4    3   16 1   
     5    4    5 ar  
     6    4    9 ar  
     7    4   16 1   
     8    5    6 ar  
     9    6    7 ar  
    10    6   11 1   
    11    7    8 ar  
    12    8    9 ar  
    13    8   12 1   
    14    9   13 1   
    15   14   16 1   
    16   15   16 1   
@<TRIPOS>SUBSTRUCTURE
     1 24B         1 TEMP              0 ****  ****    0 ROOT
