@<TRIPOS>MOLECULE
24B
   16    14     1     0     0
SMALL
bcc


@<TRIPOS>ATOM
      1 F2          0.4930    0.5660   -0.6610 f         1 24B     -0.075000
      2 F4          1.2670    0.1770   -3.2130 f         1 24B     -0.085000
      3 O1          2.2270    0.3530    4.7890 oh        1 24B     -0.416000
      4 C1          2.0590    0.1940    1.0810 c2        1 24B     -0.138000
      5 C2          1.7330    0.2120   -0.2740 c2        1 24B      0.245000
      6 C3          2.6800   -0.1380   -1.3190 c2        1 24B     -0.276000
      7 C4          2.4400   -0.1460   -2.6500 c2        1 24B      0.098000
      8 C5          4.4570   -0.4880    1.8450 c1        1 24B     -0.185000
      9 C6          3.3640   -0.1790    1.4660 c1        1 24B     -0.121000
     10 HO1         1.3500    0.6020    4.4750 ho        1 24B      0.203000
     11 H3          3.6860   -0.4220   -0.9610 ha        1 24B      0.185000
     12 H5          3.2200   -0.4270   -3.3850 h4        1 24B      0.163000
     13 H6          5.4230   -0.7600    2.1890 ha        1 24B      0.230000
     14 H71         2.6920    0.1650    3.9660 ho        1 24B      0.203000
     15 H72         0.1360    0.8230    1.8080 ha        1 24B      0.055000
     16 C7          1.1510    0.5300    2.1140 c1        1 24B     -0.086000
@<TRIPOS>BOND
     1    1    5 1   
     2    2    7 1   
     3    3   10 1   
     4    3   14 1   
     5    4    5 1   
     6    4    9 1   
     7    4   16 1   
     8    5    6 1   
     9    6    7 1   
    10    6   11 1   
    11    7   12 1   
    12    8    9 1   
    13    8   13 1   
    14   15   16 1   
@<TRIPOS>SUBSTRUCTURE
     1 24B         1 TEMP              0 ****  ****    0 ROOT
