@<TRIPOS>MOLECULE
24D
   44    46     1     0     0
SMALL
bcc


@<TRIPOS>ATOM
      1 CL1         0.0840    0.5300   -0.5480 cl        1 24D     -0.017400
      2 C2          1.7510    0.2750   -0.5030 ca        1 24D      0.058400
      3 C3          2.5420    0.9650    0.4250 ca        1 24D     -0.116000
      4 C4          3.9170    0.7510    0.4550 ca        1 24D     -0.072000
      5 C5          4.5210   -0.1440   -0.4350 ca        1 24D     -0.184300
      6 C6          6.0050   -0.2800   -0.4350 c3        1 24D      0.180100
      7 N7          6.4290   -1.6610   -0.0290 n4        1 24D     -0.670800
      8 C8          7.9550   -1.7960    0.0340 c         1 24D      0.618100
      9 O9          8.5680   -0.7260   -0.0280 o         1 24D     -0.484100
     10 N10         8.5040   -3.0440    0.2910 n         1 24D     -0.380800
     11 C11         9.9020   -3.2190   -0.1250 c3        1 24D      0.053000
     12 C12        10.0500   -3.8240   -1.5160 c3        1 24D     -0.133400
     13 C13         9.2210   -5.1010   -1.6660 c3        1 24D      0.155100
     14 C14         7.7770   -4.9050   -1.2070 c3        1 24D     -0.133400
     15 C15         7.7400   -4.2790    0.1830 c3        1 24D      0.053000
     16 O16         9.2320   -5.3560   -3.0800 os        1 24D     -0.418100
     17 C17         9.1060   -6.6750   -3.4980 ca        1 24D      0.829300
     18 N18         9.4460   -6.8250   -4.8250 nb        1 24D     -0.720000
     19 C19         9.3150   -8.0780   -5.3010 ca        1 24D      0.458700
     20 C20         8.8680   -9.1590   -4.5140 ca        1 24D     -0.379600
     21 C21         8.5510   -8.8810   -3.1750 ca        1 24D      0.458700
     22 N22         8.6570   -7.6470   -2.6390 nb        1 24D     -0.720000
     23 C23         3.7160   -0.8350   -1.3570 ca        1 24D      0.031400
     24 CL24        4.4140   -1.9420   -2.4490 cl        1 24D     -0.081400
     25 C25         2.3380   -0.6300   -1.3990 ca        1 24D     -0.109000
     26 H3          2.0800    1.6800    1.1270 ha        1 24D      0.178000
     27 H4          4.5340    1.3090    1.1800 ha        1 24D      0.157000
     28 H6          6.4270   -0.0850   -1.4660 hx        1 24D      0.125700
     29 H6A         6.4840    0.4540    0.2790 hx        1 24D      0.125700
     30 HN7         6.0520   -2.3340   -0.7120 hn        1 24D      0.457800
     31 H11        10.4350   -2.2260   -0.0830 h1        1 24D      0.089450
     32 H11A       10.3620   -3.9020    0.6470 h1        1 24D      0.089450
     33 H12        11.1330   -4.0640   -1.6860 hc        1 24D      0.084450
     34 H12A        9.7480   -3.0870   -2.3060 hc        1 24D      0.084450
     35 H13         9.7030   -5.9370   -1.0910 h1        1 24D      0.087700
     36 H14         7.2330   -4.2670   -1.9510 hc        1 24D      0.084450
     37 H14A        7.2550   -5.8970   -1.1640 hc        1 24D      0.084450
     38 H15         8.2200   -4.9930    0.9190 h1        1 24D      0.089450
     39 H15A        6.6770   -4.1400    0.5200 h1        1 24D      0.089450
     40 H19         9.5870   -8.2120   -6.3660 h4        1 24D      0.042600
     41 H20         8.7760  -10.1690   -4.9300 ha        1 24D      0.171000
     42 H21         8.1940   -9.6710   -2.4880 h4        1 24D      0.042600
     43 H25         1.7140   -1.1690   -2.1330 ha        1 24D      0.185000
     44 H72         6.0330   -1.8760    0.8920 hn        1 24D      0.457800
@<TRIPOS>BOND
     1    1    2 1   
     2    2    3 ar  
     3    2   25 ar  
     4    3    4 ar  
     5    3   26 1   
     6    4    5 ar  
     7    4   27 1   
     8    5    6 1   
     9    5   23 ar  
    10    6    7 1   
    11    6   28 1   
    12    6   29 1   
    13    7    8 1   
    14    7   30 1   
    15    7   44 1   
    16    8    9 2   
    17    8   10 1   
    18   10   11 1   
    19   10   15 1   
    20   11   12 1   
    21   11   31 1   
    22   11   32 1   
    23   12   13 1   
    24   12   33 1   
    25   12   34 1   
    26   13   14 1   
    27   13   16 1   
    28   13   35 1   
    29   14   15 1   
    30   14   36 1   
    31   14   37 1   
    32   15   38 1   
    33   15   39 1   
    34   16   17 1   
    35   17   18 ar  
    36   17   22 ar  
    37   18   19 ar  
    38   19   20 ar  
    39   19   40 1   
    40   20   21 ar  
    41   20   41 1   
    42   21   22 ar  
    43   21   42 1   
    44   23   24 1   
    45   23   25 ar  
    46   25   43 1   
@<TRIPOS>SUBSTRUCTURE
     1 24D         1 TEMP              0 ****  ****    0 ROOT
