@<TRIPOS>MOLECULE
24D
   44    46     1     0     0
SMALL
bcc


@<TRIPOS>ATOM
      1 CL1         0.0860    0.5300   -0.5000 cl        1 24D     -0.017400
      2 C2          1.7540    0.2750   -0.4650 ca        1 24D      0.058400
      3 C3          2.5490    0.9610    0.4610 ca        1 24D     -0.116000
      4 C4          3.9250    0.7470    0.4830 ca        1 24D     -0.072000
      5 C5          4.5240   -0.1440   -0.4140 ca        1 24D     -0.184300
      6 C6          6.0080   -0.2800   -0.4230 c3        1 24D      0.180100
      7 N7          6.4330   -1.6630   -0.0240 n4        1 24D     -0.670800
      8 C8          7.9600   -1.7990    0.0310 c         1 24D      0.618100
      9 O9          8.5730   -0.7290   -0.0320 o         1 24D     -0.484100
     10 N10         8.5100   -3.0470    0.2820 n         1 24D     -0.380800
     11 C11         9.9070   -3.2210   -0.1390 c3        1 24D      0.053000
     12 C12        10.0490   -3.8230   -1.5320 c3        1 24D     -0.133400
     13 C13         9.2190   -5.1000   -1.6820 c3        1 24D      0.155100
     14 C14         7.7770   -4.9050   -1.2170 c3        1 24D     -0.133400
     15 C15         7.7450   -4.2820    0.1750 c3        1 24D      0.053000
     16 O16         9.2260   -5.3540   -3.0960 os        1 24D     -0.418100
     17 C17         9.0990   -6.6720   -3.5150 ca        1 24D      0.829300
     18 N18         9.4370   -6.8210   -4.8430 nb        1 24D     -0.720000
     19 C19         9.3040   -8.0730   -5.3200 ca        1 24D      0.458700
     20 C20         8.8580   -9.1550   -4.5340 ca        1 24D     -0.379600
     21 C21         8.5430   -8.8780   -3.1930 ca        1 24D      0.458700
     22 N22         8.6510   -7.6450   -2.6570 nb        1 24D     -0.720000
     23 C23         3.7140   -0.8320   -1.3340 ca        1 24D      0.031400
     24 CL24        4.4050   -1.9350   -2.4340 cl        1 24D     -0.081400
     25 C25         2.3350   -0.6270   -1.3680 ca        1 24D     -0.109000
     26 H3          2.0910    1.6730    1.1690 ha        1 24D      0.178000
     27 H4          4.5450    1.3020    1.2070 ha        1 24D      0.157000
     28 H6          6.4240   -0.0810   -1.4550 hx        1 24D      0.125700
     29 H6A         6.4900    0.4500    0.2920 hx        1 24D      0.125700
     30 HN7         6.0540   -2.3340   -0.7080 hn        1 24D      0.457800
     31 H11        10.4400   -2.2290   -0.0970 h1        1 24D      0.089200
     32 H11A       10.3690   -3.9060    0.6300 h1        1 24D      0.089200
     33 H12         9.7440   -3.0850   -2.3200 hc        1 24D      0.084700
     34 H12A       11.1320   -4.0630   -1.7070 hc        1 24D      0.084700
     35 H13         9.7030   -5.9380   -1.1100 h1        1 24D      0.087700
     36 H14         7.2550   -5.8970   -1.1750 hc        1 24D      0.084700
     37 H14A        7.2310   -4.2660   -1.9580 hc        1 24D      0.084700
     38 H15         8.2290   -4.9980    0.9070 h1        1 24D      0.089200
     39 H15A        6.6840   -4.1440    0.5160 h1        1 24D      0.089200
     40 H19         9.5740   -8.2060   -6.3860 h4        1 24D      0.042600
     41 H20         8.7650  -10.1640   -4.9500 ha        1 24D      0.171000
     42 H21         8.1870   -9.6690   -2.5070 h4        1 24D      0.042600
     43 H25         1.7080   -1.1630   -2.1010 ha        1 24D      0.185000
     44 H72         6.0420   -1.8830    0.8970 hn        1 24D      0.457800
@<TRIPOS>BOND
     1    1    2 1   
     2    2    3 ar  
     3    2   25 ar  
     4    3    4 ar  
     5    3   26 1   
     6    4    5 ar  
     7    4   27 1   
     8    5    6 1   
     9    5   23 ar  
    10    6    7 1   
    11    6   28 1   
    12    6   29 1   
    13    7    8 1   
    14    7   30 1   
    15    7   44 1   
    16    8    9 2   
    17    8   10 1   
    18   10   11 1   
    19   10   15 1   
    20   11   12 1   
    21   11   31 1   
    22   11   32 1   
    23   12   13 1   
    24   12   33 1   
    25   12   34 1   
    26   13   14 1   
    27   13   16 1   
    28   13   35 1   
    29   14   15 1   
    30   14   36 1   
    31   14   37 1   
    32   15   38 1   
    33   15   39 1   
    34   16   17 1   
    35   17   18 ar  
    36   17   22 ar  
    37   18   19 ar  
    38   19   20 ar  
    39   19   40 1   
    40   20   21 ar  
    41   20   41 1   
    42   21   22 ar  
    43   21   42 1   
    44   23   24 1   
    45   23   25 ar  
    46   25   43 1   
@<TRIPOS>SUBSTRUCTURE
     1 24D         1 TEMP              0 ****  ****    0 ROOT
