@<TRIPOS>MOLECULE
24D
   43    41     1     0     0
SMALL
bcc


@<TRIPOS>ATOM
      1 CL1        -8.8170   -1.0580   -1.0170 cl        1 24D     -0.004000
      2 C2         -7.1640   -1.3110   -0.6010 c2        1 24D     -0.049000
      3 C3         -6.7470   -1.1040    0.6780 c1        1 24D     -0.125000
      4 C4         -5.4020   -1.2220    0.9980 c1        1 24D     -0.089000
      5 C5         -4.4800   -1.5530    0.0090 c1        1 24D     -0.114000
      6 C6         -3.0110   -1.7930    0.3780 c2        1 24D     -0.006000
      7 N7         -2.2390   -0.6850   -0.0320 n         1 24D     -0.331000
      8 C8         -1.4600    0.0620    0.9460 c2        1 24D      0.363000
      9 O9         -2.0360    0.6140    1.9210 o         1 24D     -0.399000
     10 N10        -0.0170    0.0810    0.8550 n         1 24D     -0.302000
     11 C11         0.8310    0.7220    1.8480 c3        1 24D     -0.032500
     12 C12         1.8160    1.7000    1.2230 c3        1 24D     -0.180000
     13 C13         2.5910    1.0790    0.0980 c3        1 24D      0.040000
     14 C14         1.7050    0.4360   -0.8960 c3        1 24D     -0.180000
     15 C15         0.7180   -0.5320   -0.2500 c3        1 24D     -0.032500
     16 O16         3.3680    2.1080   -0.5580 os        1 24D     -0.172000
     17 C17         4.7120    1.7440   -0.5580 c2        1 24D      0.154000
     18 N18         5.2010    0.9070   -1.5460 n2        1 24D     -0.231000
     19 C19         6.5180    0.6010   -1.5820 c1        1 24D     -0.005000
     20 C20         7.3640    1.1190   -0.6420 c1        1 24D     -0.144000
     21 C21         6.8700    1.9570    0.3470 c1        1 24D     -0.144000
     22 N22         5.5570    2.2600    0.3800 n1        1 24D     -0.165000
     23 C23        -4.9080   -1.7620   -1.2880 c2        1 24D     -0.049000
     24 CL24       -3.7920   -2.2430   -2.4880 cl        1 24D     -0.017000
     25 C25        -6.2350   -1.6440   -1.5990 c2        1 24D     -0.125000
     26 H3         -7.4070   -0.8680    1.3820 ha        1 24D      0.154000
     27 H4         -5.1140   -1.0790    1.8840 ha        1 24D      0.162000
     28 H6         -2.9270   -1.9130    1.3720 h4        1 24D      0.122000
     29 H6A        -2.6940   -2.5860   -0.0690 h4        1 24D      0.122000
     30 HN7        -2.2290   -0.4220   -0.9590 hn        1 24D      0.210000
     31 H11         1.3640   -0.0080    2.3570 h1        1 24D      0.090250
     32 H11A        0.2880    1.1820    2.4550 h1        1 24D      0.090250
     33 H12         1.3190    2.4790    0.8780 hc        1 24D      0.109250
     34 H12A        2.4320    1.9990    1.9020 hc        1 24D      0.109250
     35 H13         3.2060    0.3990    0.4670 h1        1 24D      0.114000
     36 H14         1.2130    1.1150   -1.3560 hc        1 24D      0.109250
     37 H14A        2.2710   -0.0680   -1.5620 hc        1 24D      0.109250
     38 H15         1.2120   -1.3100    0.0910 h1        1 24D      0.090250
     39 H15A        0.0530   -0.8460   -0.9540 h1        1 24D      0.090250
     40 H19         6.8660    0.0070   -2.2840 ha        1 24D      0.166000
     41 H20         8.2830    0.9060   -0.6650 ha        1 24D      0.164000
     42 H21         7.4820    2.3330    1.0300 ha        1 24D      0.164000
     43 H25        -6.5610   -1.8040   -2.5930 ha        1 24D      0.162000
@<TRIPOS>BOND
     1    1    2 1   
     2    2    3 1   
     3    2   25 1   
     4    3   26 1   
     5    4    5 1   
     6    4   27 1   
     7    5   23 1   
     8    6    7 1   
     9    6   28 1   
    10    6   29 1   
    11    7    8 1   
    12    7   30 1   
    13    8    9 1   
    14    8   10 1   
    15   10   11 1   
    16   10   15 1   
    17   11   12 1   
    18   11   31 1   
    19   11   32 1   
    20   12   13 1   
    21   12   33 1   
    22   12   34 1   
    23   13   14 1   
    24   13   16 1   
    25   13   35 1   
    26   14   15 1   
    27   14   36 1   
    28   14   37 1   
    29   15   38 1   
    30   15   39 1   
    31   16   17 1   
    32   17   18 1   
    33   17   22 1   
    34   18   19 1   
    35   19   40 1   
    36   20   21 1   
    37   20   41 1   
    38   21   42 1   
    39   23   24 1   
    40   23   25 1   
    41   25   43 1   
@<TRIPOS>SUBSTRUCTURE
     1 24D         1 TEMP              0 ****  ****    0 ROOT
