@<TRIPOS>MOLECULE
24D
   44    46     1     0     0
SMALL
bcc


@<TRIPOS>ATOM
      1 Cl1         0.1090    0.5690   -0.5500 cl        1 24D     -0.017400
      2 C2          1.7740    0.3020   -0.4960 ca        1 24D      0.058400
      3 C3          2.5630    0.9780    0.4420 ca        1 24D     -0.116000
      4 C4          3.9380    0.7550    0.4790 ca        1 24D     -0.072000
      5 C5          4.5410   -0.1360   -0.4170 ca        1 24D     -0.184300
      6 C6          6.0240   -0.2820   -0.4090 c3        1 24D      0.180100
      7 N7          6.4360   -1.6690   -0.0130 ny        1 24D     -0.670800
      8 C8          7.9610   -1.8160    0.0570 c         1 24D      0.618100
      9 O9          8.5810   -0.7500    0.0080 o         1 24D     -0.484100
     10 N10         8.4990   -3.0700    0.3040 n         1 24D     -0.380800
     11 C11         9.8990   -3.2510   -0.1070 c3        1 24D      0.053000
     12 C12        10.0480   -3.8430   -1.5040 c3        1 24D     -0.133400
     13 C13         9.2100   -5.1120   -1.6710 c3        1 24D      0.155100
     14 C14         7.7660   -4.9110   -1.2160 c3        1 24D     -0.133400
     15 C15         7.7270   -4.2980    0.1810 c3        1 24D      0.053000
     16 O16         9.2270   -5.3540   -3.0870 os        1 24D     -0.418100
     17 C17         9.0930   -6.6670   -3.5190 ca        1 24D      0.829300
     18 N18         9.4370   -6.8060   -4.8460 nb        1 24D     -0.720000
     19 C19         9.2990   -8.0530   -5.3350 ca        1 24D      0.458700
     20 C20         8.8420   -9.1390   -4.5610 ca        1 24D     -0.379600
     21 C21         8.5210   -8.8730   -3.2200 ca        1 24D      0.458700
     22 N22         8.6330   -7.6440   -2.6720 nb        1 24D     -0.720000
     23 C23         3.7370   -0.8120   -1.3500 ca        1 24D      0.031400
     24 Cl24        4.4330   -1.9140   -2.4480 cl        1 24D     -0.081400
     25 C25         2.3600   -0.5980   -1.3980 ca        1 24D     -0.109000
     26 H3          2.1020    1.6890    1.1490 ha        1 24D      0.178000
     27 H4          4.5530    1.3010    1.2130 ha        1 24D      0.157000
     28 H6          6.4530   -0.0800   -1.4350 hx        1 24D      0.125700
     29 H6A         6.5030    0.4420    0.3160 hx        1 24D      0.125700
     30 HN7         6.0580   -2.3340   -0.7050 hn        1 24D      0.457800
     31 H11        10.4380   -2.2630   -0.0530 h1        1 24D      0.089450
     32 H11A       10.3500   -3.9450    0.6600 h1        1 24D      0.089450
     33 H12        11.1300   -4.0890   -1.6720 hc        1 24D      0.084450
     34 H12A        9.7550   -3.0960   -2.2880 hc        1 24D      0.084450
     35 H13         9.6840   -5.9580   -1.1020 h1        1 24D      0.087700
     36 H14         7.2300   -4.2620   -1.9560 hc        1 24D      0.084450
     37 H14A        7.2370   -5.9000   -1.1850 hc        1 24D      0.084450
     38 H15         8.2000   -5.0230    0.9110 h1        1 24D      0.089450
     39 H15A        6.6640   -4.1550    0.5140 h1        1 24D      0.089450
     40 H19         9.5740   -8.1780   -6.4000 h4        1 24D      0.042600
     41 H20         8.7440  -10.1440   -4.9870 ha        1 24D      0.171000
     42 H21         8.1550   -9.6670   -2.5420 h4        1 24D      0.042600
     43 H25         1.7370   -1.1260   -2.1410 ha        1 24D      0.185000
     44 H72         6.0340   -1.8910    0.9030 hn        1 24D      0.457800
@<TRIPOS>BOND
     1    1    2 1   
     2    2    3 ar  
     3    2   25 ar  
     4    3    4 ar  
     5    3   26 1   
     6    4    5 ar  
     7    4   27 1   
     8    5    6 1   
     9    5   23 ar  
    10    6    7 1   
    11    6   28 1   
    12    6   29 1   
    13    7    8 1   
    14    7   30 1   
    15    7   44 1   
    16    8    9 2   
    17    8   10 1   
    18   10   11 1   
    19   10   15 1   
    20   11   12 1   
    21   11   31 1   
    22   11   32 1   
    23   12   13 1   
    24   12   33 1   
    25   12   34 1   
    26   13   14 1   
    27   13   16 1   
    28   13   35 1   
    29   14   15 1   
    30   14   36 1   
    31   14   37 1   
    32   15   38 1   
    33   15   39 1   
    34   16   17 1   
    35   17   18 ar  
    36   17   22 ar  
    37   18   19 ar  
    38   19   20 ar  
    39   19   40 1   
    40   20   21 ar  
    41   20   41 1   
    42   21   22 ar  
    43   21   42 1   
    44   23   24 1   
    45   23   25 ar  
    46   25   43 1   
@<TRIPOS>SUBSTRUCTURE
     1 24D         1 TEMP              0 ****  ****    0 ROOT
