@<TRIPOS>MOLECULE
24D
   43    45     1     0     0
SMALL
bcc


@<TRIPOS>ATOM
      1 CL1         7.4480    0.7120   -1.9860 cl        1 24D     -0.083400
      2 C2          6.0060    0.6280   -1.0930 ca        1 24D      0.028400
      3 C3          5.3110    1.8010   -0.7800 ca        1 24D     -0.126000
      4 C4          4.1320    1.7240   -0.0430 ca        1 24D     -0.089000
      5 C5          3.6370    0.4900    0.3930 ca        1 24D     -0.120300
      6 C6          2.3810    0.4550    1.2210 c3        1 24D      0.118300
      7 N7          1.1970    0.0080    0.5300 n         1 24D     -0.522900
      8 C8          0.4370    0.9650   -0.1760 c         1 24D      0.728100
      9 O9          0.6400    2.1890    0.0190 o         1 24D     -0.635100
     10 N10        -0.5360    0.5420   -1.1310 n         1 24D     -0.423800
     11 C11        -1.3810    1.5960   -1.6750 c3        1 24D      0.070000
     12 C12        -2.6840    1.8310   -0.9130 c3        1 24D     -0.126400
     13 C13        -3.4460    0.5150   -0.7530 c3        1 24D      0.152100
     14 C14        -2.5610   -0.5560   -0.1300 c3        1 24D     -0.126400
     15 C15        -1.2640   -0.6970   -0.9310 c3        1 24D      0.070000
     16 O16        -4.5320    0.8460    0.1400 os        1 24D     -0.414100
     17 C17        -5.6340    0.0210    0.1620 ca        1 24D      0.851300
     18 N18        -6.5980    0.4750    1.0430 nb        1 24D     -0.724500
     19 C19        -7.7070   -0.2810    1.1100 ca        1 24D      0.456700
     20 C20        -7.8940   -1.4520    0.3480 ca        1 24D     -0.407600
     21 C21        -6.8460   -1.8170   -0.5130 ca        1 24D      0.456700
     22 N22        -5.7080   -1.1050   -0.6260 nb        1 24D     -0.724500
     23 C23         4.3370   -0.6770    0.0570 ca        1 24D      0.029400
     24 CL24        3.7610   -2.2080    0.5330 cl        1 24D     -0.094400
     25 C25         5.5240   -0.6170   -0.6800 ca        1 24D     -0.125000
     26 H3          5.6900    2.7790   -1.1150 ha        1 24D      0.154000
     27 H4          3.5700    2.6430    0.1940 ha        1 24D      0.162000
     28 H6          2.5350   -0.2520    2.0880 h1        1 24D      0.082700
     29 H6A         2.1850    1.4860    1.6390 h1        1 24D      0.082700
     30 HN7         1.2840   -0.8940    0.1130 hn        1 24D      0.298500
     31 H11        -0.8010    2.5610   -1.7070 h1        1 24D      0.065700
     32 H11A       -1.6210    1.2890   -2.7330 h1        1 24D      0.065700
     33 H12        -2.4730    2.2680    0.0970 hc        1 24D      0.071200
     34 H12A       -3.3130    2.5650   -1.4780 hc        1 24D      0.071200
     35 H13        -3.8400    0.1780   -1.7490 h1        1 24D      0.071700
     36 H14        -2.3380   -0.2810    0.9330 hc        1 24D      0.071200
     37 H14A       -3.0880   -1.5430   -0.1280 hc        1 24D      0.071200
     38 H15        -1.5220   -1.0770   -1.9640 h1        1 24D      0.065700
     39 H15A       -0.6250   -1.4790   -0.4400 h1        1 24D      0.065700
     40 H19        -8.4820    0.0760    1.8130 h4        1 24D      0.030100
     41 H20        -8.8100   -2.0460    0.4250 ha        1 24D      0.157000
     42 H21        -6.9070   -2.7200   -1.1470 h4        1 24D      0.030100
     43 H25         6.0700   -1.5390   -0.9330 ha        1 24D      0.162000
@<TRIPOS>BOND
     1    1    2 1   
     2    2    3 ar  
     3    2   25 ar  
     4    3    4 ar  
     5    3   26 1   
     6    4    5 ar  
     7    4   27 1   
     8    5    6 1   
     9    5   23 ar  
    10    6    7 1   
    11    6   28 1   
    12    6   29 1   
    13    7    8 1   
    14    7   30 1   
    15    8    9 2   
    16    8   10 1   
    17   10   11 1   
    18   10   15 1   
    19   11   12 1   
    20   11   31 1   
    21   11   32 1   
    22   12   13 1   
    23   12   33 1   
    24   12   34 1   
    25   13   14 1   
    26   13   16 1   
    27   13   35 1   
    28   14   15 1   
    29   14   36 1   
    30   14   37 1   
    31   15   38 1   
    32   15   39 1   
    33   16   17 1   
    34   17   18 ar  
    35   17   22 ar  
    36   18   19 ar  
    37   19   20 ar  
    38   19   40 1   
    39   20   21 ar  
    40   20   41 1   
    41   21   22 ar  
    42   21   42 1   
    43   23   24 1   
    44   23   25 ar  
    45   25   43 1   
@<TRIPOS>SUBSTRUCTURE
     1 24D         1 TEMP              0 ****  ****    0 ROOT
