@<TRIPOS>MOLECULE
24E
   42    46     1     0     0
SMALL
bcc


@<TRIPOS>ATOM
      1 C18         1.2080    0.5810    0.9360 ca        1 24E     -0.092500
      2 C19         2.1980    0.3450    1.8880 ca        1 24E     -0.184000
      3 C22         1.8450   -0.2330    3.1150 ca        1 24E      0.127100
      4 O3          2.7630   -0.4940    4.1060 oh        1 24E     -0.495100
      5 C21         0.5110   -0.5760    3.3910 ca        1 24E     -0.184000
      6 C20        -0.4610   -0.3330    2.4280 ca        1 24E     -0.092500
      7 C17        -0.1240    0.2470    1.1970 ca        1 24E     -0.129300
      8 C16        -1.1770    0.4900    0.1710 c3        1 24E      0.045200
      9 C10        -1.9010    1.7640    0.3680 cc        1 24E     -0.131600
     10 N1         -2.0970    2.3860    1.6090 na        1 24E     -0.147100
     11 C9         -2.5410    2.5690   -0.5850 cd        1 24E      0.070100
     12 O1         -2.5890    2.3110   -1.9340 os        1 24E     -0.200200
     13 C4         -3.2830    3.2630   -2.6740 ca        1 24E      0.159100
     14 C6         -3.3280    3.0010   -4.0560 ca        1 24E     -0.167000
     15 C5         -3.9970    3.8900   -4.8870 ca        1 24E     -0.077000
     16 C3         -4.6170    5.0280   -4.3600 ca        1 24E     -0.172000
     17 C1         -4.5680    5.2810   -2.9950 ca        1 24E     -0.048000
     18 C2         -3.9000    4.4030   -2.1270 ca        1 24E     -0.210600
     19 C7         -3.8610    4.6910   -0.6770 c         1 24E      0.635300
     20 O2         -4.4090    5.6930   -0.1840 o         1 24E     -0.577100
     21 C8         -3.1330    3.7010    0.0770 cd        1 24E     -0.286600
     22 C11        -2.8280    3.5600    1.4580 cc        1 24E      0.094700
     23 C12        -3.1670    4.4090    2.5610 cc        1 24E     -0.128100
     24 S1         -4.0790    5.8080    2.4260 ss        1 24E      0.241200
     25 C15        -4.0090    6.1540    4.0330 cc        1 24E     -0.231100
     26 C14        -3.2810    5.2120    4.7450 cd        1 24E     -0.161000
     27 C13        -2.7890    4.1940    3.8890 cd        1 24E     -0.154000
     28 H1          1.4800    1.0350   -0.0290 ha        1 24E      0.139000
     29 H2          3.2440    0.6100    1.6780 ha        1 24E      0.145000
     30 H3          3.6350   -0.2200    3.7860 ho        1 24E      0.421000
     31 H4          0.2570   -1.0340    4.3570 ha        1 24E      0.145000
     32 H5         -1.5070   -0.6100    2.6310 ha        1 24E      0.139000
     33 H6         -1.9220   -0.3560    0.1890 hc        1 24E      0.069700
     34 H7         -0.7230    0.5090   -0.8590 hc        1 24E      0.069700
     35 H8         -1.7110    2.0530    2.4570 hn        1 24E      0.311700
     36 H9         -2.8360    2.1020   -4.4530 ha        1 24E      0.153000
     37 H10        -4.0390    3.6950   -5.9700 ha        1 24E      0.138000
     38 H11        -5.1430    5.7240   -5.0300 ha        1 24E      0.140000
     39 H12        -5.0520    6.1740   -2.5660 ha        1 24E      0.159000
     40 H13        -4.4830    7.0280    4.4810 h4        1 24E      0.173000
     41 H14        -3.1010    5.2360    5.8210 ha        1 24E      0.151000
     42 H15        -2.1890    3.3570    4.2500 ha        1 24E      0.142000
@<TRIPOS>BOND
     1    1    2 ar  
     2    1    7 ar  
     3    1   28 1   
     4    2    3 ar  
     5    2   29 1   
     6    3    4 1   
     7    3    5 ar  
     8    4   30 1   
     9    5    6 ar  
    10    5   31 1   
    11    6    7 ar  
    12    6   32 1   
    13    7    8 1   
    14    8    9 1   
    15    8   33 1   
    16    8   34 1   
    17    9   10 1   
    18    9   11 2   
    19   10   22 1   
    20   10   35 1   
    21   11   12 1   
    22   11   21 1   
    23   12   13 1   
    24   13   14 ar  
    25   13   18 ar  
    26   14   15 ar  
    27   14   36 1   
    28   15   16 ar  
    29   15   37 1   
    30   16   17 ar  
    31   16   38 1   
    32   17   18 ar  
    33   17   39 1   
    34   18   19 1   
    35   19   20 2   
    36   19   21 1   
    37   21   22 2   
    38   22   23 1   
    39   23   24 1   
    40   23   27 2   
    41   24   25 1   
    42   25   26 2   
    43   25   40 1   
    44   26   27 1   
    45   26   41 1   
    46   27   42 1   
@<TRIPOS>SUBSTRUCTURE
     1 24E         1 TEMP              0 ****  ****    0 ROOT
