@<TRIPOS>MOLECULE
24E
   42    46     1     0     0
SMALL
bcc


@<TRIPOS>ATOM
      1 C18         1.2210    0.6020    0.9370 ca        1 24E     -0.092500
      2 C19         2.2180    0.3830    1.8840 ca        1 24E     -0.184000
      3 C22         1.8780   -0.1850    3.1200 ca        1 24E      0.127100
      4 O3          2.8040   -0.4310    4.1060 oh        1 24E     -0.495100
      5 C21         0.5480   -0.5340    3.4090 ca        1 24E     -0.184000
      6 C20        -0.4320   -0.3060    2.4500 ca        1 24E     -0.092500
      7 C17        -0.1080    0.2630    1.2100 ca        1 24E     -0.129300
      8 C16        -1.1700    0.4890    0.1900 c3        1 24E      0.045200
      9 C10        -1.8990    1.7620    0.3780 cc        1 24E     -0.131600
     10 N1         -2.0900    2.3950    1.6130 na        1 24E     -0.147100
     11 C9         -2.5480    2.5530   -0.5790 cd        1 24E      0.070100
     12 O1         -2.6030    2.2810   -1.9250 os        1 24E     -0.200200
     13 C4         -3.3060    3.2220   -2.6710 ca        1 24E      0.159100
     14 C6         -3.3580    2.9450   -4.0500 ca        1 24E     -0.167000
     15 C5         -4.0370    3.8220   -4.8860 ca        1 24E     -0.077000
     16 C3         -4.6590    4.9630   -4.3670 ca        1 24E     -0.172000
     17 C1         -4.6030    5.2300   -3.0050 ca        1 24E     -0.048000
     18 C2         -3.9250    4.3640   -2.1320 ca        1 24E     -0.210600
     19 C7         -3.8790    4.6680   -0.6860 c         1 24E      0.635300
     20 O2         -4.4290    5.6720   -0.2000 o         1 24E     -0.577100
     21 C8         -3.1420    3.6890    0.0750 cd        1 24E     -0.286600
     22 C11        -2.8280    3.5640    1.4550 cc        1 24E      0.094700
     23 C12        -3.1640    4.4230    2.5510 cc        1 24E     -0.128100
     24 S1         -4.0840    5.8160    2.4070 ss        1 24E      0.241200
     25 C15        -4.0070    6.1790    4.0100 cc        1 24E     -0.231100
     26 C14        -3.2710    5.2470    4.7270 cd        1 24E     -0.161000
     27 C13        -2.7780    4.2230    3.8800 cd        1 24E     -0.154000
     28 H1          1.4830    1.0480   -0.0350 ha        1 24E      0.139000
     29 H2          3.2610    0.6500    1.6640 ha        1 24E      0.145000
     30 H3          3.6720   -0.1540    3.7780 ho        1 24E      0.421000
     31 H4          0.3030   -0.9830    4.3810 ha        1 24E      0.145000
     32 H5         -1.4750   -0.5870    2.6630 ha        1 24E      0.139000
     33 H6         -1.9090   -0.3610    0.2230 hc        1 24E      0.069700
     34 H7         -0.7220    0.4990   -0.8430 hc        1 24E      0.069700
     35 H8         -1.6970    2.0730    2.4620 hn        1 24E      0.311700
     36 H9         -2.8650    2.0440   -4.4400 ha        1 24E      0.153000
     37 H10        -4.0840    3.6150   -5.9660 ha        1 24E      0.138000
     38 H11        -5.1930    5.6490   -5.0410 ha        1 24E      0.140000
     39 H12        -5.0890    6.1250   -2.5830 ha        1 24E      0.159000
     40 H13        -4.4820    7.0550    4.4520 h4        1 24E      0.173000
     41 H14        -3.0850    5.2830    5.8020 ha        1 24E      0.151000
     42 H15        -2.1730    3.3920    4.2450 ha        1 24E      0.142000
@<TRIPOS>BOND
     1    1    2 ar  
     2    1    7 ar  
     3    1   28 1   
     4    2    3 ar  
     5    2   29 1   
     6    3    4 1   
     7    3    5 ar  
     8    4   30 1   
     9    5    6 ar  
    10    5   31 1   
    11    6    7 ar  
    12    6   32 1   
    13    7    8 1   
    14    8    9 1   
    15    8   33 1   
    16    8   34 1   
    17    9   10 1   
    18    9   11 2   
    19   10   22 1   
    20   10   35 1   
    21   11   12 1   
    22   11   21 1   
    23   12   13 1   
    24   13   14 ar  
    25   13   18 ar  
    26   14   15 ar  
    27   14   36 1   
    28   15   16 ar  
    29   15   37 1   
    30   16   17 ar  
    31   16   38 1   
    32   17   18 ar  
    33   17   39 1   
    34   18   19 1   
    35   19   20 2   
    36   19   21 1   
    37   21   22 2   
    38   22   23 1   
    39   23   24 1   
    40   23   27 2   
    41   24   25 1   
    42   25   26 2   
    43   25   40 1   
    44   26   27 1   
    45   26   41 1   
    46   27   42 1   
@<TRIPOS>SUBSTRUCTURE
     1 24E         1 TEMP              0 ****  ****    0 ROOT
