@<TRIPOS>MOLECULE
24F
   64    66     1     0     0
SMALL
bcc


@<TRIPOS>ATOM
      1 C01         1.1590   -1.2890    0.3690 ca        1 24F      0.114100
      2 C02         2.3510   -1.8600    0.8560 ca        1 24F     -0.171000
      3 C03         2.8420   -1.4650    2.0910 ca        1 24F     -0.111500
      4 C04         2.1680   -0.4970    2.8600 ca        1 24F     -0.008800
      5 C05         0.9820    0.0580    2.3610 ca        1 24F     -0.111500
      6 C06         0.4730   -0.3310    1.1230 ca        1 24F     -0.171000
      7 O07         0.7600   -1.7540   -0.8690 os        1 24F     -0.331900
      8 C08        -0.4540   -1.1940   -1.3850 c3        1 24F      0.129400
      9 C09         2.6950   -0.0830    4.1370 ce        1 24F     -0.272500
     10 C10         1.8390    0.2640    5.2500 cf        1 24F     -0.050000
     11 C11         2.5600    0.5560    6.3650 cf        1 24F     -0.178000
     12 C12         4.0240    0.4860    6.1320 c2        1 24F     -0.807600
     13 S13         4.2140    0.0190    4.5420 s4        1 24F      0.529400
     14 S14         4.9190    0.8270    7.2550 s4        1 24F      1.764100
     15 N15         5.5170   -1.4350    7.7750 n3        1 24F     -0.986800
     16 O16         6.2230    1.1600    7.0110 o         1 24F     -0.495900
     17 O17         4.4200    1.0750    8.5040 o         1 24F     -0.495900
     18 C18         4.9510   -2.3880    6.8220 c3        1 24F      0.048500
     19 C19         5.6470   -2.2260    5.4590 c         1 24F      0.664100
     20 OM0         4.9650   -1.6060    4.5060 os        1 24F     -0.464900
     21 O21         6.7840   -2.6300    5.2040 o         1 24F     -0.524000
     22 C22         4.9610   -3.8550    7.2920 c3        1 24F     -0.071700
     23 C23         6.3440   -4.3460    7.6860 c3        1 24F     -0.116400
     24 C24         6.3050   -5.8230    8.0820 c3        1 24F      0.076000
     25 N25         5.6540   -6.6930    7.1190 n         1 24F     -0.405800
     26 C26         4.3720   -6.2080    6.6460 c3        1 24F      0.076000
     27 C27         4.3710   -4.7430    6.2060 c3        1 24F     -0.116400
     28 C28        -0.6780   -1.8520   -2.7280 c3        1 24F     -0.100100
     29 C29         6.4920   -7.4040    6.2510 c         1 24F      0.727100
     30 O30         5.8710   -7.9020    5.1270 os        1 24F     -0.442900
     31 O31         7.6850   -7.6910    6.4530 o         1 24F     -0.584000
     32 C32         6.6700   -8.7680    4.2840 c3        1 24F      0.160100
     33 C33         5.6620   -9.6080    3.5230 c3        1 24F     -0.111100
     34 C34         7.5240   -7.9240    3.3610 c3        1 24F     -0.111100
     35 H02         2.8750   -2.6130    0.2510 ha        1 24F      0.141500
     36 H03         3.7670   -1.9230    2.4820 ha        1 24F      0.141000
     37 H05         0.4460    0.8160    2.9510 ha        1 24F      0.141000
     38 H06        -0.4580    0.1210    0.7570 ha        1 24F      0.141500
     39 H08        -0.3370   -0.0840   -1.4930 h1        1 24F      0.036700
     40 H08A       -1.2970   -1.4150   -0.6790 h1        1 24F      0.036700
     41 H10         0.7490    0.2590    5.1770 ha        1 24F      0.157000
     42 H11         2.1650    0.8110    7.3500 ha        1 24F      0.162000
     43 HN15        5.1780   -1.6370    8.7010 hn        1 24F      0.395800
     44 H18         3.8610   -2.1020    6.6820 h1        1 24F      0.091700
     45 H22         4.2930   -3.9200    8.2000 hc        1 24F      0.048700
     46 H23         7.0580   -4.1920    6.8320 hc        1 24F      0.067700
     47 H23A        6.7310   -3.7690    8.5650 hc        1 24F      0.067700
     48 H24         7.3580   -6.1860    8.2580 h1        1 24F      0.069950
     49 H24A        5.7250   -5.9300    9.0440 h1        1 24F      0.069950
     50 H26         4.0120   -6.8490    5.7930 h1        1 24F      0.069950
     51 H26A        3.6520   -6.3300    7.5060 h1        1 24F      0.069950
     52 H27         3.3150   -4.4370    5.9920 hc        1 24F      0.067700
     53 H27A        4.9620   -4.6250    5.2590 hc        1 24F      0.067700
     54 H28        -1.6160   -1.4500   -3.1790 hc        1 24F      0.048367
     55 H28A        0.1780   -1.6430   -3.4130 hc        1 24F      0.048367
     56 H28B       -0.7710   -2.9580   -2.6090 hc        1 24F      0.048367
     57 H32         7.3200   -9.4150    4.9360 h1        1 24F      0.073700
     58 H33         4.9930   -8.9580    2.9110 hc        1 24F      0.049367
     59 H33A        6.2100  -10.3070    2.8480 hc        1 24F      0.049367
     60 H33B        5.0340  -10.1970    4.2320 hc        1 24F      0.049367
     61 H34         8.2400   -7.3140    3.9640 hc        1 24F      0.049367
     62 H34A        6.8870   -7.2360    2.7560 hc        1 24F      0.049367
     63 H34B        8.0990   -8.5870    2.6730 hc        1 24F      0.049367
     64 H152        6.5230   -1.5070    7.7780 hn        1 24F      0.395800
@<TRIPOS>BOND
     1    1    2 ar  
     2    1    6 ar  
     3    1    7 1   
     4    2    3 ar  
     5    2   35 1   
     6    3    4 ar  
     7    3   36 1   
     8    4    5 ar  
     9    4    9 1   
    10    5    6 ar  
    11    5   37 1   
    12    6   38 1   
    13    7    8 1   
    14    8   28 1   
    15    8   39 1   
    16    8   40 1   
    17    9   10 2   
    18    9   13 1   
    19   10   11 1   
    20   10   41 1   
    21   11   12 2   
    22   11   42 1   
    23   12   13 1   
    24   12   14 1   
    25   13   20 1   
    26   14   16 1   
    27   14   17 1   
    28   15   18 1   
    29   15   43 1   
    30   15   64 1   
    31   18   19 1   
    32   18   22 1   
    33   18   44 1   
    34   19   20 1   
    35   19   21 2   
    36   22   23 1   
    37   22   27 1   
    38   22   45 1   
    39   23   24 1   
    40   23   46 1   
    41   23   47 1   
    42   24   25 1   
    43   24   48 1   
    44   24   49 1   
    45   25   26 1   
    46   25   29 1   
    47   26   27 1   
    48   26   50 1   
    49   26   51 1   
    50   27   52 1   
    51   27   53 1   
    52   28   54 1   
    53   28   55 1   
    54   28   56 1   
    55   29   30 1   
    56   29   31 2   
    57   30   32 1   
    58   32   33 1   
    59   32   34 1   
    60   32   57 1   
    61   33   58 1   
    62   33   59 1   
    63   33   60 1   
    64   34   61 1   
    65   34   62 1   
    66   34   63 1   
@<TRIPOS>SUBSTRUCTURE
     1 24F         1 TEMP              0 ****  ****    0 ROOT
