@<TRIPOS>MOLECULE
24F
   63    57     1     0     0
SMALL
bcc


@<TRIPOS>ATOM
      1 C01        -0.5050    7.9940    3.1710 c1        1 24F      0.073000
      2 C02        -1.5590    7.0920    2.9880 c2        1 24F     -0.156000
      3 C03        -1.3150    5.8350    2.4030 c1        1 24F     -0.100000
      4 C04        -0.0370    5.4950    2.0100 c1        1 24F     -0.027000
      5 C05         1.0100    6.3960    2.1940 c1        1 24F     -0.078000
      6 C06         0.7680    7.6510    2.7780 c1        1 24F     -0.204000
      7 O07        -0.7170    9.2000    3.9200 o         1 24F     -0.219000
      8 C08        -1.0850   10.3160    3.1230 c3        1 24F     -0.022000
      9 C09         0.2220    4.2010    1.4720 c1        1 24F     -0.745500
     10 C10         0.3550    2.9680    2.2360 c1        1 24F     -0.103000
     11 C11         0.5580    1.7590    1.2110 c1        1 24F     -0.103000
     12 C12         0.5400    2.2990   -0.1410 c1        1 24F     -0.745500
     13 S13         0.3300    3.8430   -0.0360 ss        1 24F      0.713000
     14 S14         0.8820    1.3740   -1.6640 ss        1 24F      2.866000
     15 N15         0.0710   -0.0520   -1.6540 n2        1 24F     -0.867000
     16 O16         0.5580    2.1550   -2.8380 o         1 24F     -0.957000
     17 O17         2.2930    1.1700   -1.8470 o         1 24F     -0.957000
     18 C18         0.4700   -1.0900   -2.5090 c3        1 24F     -0.051000
     19 C19         1.9150   -1.3710   -2.3070 c2        1 24F      0.323000
     20 OM0         2.6100   -1.7780   -3.2620 o         1 24F     -0.560000
     21 O21         2.4410   -1.1720   -1.1910 o         1 24F     -0.560000
     22 C22        -0.3580   -2.3760   -2.1950 c3        1 24F     -0.084000
     23 C23        -0.1150   -2.7700   -0.7620 c3        1 24F     -0.190500
     24 C24        -0.7240   -4.1140   -0.4220 c3        1 24F     -0.043000
     25 N25        -0.3340   -5.1580   -1.3620 n         1 24F     -0.258000
     26 C26        -0.5740   -4.7790   -2.7830 c3        1 24F     -0.043000
     27 C27         0.0380   -3.4330   -3.1360 c3        1 24F     -0.190500
     28 C28        -1.6960   11.3620    3.9890 c3        1 24F     -0.217000
     29 C29        -0.3670   -6.5640   -0.9570 c2        1 24F      0.384000
     30 O30         0.3260   -7.5530   -1.7390 os        1 24F     -0.282000
     31 O31        -1.0060   -6.9030    0.0320 o         1 24F     -0.417000
     32 C32         0.2120   -8.8750   -1.2230 c3        1 24F      0.049000
     33 C33         0.3180   -9.8860   -2.3700 c3        1 24F     -0.228000
     34 C34         1.3240   -9.1260   -0.2260 c3        1 24F     -0.228000
     35 H02        -2.4400    7.3080    3.3180 ha        1 24F      0.144000
     36 H03        -2.0200    5.1780    2.3660 ha        1 24F      0.138000
     37 H05         1.9360    6.1330    1.9550 ha        1 24F      0.145000
     38 H06         1.4840    8.2390    2.9450 ha        1 24F      0.134000
     39 H08        -1.7030   10.0470    2.4750 h1        1 24F      0.077000
     40 H08A       -0.2620   10.6920    2.6680 h1        1 24F      0.077000
     41 H10         0.3270    2.8950    3.1850 DU        1 24F      0.191000
     42 H11         0.7400    0.8020    1.4590 DU        1 24F      0.191000
     43 HN15       -0.6860   -0.1450   -1.1410 hn        1 24F      0.262000
     44 H18         0.3130   -0.8170   -3.4610 h1        1 24F      0.102000
     45 H22        -1.2990   -2.1830   -2.3150 hc        1 24F      0.070000
     46 H23         0.8480   -2.8090   -0.6020 hc        1 24F      0.112500
     47 H23A       -0.5130   -2.0770   -0.1660 hc        1 24F      0.112500
     48 H24        -1.6690   -4.0320   -0.4330 h1        1 24F      0.093750
     49 H24A       -0.4410   -4.3710    0.4680 h1        1 24F      0.093750
     50 H26        -0.1950   -5.4530   -3.3520 h1        1 24F      0.093750
     51 H26A       -1.5790   -4.7370   -2.9470 h1        1 24F      0.093750
     52 H27         0.9860   -3.5140   -3.1280 hc        1 24F      0.112500
     53 H27A       -0.2550   -3.1770   -4.0450 hc        1 24F      0.112500
     54 H28        -2.5520   11.0310    4.3500 hc        1 24F      0.085000
     55 H28A       -1.8570   12.1770    3.4560 hc        1 24F      0.085000
     56 H28B       -1.0970   11.5670    4.7180 hc        1 24F      0.085000
     57 H32        -0.6620   -8.9770   -0.7750 h1        1 24F      0.104000
     58 H33         1.2230   -9.8510   -2.7570 hc        1 24F      0.085333
     59 H33A        0.1450  -10.7860   -2.0270 hc        1 24F      0.085333
     60 H33B       -0.3390   -9.6680   -3.0600 hc        1 24F      0.085333
     61 H34         1.1590   -8.6240    0.5680 hc        1 24F      0.085333
     62 H34A        1.3580  -10.1160    0.0000 hc        1 24F      0.085333
     63 H34B        2.2050   -8.8420   -0.6260 hc        1 24F      0.085333
@<TRIPOS>BOND
     1    1    2 1   
     2    1    6 1   
     3    2    3 1   
     4    2   35 1   
     5    3   36 1   
     6    4    5 1   
     7    5   37 1   
     8    6   38 1   
     9    7    8 1   
    10    8   28 1   
    11    8   39 1   
    12    8   40 1   
    13    9   10 1   
    14    9   13 1   
    15   10   11 1   
    16   11   12 1   
    17   12   13 1   
    18   14   16 1   
    19   14   17 1   
    20   15   18 1   
    21   15   43 1   
    22   18   19 1   
    23   18   22 1   
    24   18   44 1   
    25   19   20 1   
    26   19   21 1   
    27   22   23 1   
    28   22   27 1   
    29   22   45 1   
    30   23   24 1   
    31   23   46 1   
    32   23   47 1   
    33   24   25 1   
    34   24   48 1   
    35   24   49 1   
    36   25   26 1   
    37   25   29 1   
    38   26   27 1   
    39   26   50 1   
    40   26   51 1   
    41   27   52 1   
    42   27   53 1   
    43   28   54 1   
    44   28   55 1   
    45   28   56 1   
    46   29   30 1   
    47   29   31 1   
    48   30   32 1   
    49   32   33 1   
    50   32   34 1   
    51   32   57 1   
    52   33   58 1   
    53   33   59 1   
    54   33   60 1   
    55   34   61 1   
    56   34   62 1   
    57   34   63 1   
@<TRIPOS>SUBSTRUCTURE
     1 24F         1 TEMP              0 ****  ****    0 ROOT
