@<TRIPOS>MOLECULE
24F
   64    66     1     0     0
SMALL
bcc


@<TRIPOS>ATOM
      1 C01         1.1470   -1.2820    0.3850 ca        1 24F      0.114100
      2 C02         2.3440   -1.8450    0.8680 ca        1 24F     -0.171000
      3 C03         2.8280   -1.4560    2.1080 ca        1 24F     -0.111500
      4 C04         2.1430   -0.5020    2.8840 ca        1 24F     -0.008800
      5 C05         0.9530    0.0450    2.3890 ca        1 24F     -0.111500
      6 C06         0.4500   -0.3380    1.1460 ca        1 24F     -0.171000
      7 O07         0.7540   -1.7400   -0.8580 os        1 24F     -0.331900
      8 C08        -0.4650   -1.1880   -1.3710 c3        1 24F      0.129400
      9 C09         2.6640   -0.0940    4.1660 ce        1 24F     -0.272500
     10 C10         1.8030    0.2340    5.2800 cf        1 24F     -0.050000
     11 C11         2.5190    0.5230    6.3990 cf        1 24F     -0.178000
     12 C12         3.9830    0.4700    6.1690 c2        1 24F     -0.807600
     13 S13         4.1810    0.0200    4.5740 s4        1 24F      0.529400
     14 S14         4.8730    0.8090    7.2960 s4        1 24F      1.764100
     15 N15         5.4910   -1.4520    7.7970 n8        1 24F     -0.986800
     16 O16         6.1750    1.1570    7.0580 o         1 24F     -0.495900
     17 O17         4.3690    1.0410    8.5470 o         1 24F     -0.495900
     18 C18         4.9360   -2.4020    6.8330 c3        1 24F      0.048500
     19 C19         5.6350   -2.2200    5.4740 c         1 24F      0.664100
     20 OM0         4.9490   -1.5980    4.5250 os        1 24F     -0.464900
     21 O21         6.7760   -2.6110    5.2170 o         1 24F     -0.524000
     22 C22         4.9590   -3.8720    7.2890 c3        1 24F     -0.071700
     23 C23         6.3460   -4.3540    7.6820 c3        1 24F     -0.116400
     24 C24         6.3190   -5.8360    8.0650 c3        1 24F      0.076000
     25 N25         5.6780   -6.7030    7.0920 n         1 24F     -0.405800
     26 C26         4.3930   -6.2240    6.6200 c3        1 24F      0.076000
     27 C27         4.3790   -4.7560    6.1940 c3        1 24F     -0.116400
     28 C28        -0.6800   -1.8370   -2.7200 c3        1 24F     -0.100100
     29 C29         6.5260   -7.3970    6.2180 c         1 24F      0.727100
     30 O30         5.9110   -7.8890    5.0880 os        1 24F     -0.442900
     31 O31         7.7200   -7.6750    6.4200 o         1 24F     -0.584000
     32 C32         6.7200   -8.7390    4.2380 c3        1 24F      0.160100
     33 C33         5.7220   -9.5810    3.4660 c3        1 24F     -0.111100
     34 C34         7.5690   -7.8780    3.3260 c3        1 24F     -0.111100
     35 H02         2.8770   -2.5880    0.2580 ha        1 24F      0.141500
     36 H03         3.7580   -1.9080    2.4960 ha        1 24F      0.141000
     37 H05         0.4080    0.7930    2.9840 ha        1 24F      0.141000
     38 H06        -0.4850    0.1090    0.7820 ha        1 24F      0.141500
     39 H08        -1.3060   -1.4240   -0.6680 h1        1 24F      0.036700
     40 H08A       -0.3590   -0.0760   -1.4690 h1        1 24F      0.036700
     41 H10         0.7130    0.2180    5.2050 ha        1 24F      0.157000
     42 H11         2.1200    0.7650    7.3860 ha        1 24F      0.162000
     43 HN15        6.4980   -1.5150    7.8010 hn        1 24F      0.395800
     44 H18         3.8440   -2.1240    6.6940 h1        1 24F      0.091700
     45 H22         4.2900   -3.9530    8.1950 hc        1 24F      0.048700
     46 H23         7.0600   -4.1860    6.8310 hc        1 24F      0.067700
     47 H23A        6.7250   -3.7830    8.5680 hc        1 24F      0.067700
     48 H24         5.7380   -5.9570    9.0240 h1        1 24F      0.069950
     49 H24A        7.3750   -6.1900    8.2400 h1        1 24F      0.069950
     50 H26         3.6730   -6.3610    7.4780 h1        1 24F      0.069950
     51 H26A        4.0410   -6.8600    5.7600 h1        1 24F      0.069950
     52 H27         4.9710   -4.6230    5.2490 hc        1 24F      0.067700
     53 H27A        3.3210   -4.4570    5.9800 hc        1 24F      0.067700
     54 H28        -0.7620   -2.9450   -2.6110 hc        1 24F      0.048367
     55 H28A       -1.6220   -1.4410   -3.1690 hc        1 24F      0.048367
     56 H28B        0.1740   -1.6130   -3.4010 hc        1 24F      0.048367
     57 H32         7.3750   -9.3870    4.8850 h1        1 24F      0.073700
     58 H33         5.0970  -10.1830    4.1680 hc        1 24F      0.049367
     59 H33A        6.2780  -10.2680    2.7850 hc        1 24F      0.049367
     60 H33B        5.0490   -8.9310    2.8590 hc        1 24F      0.049367
     61 H34         8.2780   -7.2670    3.9370 hc        1 24F      0.049367
     62 H34A        6.9270   -7.1890    2.7270 hc        1 24F      0.049367
     63 H34B        8.1510   -8.5290    2.6320 hc        1 24F      0.049367
     64 H152        5.1520   -1.6660    8.7200 hn        1 24F      0.395800
@<TRIPOS>BOND
     1    1    2 ar  
     2    1    6 ar  
     3    1    7 1   
     4    2    3 ar  
     5    2   35 1   
     6    3    4 ar  
     7    3   36 1   
     8    4    5 ar  
     9    4    9 1   
    10    5    6 ar  
    11    5   37 1   
    12    6   38 1   
    13    7    8 1   
    14    8   28 1   
    15    8   39 1   
    16    8   40 1   
    17    9   10 2   
    18    9   13 1   
    19   10   11 1   
    20   10   41 1   
    21   11   12 2   
    22   11   42 1   
    23   12   13 1   
    24   12   14 1   
    25   13   20 1   
    26   14   16 1   
    27   14   17 1   
    28   15   18 1   
    29   15   43 1   
    30   15   64 1   
    31   18   19 1   
    32   18   22 1   
    33   18   44 1   
    34   19   20 1   
    35   19   21 2   
    36   22   23 1   
    37   22   27 1   
    38   22   45 1   
    39   23   24 1   
    40   23   46 1   
    41   23   47 1   
    42   24   25 1   
    43   24   48 1   
    44   24   49 1   
    45   25   26 1   
    46   25   29 1   
    47   26   27 1   
    48   26   50 1   
    49   26   51 1   
    50   27   52 1   
    51   27   53 1   
    52   28   54 1   
    53   28   55 1   
    54   28   56 1   
    55   29   30 1   
    56   29   31 2   
    57   30   32 1   
    58   32   33 1   
    59   32   34 1   
    60   32   57 1   
    61   33   58 1   
    62   33   59 1   
    63   33   60 1   
    64   34   61 1   
    65   34   62 1   
    66   34   63 1   
@<TRIPOS>SUBSTRUCTURE
     1 24F         1 TEMP              0 ****  ****    0 ROOT
