@<TRIPOS>MOLECULE
24F
   64    66     1     0     0
SMALL
bcc


@<TRIPOS>ATOM
      1 C01         1.1640   -1.2970    0.3670 ca        1 24F      0.114100
      2 C02         2.3560   -1.8660    0.8540 ca        1 24F     -0.171000
      3 C03         2.8470   -1.4690    2.0890 ca        1 24F     -0.111500
      4 C04         2.1730   -0.4990    2.8560 ca        1 24F     -0.008800
      5 C05         0.9880    0.0550    2.3560 ca        1 24F     -0.111500
      6 C06         0.4780   -0.3370    1.1190 ca        1 24F     -0.171000
      7 O07         0.7640   -1.7640   -0.8700 os        1 24F     -0.331900
      8 C08        -0.4510   -1.2070   -1.3870 c3        1 24F      0.129400
      9 C09         2.7010   -0.0810    4.1310 ce        1 24F     -0.272500
     10 C10         1.8450    0.2680    5.2430 cf        1 24F     -0.050000
     11 C11         2.5670    0.5620    6.3580 cf        1 24F     -0.178000
     12 C12         4.0300    0.4910    6.1250 c2        1 24F     -0.807600
     13 S13         4.2200    0.0210    4.5360 s4        1 24F      0.529400
     14 S14         4.9250    0.8330    7.2480 s4        1 24F      1.764100
     15 N15         5.5200   -1.4290    7.7720 n3        1 24F     -0.986800
     16 O16         6.2300    1.1630    7.0040 o         1 24F     -0.495900
     17 O17         4.4260    1.0840    8.4960 o         1 24F     -0.495900
     18 C18         4.9530   -2.3830    6.8190 c3        1 24F      0.048500
     19 C19         5.6510   -2.2240    5.4580 c         1 24F      0.664100
     20 OM0         4.9710   -1.6050    4.5030 os        1 24F     -0.464900
     21 O21         6.7870   -2.6310    5.2040 o         1 24F     -0.524000
     22 C22         4.9600   -3.8490    7.2920 c3        1 24F     -0.071700
     23 C23         6.3410   -4.3420    7.6880 c3        1 24F     -0.116400
     24 C24         6.2990   -5.8190    8.0860 c3        1 24F      0.076000
     25 N25         5.6470   -6.6890    7.1240 n         1 24F     -0.405800
     26 C26         4.3670   -6.2020    6.6490 c3        1 24F      0.076000
     27 C27         4.3680   -4.7380    6.2070 c3        1 24F     -0.116400
     28 C28        -0.6760   -1.8690   -2.7270 c3        1 24F     -0.100100
     29 C29         6.4850   -7.4020    6.2570 c         1 24F      0.727100
     30 O30         5.8640   -7.9000    5.1330 os        1 24F     -0.442900
     31 O31         7.6770   -7.6910    6.4600 o         1 24F     -0.584000
     32 C32         6.6620   -8.7670    4.2910 c3        1 24F      0.160100
     33 C33         5.6530   -9.6060    3.5290 c3        1 24F     -0.111100
     34 C34         7.5180   -7.9250    3.3680 c3        1 24F     -0.111100
     35 H02         2.8800   -2.6220    0.2520 ha        1 24F      0.141500
     36 H03         3.7720   -1.9250    2.4800 ha        1 24F      0.141000
     37 H05         0.4520    0.8150    2.9440 ha        1 24F      0.141000
     38 H06        -0.4530    0.1150    0.7520 ha        1 24F      0.141500
     39 H08        -1.2930   -1.4260   -0.6790 h1        1 24F      0.036700
     40 H08A       -0.3340   -0.0960   -1.4980 h1        1 24F      0.036700
     41 H10         0.7550    0.2630    5.1710 ha        1 24F      0.157000
     42 H11         2.1720    0.8190    7.3430 ha        1 24F      0.162000
     43 HN15        5.1800   -1.6300    8.6980 hn        1 24F      0.395800
     44 H18         3.8640   -2.0950    6.6780 h1        1 24F      0.091700
     45 H22         4.2910   -3.9120    8.1990 hc        1 24F      0.048700
     46 H23         6.7280   -3.7650    8.5670 hc        1 24F      0.067700
     47 H23A        7.0560   -4.1910    6.8340 hc        1 24F      0.067700
     48 H24         7.3510   -6.1830    8.2640 h1        1 24F      0.069950
     49 H24A        5.7180   -5.9230    9.0480 h1        1 24F      0.069950
     50 H26         4.0050   -6.8430    5.7970 h1        1 24F      0.069950
     51 H26A        3.6460   -6.3210    7.5090 h1        1 24F      0.069950
     52 H27         3.3130   -4.4300    5.9920 hc        1 24F      0.067700
     53 H27A        4.9600   -4.6220    5.2600 hc        1 24F      0.067700
     54 H28        -0.7690   -2.9740   -2.6050 hc        1 24F      0.048367
     55 H28A        0.1790   -1.6620   -3.4130 hc        1 24F      0.048367
     56 H28B       -1.6150   -1.4690   -3.1790 hc        1 24F      0.048367
     57 H32         7.3100   -9.4150    4.9430 h1        1 24F      0.073700
     58 H33         6.2010  -10.3060    2.8540 hc        1 24F      0.049367
     59 H33A        4.9860   -8.9540    2.9160 hc        1 24F      0.049367
     60 H33B        5.0230  -10.1930    4.2370 hc        1 24F      0.049367
     61 H34         6.8830   -7.2360    2.7620 hc        1 24F      0.049367
     62 H34A        8.2350   -7.3160    3.9710 hc        1 24F      0.049367
     63 H34B        8.0920   -8.5890    2.6800 hc        1 24F      0.049367
     64 H152        6.5250   -1.5040    7.7760 hn        1 24F      0.395800
@<TRIPOS>BOND
     1    1    2 ar  
     2    1    6 ar  
     3    1    7 1   
     4    2    3 ar  
     5    2   35 1   
     6    3    4 ar  
     7    3   36 1   
     8    4    5 ar  
     9    4    9 1   
    10    5    6 ar  
    11    5   37 1   
    12    6   38 1   
    13    7    8 1   
    14    8   28 1   
    15    8   39 1   
    16    8   40 1   
    17    9   10 2   
    18    9   13 1   
    19   10   11 1   
    20   10   41 1   
    21   11   12 2   
    22   11   42 1   
    23   12   13 1   
    24   12   14 1   
    25   13   20 1   
    26   14   16 1   
    27   14   17 1   
    28   15   18 1   
    29   15   43 1   
    30   15   64 1   
    31   18   19 1   
    32   18   22 1   
    33   18   44 1   
    34   19   20 1   
    35   19   21 2   
    36   22   23 1   
    37   22   27 1   
    38   22   45 1   
    39   23   24 1   
    40   23   46 1   
    41   23   47 1   
    42   24   25 1   
    43   24   48 1   
    44   24   49 1   
    45   25   26 1   
    46   25   29 1   
    47   26   27 1   
    48   26   50 1   
    49   26   51 1   
    50   27   52 1   
    51   27   53 1   
    52   28   54 1   
    53   28   55 1   
    54   28   56 1   
    55   29   30 1   
    56   29   31 2   
    57   30   32 1   
    58   32   33 1   
    59   32   34 1   
    60   32   57 1   
    61   33   58 1   
    62   33   59 1   
    63   33   60 1   
    64   34   61 1   
    65   34   62 1   
    66   34   63 1   
@<TRIPOS>SUBSTRUCTURE
     1 24F         1 TEMP              0 ****  ****    0 ROOT
