@<TRIPOS>MOLECULE
24F
   63    65     1     0     0
SMALL
bcc


@<TRIPOS>ATOM
      1 C01         5.4120    2.2470    0.4010 ca        1 24F      0.122100
      2 C02         4.6790    1.9720   -0.7690 ca        1 24F     -0.179000
      3 C03         3.8610    0.8530   -0.8120 ca        1 24F     -0.088000
      4 C04         3.7520   -0.0060    0.2970 ca        1 24F     -0.032000
      5 C05         4.4890    0.2840    1.4530 ca        1 24F     -0.088000
      6 C06         5.3180    1.4030    1.5130 ca        1 24F     -0.179000
      7 O07         6.2050    3.3770    0.3350 os        1 24F     -0.333900
      8 C08         6.8740    3.7420    1.5480 c3        1 24F      0.128400
      9 C09         2.8950   -1.1650    0.2450 cc        1 24F     -0.095100
     10 C10         3.1020   -2.3580    0.9420 cd        1 24F     -0.181000
     11 C11         2.0760   -3.2920    0.6740 cd        1 24F     -0.050000
     12 C12         1.1210   -2.7880   -0.2140 cc        1 24F     -0.427600
     13 S13         1.5040   -1.2510   -0.6560 ss        1 24F      0.253200
     14 S14        -0.1770   -3.7710   -0.7110 sy        1 24F      1.531200
     15 N15        -1.4380   -3.1400   -0.0020 n3        1 24F     -0.915100
     16 O16        -0.2380   -3.6820   -2.1240 o         1 24F     -0.674300
     17 O17         0.0960   -5.0690   -0.2020 o         1 24F     -0.674300
     18 C18        -2.3920   -2.2360   -0.5990 c3        1 24F      0.090500
     19 C19        -3.8270   -2.4100    0.0460 c         1 24F      0.922600
     20 OM0        -4.8020   -2.1320   -0.6980 o         1 24F     -0.817800
     21 O21        -3.8940   -2.7980    1.2430 o         1 24F     -0.817800
     22 C22        -1.9720   -0.7520   -0.5110 c3        1 24F     -0.050700
     23 C23        -2.0840   -0.2150    0.9050 c3        1 24F     -0.111900
     24 C24        -1.7730    1.2790    0.9630 c3        1 24F      0.073000
     25 N25        -2.4980    2.0940   -0.0030 n         1 24F     -0.400800
     26 C26        -2.5030    1.5570   -1.3540 c3        1 24F      0.073000
     27 C27        -2.8290    0.0700   -1.4600 c3        1 24F     -0.111900
     28 C28         7.5950    5.0370    1.2540 c3        1 24F     -0.099100
     29 C29        -3.6210    2.7710    0.4750 c         1 24F      0.730100
     30 O30        -4.5150    3.1800   -0.4980 os        1 24F     -0.443900
     31 O31        -3.8260    3.1420    1.6460 o         1 24F     -0.604000
     32 C32        -5.6880    3.8810   -0.0330 c3        1 24F      0.160100
     33 C33        -6.2050    4.6280   -1.2480 c3        1 24F     -0.110100
     34 C34        -6.7000    2.8840    0.4950 c3        1 24F     -0.110100
     35 H02         4.7660    2.6470   -1.6330 ha        1 24F      0.140500
     36 H03         3.2880    0.6330   -1.7270 ha        1 24F      0.139500
     37 H05         4.4070   -0.3780    2.3280 ha        1 24F      0.139500
     38 H06         5.8820    1.6080    2.4330 ha        1 24F      0.140500
     39 H08         6.1190    3.8750    2.3680 h1        1 24F      0.037700
     40 H08A        7.5960    2.9320    1.8310 h1        1 24F      0.037700
     41 H10         3.9490   -2.5550    1.6020 ha        1 24F      0.148000
     42 H11         2.0350   -4.3010    1.1000 ha        1 24F      0.176000
     43 HN15       -1.7280   -3.3930    0.9240 hn        1 24F      0.483800
     44 H18        -2.4900   -2.4970   -1.6950 h1        1 24F      0.063700
     45 H22        -0.8930   -0.6510   -0.8400 hc        1 24F      0.000700
     46 H23        -3.1180   -0.4180    1.2980 hc        1 24F      0.077200
     47 H23A       -1.3660   -0.7500    1.5770 hc        1 24F      0.077200
     48 H24        -1.9810    1.6640    2.0010 h1        1 24F      0.052950
     49 H24A       -0.6800    1.4390    0.7360 h1        1 24F      0.052950
     50 H26        -3.2230    2.1400   -1.9920 h1        1 24F      0.052950
     51 H26A       -1.4610    1.7320   -1.7520 h1        1 24F      0.052950
     52 H27        -2.6470   -0.2560   -2.5160 hc        1 24F      0.077200
     53 H27A       -3.9150   -0.1230   -1.2330 hc        1 24F      0.077200
     54 H28         6.8670    5.8300    0.9560 hc        1 24F      0.046700
     55 H28A        8.1430    5.3670    2.1680 hc        1 24F      0.046700
     56 H28B        8.3230    4.8980    0.4200 hc        1 24F      0.046700
     57 H32        -5.3880    4.6010    0.7790 h1        1 24F      0.064700
     58 H33        -6.4570    3.9130   -2.0660 hc        1 24F      0.046367
     59 H33A       -7.1220    5.1960   -0.9630 hc        1 24F      0.046367
     60 H33B       -5.4330    5.3400   -1.6240 hc        1 24F      0.046367
     61 H34        -7.6330    3.4170    0.7950 hc        1 24F      0.046367
     62 H34A       -6.9460    2.1250   -0.2850 hc        1 24F      0.046367
     63 H34B       -6.2770    2.3550    1.3840 hc        1 24F      0.046367
@<TRIPOS>BOND
     1    1    2 ar  
     2    1    6 ar  
     3    1    7 1   
     4    2    3 ar  
     5    2   35 1   
     6    3    4 ar  
     7    3   36 1   
     8    4    5 ar  
     9    4    9 1   
    10    5    6 ar  
    11    5   37 1   
    12    6   38 1   
    13    7    8 1   
    14    8   28 1   
    15    8   39 1   
    16    8   40 1   
    17    9   10 2   
    18    9   13 1   
    19   10   11 1   
    20   10   41 1   
    21   11   12 2   
    22   11   42 1   
    23   12   13 1   
    24   12   14 1   
    25   14   15 1   
    26   14   16 2   
    27   14   17 2   
    28   15   18 1   
    29   15   43 1   
    30   18   19 1   
    31   18   22 1   
    32   18   44 1   
    33   19   20 1   
    34   19   21 1   
    35   22   23 1   
    36   22   27 1   
    37   22   45 1   
    38   23   24 1   
    39   23   46 1   
    40   23   47 1   
    41   24   25 1   
    42   24   48 1   
    43   24   49 1   
    44   25   26 1   
    45   25   29 1   
    46   26   27 1   
    47   26   50 1   
    48   26   51 1   
    49   27   52 1   
    50   27   53 1   
    51   28   54 1   
    52   28   55 1   
    53   28   56 1   
    54   29   30 1   
    55   29   31 2   
    56   30   32 1   
    57   32   33 1   
    58   32   34 1   
    59   32   57 1   
    60   33   58 1   
    61   33   59 1   
    62   33   60 1   
    63   34   61 1   
    64   34   62 1   
    65   34   63 1   
@<TRIPOS>SUBSTRUCTURE
     1 24F         1 TEMP              0 ****  ****    0 ROOT
