@<TRIPOS>MOLECULE
24H
   33    30     1     0     0
SMALL
bcc


@<TRIPOS>ATOM
      1 C4          1.8750   -0.1730    0.3090 c1        1 24H     -0.112500
      2 C5          3.1120    0.3920    0.2400 c1        1 24H     -0.112500
      3 C6          4.1500    0.0610    1.2820 c1        1 24H      0.394000
      4 C8          1.9250    1.1410   -1.4470 c1        1 24H     -0.072000
      5 O6          5.2350    0.6070    1.2530 o         1 24H     -0.372000
      6 N7          3.1410    1.2020   -0.8440 n2        1 24H     -0.100500
      7 N1          3.8400   -0.8250    2.3190 n3        1 24H     -0.340000
      8 C2          2.5470   -1.4140    2.3890 c2        1 24H      0.157000
      9 N2          2.2390   -2.3270    3.4300 n3        1 24H     -0.306000
     10 N3          1.5540   -1.0970    1.3910 n1        1 24H     -0.184000
     11 N9          1.1450    0.2910   -0.7330 n2        1 24H     -0.100500
     12 CAJ         0.0270   -0.2050   -1.4580 c2        1 24H     -0.057000
     13 CAS        -1.2100    0.5770   -1.0750 c3        1 24H     -0.028000
     14 CAH        -1.5700    1.5290   -2.1930 c3        1 24H      0.012000
     15 OAD        -0.9800    2.7860   -1.9480 oh        1 24H     -0.429000
     16 OAN        -2.2770   -0.3130   -0.8540 os        1 24H     -0.224000
     17 CAI        -3.3180    0.2280   -0.0750 c3        1 24H     -0.610000
     18 PAU        -4.5460   -1.0630    0.2730 p5        1 24H      1.633500
     19 OAE        -5.6530   -0.4880    1.1260 o         1 24H     -0.930167
     20 OAF        -3.8840   -2.2030    1.0090 o         1 24H     -0.930167
     21 OAC        -5.1240   -1.5710   -1.0260 o         1 24H     -0.930167
     22 H8          1.6610    1.6190   -2.2560 DU        1 24H      0.231000
     23 HN1         4.4590   -1.0050    2.9650 hn        1 24H      0.237000
     24 HN2         1.4500   -2.7890    3.4140 hn        1 24H      0.183000
     25 HN2A        2.8350   -2.4640    4.1090 hn        1 24H      0.183000
     26 HAJ         0.1910   -0.1060   -2.4190 ha        1 24H      0.114000
     27 HAJA       -0.1070   -1.1520   -1.2460 ha        1 24H      0.114000
     28 HAS        -1.0340    1.0840   -0.2590 h1        1 24H      0.076000
     29 HAH        -2.5440    1.6280   -2.2360 h1        1 24H      0.037000
     30 HAHA       -1.2400    1.1740   -3.0440 h1        1 24H      0.037000
     31 HOAD       -1.2010    3.3500   -2.6000 ho        1 24H      0.327000
     32 HAI        -2.9520    0.5670    0.7680 h1        1 24H      0.051000
     33 HAIA       -3.7450    0.9620   -0.5640 h1        1 24H      0.051000
@<TRIPOS>BOND
     1    1    2 1   
     2    1   11 1   
     3    2    6 1   
     4    3    5 1   
     5    3    7 1   
     6    4    6 1   
     7    4   11 1   
     8    7    8 1   
     9    7   23 1   
    10    8    9 1   
    11    8   10 1   
    12    9   24 1   
    13    9   25 1   
    14   12   13 1   
    15   12   26 1   
    16   12   27 1   
    17   13   14 1   
    18   13   16 1   
    19   13   28 1   
    20   14   15 1   
    21   14   29 1   
    22   14   30 1   
    23   15   31 1   
    24   16   17 1   
    25   17   18 1   
    26   17   32 1   
    27   17   33 1   
    28   18   19 1   
    29   18   20 1   
    30   18   21 1   
@<TRIPOS>SUBSTRUCTURE
     1 24H         1 TEMP              0 ****  ****    0 ROOT
