@<TRIPOS>MOLECULE
24H
   34    35     1     0     0
SMALL
bcc


@<TRIPOS>ATOM
      1 C4          0.1460   -0.4500   -0.3930 cc        1 24H      0.153800
      2 C5          1.5490   -0.4820   -0.7300 cd        1 24H      0.136800
      3 C6          2.5160   -0.2190    0.3130 c         1 24H      0.650000
      4 C8          0.4640   -0.7120   -2.6010 cc        1 24H      0.362400
      5 O6          3.7580   -0.2340    0.2290 o         1 24H     -0.648500
      6 N7          1.7110   -0.6650   -2.1090 nd        1 24H     -0.595000
      7 N1          1.9400    0.0960    1.5690 n         1 24H     -0.498400
      8 C2          0.5480    0.0890    1.8050 cd        1 24H      0.707800
      9 N2          0.1140    0.3930    3.1300 nh        1 24H     -0.834800
     10 N3         -0.3690   -0.2570    0.8660 nc        1 24H     -0.644100
     11 N9         -0.5500   -0.6300   -1.6020 na        1 24H     -0.204900
     12 CAJ        -1.9060   -0.2200   -1.8220 c3        1 24H      0.044300
     13 CAS        -2.1370    1.3080   -1.8670 c3        1 24H      0.071100
     14 CAH        -3.5870    1.5970   -2.2770 c3        1 24H      0.119400
     15 OAD        -4.5060    1.2260   -1.2740 oh        1 24H     -0.621800
     16 OAN        -1.9570    1.7860   -0.5380 os        1 24H     -0.374600
     17 CAI        -1.4790    3.1110   -0.4340 c3        1 24H     -0.098800
     18 PAU        -1.6870    3.5130    1.2360 p5        1 24H      1.365600
     19 OAE        -0.7640    2.7430    2.1010 o         1 24H     -0.875000
     20 OAF        -1.8280    4.9850    1.3170 o         1 24H     -0.875000
     21 OAC        -3.2350    3.0260    1.4900 oh        1 24H     -0.794400
     22 H8          0.2010   -0.8530   -3.6530 h5        1 24H      0.048100
     23 HN1         2.5580    0.3980    2.2890 hn        1 24H      0.330500
     24 HN2         0.4780    1.2940    3.4070 hn        1 24H      0.419800
     25 HN2A       -0.8920    0.4570    3.1600 hn        1 24H      0.419800
     26 HAJ        -2.5420   -0.6320   -0.9850 h1        1 24H      0.074700
     27 HAJA       -2.2440   -0.6570   -2.8030 h1        1 24H      0.074700
     28 HAS        -1.4280    1.8040   -2.5810 h1        1 24H      0.049700
     29 HAH        -3.6920    2.6950   -2.4950 h1        1 24H      0.033700
     30 HAHA       -3.8770    1.0040   -3.1830 h1        1 24H      0.033700
     31 HOAD       -4.1690    1.5700   -0.4270 ho        1 24H      0.449000
     32 HAI        -0.4090    3.1600   -0.7520 h1        1 24H      0.045700
     33 HAIA       -2.0650    3.8040   -1.0850 h1        1 24H      0.045700
     34 H23        -3.8040    3.7640    1.6800 ho        1 24H      0.427000
@<TRIPOS>BOND
     1    1    2 2   
     2    1   10 1   
     3    1   11 1   
     4    2    3 1   
     5    2    6 1   
     6    3    5 2   
     7    3    7 1   
     8    4    6 2   
     9    4   11 1   
    10    4   22 1   
    11    7    8 1   
    12    7   23 1   
    13    8    9 1   
    14    8   10 2   
    15    9   24 1   
    16    9   25 1   
    17   11   12 1   
    18   12   13 1   
    19   12   26 1   
    20   12   27 1   
    21   13   14 1   
    22   13   16 1   
    23   13   28 1   
    24   14   15 1   
    25   14   29 1   
    26   14   30 1   
    27   15   31 1   
    28   16   17 1   
    29   17   18 1   
    30   17   32 1   
    31   17   33 1   
    32   18   19 1   
    33   18   20 1   
    34   18   21 1   
    35   21   34 1   
@<TRIPOS>SUBSTRUCTURE
     1 24H         1 TEMP              0 ****  ****    0 ROOT
