@<TRIPOS>MOLECULE
24H
   33    34     1     0     0
SMALL
bcc


@<TRIPOS>ATOM
      1 C4         -1.2420    1.3430   -0.4570 cc        1 24H      0.204800
      2 C5         -2.1470    0.6150   -1.3240 cd        1 24H      0.092800
      3 C6         -3.0020   -0.3820   -0.7250 c         1 24H      0.662000
      4 C8         -0.7560    1.6600   -2.6310 cc        1 24H      0.334400
      5 O6         -3.8490   -1.0970   -1.3050 o         1 24H     -0.696500
      6 N7         -1.8230    0.8560   -2.6680 nd        1 24H     -0.599000
      7 N1         -2.8910   -0.5020    0.6870 n         1 24H     -0.472400
      8 C2         -2.0070    0.3180    1.4430 cd        1 24H      0.817800
      9 N2         -2.1440    0.2490    2.8740 nh        1 24H     -0.852800
     10 N3         -1.2850    1.3570    0.9040 nc        1 24H     -0.708100
     11 N9         -0.3630    2.0600   -1.3090 na        1 24H     -0.223900
     12 CAJ         1.0070    2.3010   -0.9400 c3        1 24H      0.053300
     13 CAS         1.8250    1.0730   -0.4790 c3        1 24H      0.046100
     14 CAH         3.3050    1.2750   -0.8180 c3        1 24H      0.108400
     15 OAD         3.9240    2.2540    0.0020 oh        1 24H     -0.654800
     16 OAN         1.6740    1.0250    0.9410 os        1 24H     -0.426600
     17 CAI         2.0190   -0.2090    1.5620 c3        1 24H     -0.059800
     18 PAU         0.9780   -1.6230    1.2210 p5        1 24H      1.247700
     19 OAE        -0.4450   -1.2580    1.6640 o         1 24H     -0.930833
     20 OAF         1.1270   -1.7970   -0.2680 o         1 24H     -0.930833
     21 OAC         1.5890   -2.6630    2.1170 o         1 24H     -0.930833
     22 H8         -0.2210    2.0440   -3.5010 h5        1 24H      0.025100
     23 HN1        -3.0500   -1.4180    1.0510 hn        1 24H      0.328500
     24 HN2        -2.0150   -0.7160    3.1490 hn        1 24H      0.394300
     25 HN2A       -1.4080    0.7850    3.2990 hn        1 24H      0.394300
     26 HAJ         1.5150    2.7660   -1.8310 h1        1 24H      0.042700
     27 HAJA        0.9980    3.0460   -0.0920 h1        1 24H      0.042700
     28 HAS         1.4570    0.0810   -0.9090 h1        1 24H      0.174700
     29 HAH         3.8470    0.3000   -0.6870 h1        1 24H      0.031700
     30 HAHA        3.4410    1.6390   -1.8700 h1        1 24H      0.031700
     31 HOAD        3.5350    2.1500    0.8840 ho        1 24H      0.422000
     32 HAI         3.0800   -0.4620    1.3230 h1        1 24H      0.015200
     33 HAIA        1.9450    0.0390    2.6500 h1        1 24H      0.015200
@<TRIPOS>BOND
     1    1    2 2   
     2    1   10 1   
     3    1   11 1   
     4    2    3 1   
     5    2    6 1   
     6    3    5 2   
     7    3    7 1   
     8    4    6 2   
     9    4   11 1   
    10    4   22 1   
    11    7    8 1   
    12    7   23 1   
    13    8    9 1   
    14    8   10 2   
    15    9   24 1   
    16    9   25 1   
    17   11   12 1   
    18   12   13 1   
    19   12   26 1   
    20   12   27 1   
    21   13   14 1   
    22   13   16 1   
    23   13   28 1   
    24   14   15 1   
    25   14   29 1   
    26   14   30 1   
    27   15   31 1   
    28   16   17 1   
    29   17   18 1   
    30   17   32 1   
    31   17   33 1   
    32   18   19 1   
    33   18   20 1   
    34   18   21 1   
@<TRIPOS>SUBSTRUCTURE
     1 24H         1 TEMP              0 ****  ****    0 ROOT
