@<TRIPOS>MOLECULE
24H
   34    35     1     0     0
SMALL
bcc


@<TRIPOS>ATOM
      1 C4          0.1850   -0.4190   -0.4030 cc        1 24H      0.153800
      2 C5          1.5880   -0.4130   -0.7440 cd        1 24H      0.136800
      3 C6          2.5500   -0.1290    0.2980 c         1 24H      0.650000
      4 C8          0.5040   -0.6610   -2.6130 cc        1 24H      0.362400
      5 O6          3.7920   -0.1110    0.2120 o         1 24H     -0.648500
      6 N7          1.7510   -0.5830   -2.1240 nd        1 24H     -0.595000
      7 N1          1.9690    0.1630    1.5580 n         1 24H     -0.498400
      8 C2          0.5780    0.1180    1.7960 cd        1 24H      0.707800
      9 N2          0.1400    0.4030    3.1240 nh        1 24H     -0.834800
     10 N3         -0.3320   -0.2470    0.8580 nc        1 24H     -0.644100
     11 N9         -0.5090   -0.6110   -1.6110 na        1 24H     -0.204900
     12 CAJ        -1.8760   -0.2350   -1.8270 c3        1 24H      0.044300
     13 CAS        -2.1460    1.2870   -1.8630 c3        1 24H      0.071100
     14 CAH        -3.6040    1.5410   -2.2670 c3        1 24H      0.119400
     15 OAD        -4.5100    1.1400   -1.2640 oh        1 24H     -0.621800
     16 OAN        -1.9750    1.7630   -0.5320 os        1 24H     -0.374600
     17 CAI        -1.5300    3.0980   -0.4220 c3        1 24H     -0.098800
     18 PAU        -1.7440    3.4870    1.2510 p5        1 24H      1.365600
     19 OAE        -0.7990    2.7360    2.1090 o         1 24H     -0.875000
     20 OAF        -1.9220    4.9540    1.3400 o         1 24H     -0.875000
     21 OAC        -3.2790    2.9590    1.5060 oh        1 24H     -0.794400
     22 H8          0.2430   -0.8020   -3.6660 h5        1 24H      0.048100
     23 HN1         2.5810    0.4780    2.2780 hn        1 24H      0.330500
     24 HN2         0.4800    1.3120    3.4050 hn        1 24H      0.419800
     25 HN2A       -0.8680    0.4400    3.1570 hn        1 24H      0.419800
     26 HAJ        -2.2050   -0.6750   -2.8090 h1        1 24H      0.074700
     27 HAJA       -2.4980   -0.6670   -0.9900 h1        1 24H      0.074700
     28 HAS        -1.4520    1.8050   -2.5760 h1        1 24H      0.049700
     29 HAH        -3.7380    2.6370   -2.4800 h1        1 24H      0.033700
     30 HAHA       -3.8810    0.9460   -3.1760 h1        1 24H      0.033700
     31 HOAD       -4.1800    1.4890   -0.4160 ho        1 24H      0.449000
     32 HAI        -2.1360    3.7800   -1.0680 h1        1 24H      0.046200
     33 HAIA       -0.4630    3.1770   -0.7430 h1        1 24H      0.046200
     34 H23        -3.8650    3.6820    1.7020 ho        1 24H      0.427000
@<TRIPOS>BOND
     1    1    2 2   
     2    1   10 1   
     3    1   11 1   
     4    2    3 1   
     5    2    6 1   
     6    3    5 2   
     7    3    7 1   
     8    4    6 2   
     9    4   11 1   
    10    4   22 1   
    11    7    8 1   
    12    7   23 1   
    13    8    9 1   
    14    8   10 2   
    15    9   24 1   
    16    9   25 1   
    17   11   12 1   
    18   12   13 1   
    19   12   26 1   
    20   12   27 1   
    21   13   14 1   
    22   13   16 1   
    23   13   28 1   
    24   14   15 1   
    25   14   29 1   
    26   14   30 1   
    27   15   31 1   
    28   16   17 1   
    29   17   18 1   
    30   17   32 1   
    31   17   33 1   
    32   18   19 1   
    33   18   20 1   
    34   18   21 1   
    35   21   34 1   
@<TRIPOS>SUBSTRUCTURE
     1 24H         1 TEMP              0 ****  ****    0 ROOT
