@<TRIPOS>MOLECULE
24H
   34    35     1     0     0
SMALL
bcc


@<TRIPOS>ATOM
      1 C4          0.4580   -0.3670   -0.7450 cc        1 24H      0.138800
      2 C5          1.7460   -0.2020   -1.3640 cd        1 24H      0.123800
      3 C6          2.7770    0.5040   -0.6200 c         1 24H      0.650000
      4 C8          0.3840   -0.8780   -2.9250 cc        1 24H      0.356400
      5 O6          3.9820    0.6140   -0.9030 o         1 24H     -0.633500
      6 N7          1.6710   -0.5700   -2.7160 nd        1 24H     -0.591000
      7 N1          2.2860    1.1610    0.5440 ns        1 24H     -0.517400
      8 C2          0.9600    1.0000    0.9800 cd        1 24H      0.783200
      9 N2         -3.7510    1.4600    4.1380 n9        1 24H     -0.990400
     10 N3          0.1250    0.0210    0.5280 nc        1 24H     -0.691100
     11 N9         -0.4330   -0.8190   -1.7470 na        1 24H     -0.208900
     12 CAJ        -1.8010   -0.3640   -1.7200 c3        1 24H      0.035300
     13 CAS        -2.0090    1.1760   -1.7010 c3        1 24H      0.068100
     14 CAH        -3.4290    1.5000   -2.1830 c3        1 24H      0.123400
     15 OAD        -4.4180    0.8940   -1.3790 oh        1 24H     -0.612800
     16 OAN        -1.9160    1.6430   -0.3500 os        1 24H     -0.373600
     17 CAI        -1.0690    2.7590   -0.1610 c3        1 24H     -0.116800
     18 PAU        -0.8030    2.9900    1.5250 p5        1 24H      1.355600
     19 OAE        -0.0790    4.2620    1.6420 o         1 24H     -0.798000
     20 OAF        -1.9030    2.5510    2.3840 o         1 24H     -0.798000
     21 OAC         0.5400    1.8890    1.8680 os        1 24H     -0.518000
     22 H8         -0.0360   -1.2320   -3.8710 h5        1 24H      0.049100
     23 HN1         2.8640    1.8290    1.0030 hn        1 24H      0.342500
     24 HN2        -3.0270    1.9580    4.6220 hn        1 24H      0.329800
     25 HN2A       -4.0850    2.0870    3.4290 hn        1 24H      0.329800
     26 HAJ        -2.2870   -0.7820   -0.7920 h1        1 24H      0.079200
     27 HAJA       -2.3180   -0.7750   -2.6310 h1        1 24H      0.079200
     28 HAS        -1.2650    1.6880   -2.3660 h1        1 24H      0.058700
     29 HAH        -3.5680    2.6150   -2.1790 h1        1 24H      0.039700
     30 HAHA       -3.6010    1.1000   -3.2170 h1        1 24H      0.039700
     31 HOAD       -4.1910    1.0880   -0.4570 ho        1 24H      0.432000
     32 HAI        -0.1000    2.6320   -0.7060 h1        1 24H      0.052200
     33 HAIA       -1.5570    3.6720   -0.5930 h1        1 24H      0.052200
     34 H23        -3.2920    0.7140    3.6480 hn        1 24H      0.329800
@<TRIPOS>BOND
     1    1    2 2   
     2    1   10 1   
     3    1   11 1   
     4    2    3 1   
     5    2    6 1   
     6    3    5 2   
     7    3    7 1   
     8    4    6 2   
     9    4   11 1   
    10    4   22 1   
    11    7    8 1   
    12    7   23 1   
    13    8   10 2   
    14    8   21 1   
    15    9   24 1   
    16    9   25 1   
    17    9   34 1   
    18   11   12 1   
    19   12   13 1   
    20   12   26 1   
    21   12   27 1   
    22   13   14 1   
    23   13   16 1   
    24   13   28 1   
    25   14   15 1   
    26   14   29 1   
    27   14   30 1   
    28   15   31 1   
    29   16   17 1   
    30   17   18 1   
    31   17   32 1   
    32   17   33 1   
    33   18   19 1   
    34   18   20 1   
    35   18   21 1   
@<TRIPOS>SUBSTRUCTURE
     1 24H         1 TEMP              0 ****  ****    0 ROOT
