@<TRIPOS>MOLECULE
24I
   35    32     1     0     0
SMALL
bcc


@<TRIPOS>ATOM
      1 O5          3.1570    2.4100   -3.3680 o         1 24I     -0.599000
      2 C14         2.9240    2.8450   -2.2100 c1        1 24I      0.327000
      3 O6          3.8740    3.0370   -1.4060 os        1 24I     -0.608000
      4 C13         1.5040    3.1550   -1.7900 c3        1 24I     -0.216000
      5 C12         0.6170    1.9680   -2.0930 c3        1 24I     -0.121000
      6 C10        -0.6500    2.0620   -1.2720 c3        1 24I     -0.150000
      7 C9         -1.6420    2.9600   -1.9790 c2        1 24I      0.313000
      8 O4         -2.6490    3.3940   -1.3600 o         1 24I     -0.590000
      9 O3         -1.4500    3.2900   -3.1780 o         1 24I     -0.590000
     10 C7         -1.2470    0.6820   -1.1060 c3        1 24I     -0.943000
     11 P1         -1.1450    0.1840    0.6370 p5        1 24I      2.830000
     12 O1          0.2630    0.2610    1.0900 o         1 24I     -1.160000
     13 O2         -2.0340    1.1520    1.5150 oh        1 24I     -0.844000
     14 C6         -1.7460   -1.5200    0.8160 c3        1 24I     -0.868000
     15 C8         -0.6590   -2.3770    1.4270 c2        1 24I     -0.007000
     16 C5         -0.0780   -3.3930    0.6840 c2        1 24I     -0.129000
     17 C3          0.8750   -4.2170    1.2630 c1        1 24I     -0.098000
     18 C4         -0.2860   -2.1850    2.7490 c1        1 24I     -0.138000
     19 C2          0.6670   -3.0080    3.3270 c1        1 24I     -0.116000
     20 C1          1.2480   -4.0250    2.5830 c1        1 24I     -0.271000
     21 I           2.7010   -5.2730    3.4610 i         1 24I      0.075000
     22 H131        1.1820    3.9370   -2.2830 hc        1 24I      0.052500
     23 H132        1.4810    3.3430   -0.8310 hc        1 24I      0.052500
     24 H121        1.0910    1.1420   -1.8680 hc        1 24I      0.089000
     25 H122        0.3900    1.9640   -3.0440 hc        1 24I      0.089000
     26 H10        -0.4420    2.4350   -0.3940 hc        1 24I      0.076000
     27 H7C1       -0.7520    0.0440   -1.6570 hc        1 24I      0.155500
     28 H7C2       -2.1840    0.6970   -1.3860 hc        1 24I      0.155500
     29 H20        -1.6690    1.2420    2.3190 ho        1 24I      0.295000
     30 H6C1       -1.9860   -1.8750   -0.0630 hc        1 24I      0.157000
     31 H6C2       -2.5330   -1.5290    1.3970 hc        1 24I      0.157000
     32 H5         -0.3300   -3.5190   -0.2500 ha        1 24I      0.220000
     33 H3          1.2840   -4.9320    0.7390 ha        1 24I      0.141000
     34 HA         -0.7040   -1.4770    3.2750 ha        1 24I      0.138000
     35 H2          0.9300   -2.8730    4.2570 ha        1 24I      0.121000
@<TRIPOS>BOND
     1    1    2 1   
     2    2    4 1   
     3    4    5 1   
     4    4   22 1   
     5    4   23 1   
     6    5    6 1   
     7    5   24 1   
     8    5   25 1   
     9    6    7 1   
    10    6   10 1   
    11    6   26 1   
    12    7    8 1   
    13    7    9 1   
    14   10   11 1   
    15   10   27 1   
    16   10   28 1   
    17   11   12 1   
    18   11   13 1   
    19   11   14 1   
    20   13   29 1   
    21   14   15 1   
    22   14   30 1   
    23   14   31 1   
    24   15   16 1   
    25   15   18 1   
    26   16   17 1   
    27   16   32 1   
    28   17   33 1   
    29   18   34 1   
    30   19   20 1   
    31   19   35 1   
    32   20   21 1   
@<TRIPOS>SUBSTRUCTURE
     1 24I         1 TEMP              0 ****  ****    0 ROOT
