@<TRIPOS>MOLECULE
24I
   34    45     1     0     0
SMALL
bcc


@<TRIPOS>ATOM
      1 O5        354.3260 -714.0990  841.2930 o         1 24I     -0.604000
      2 C14       354.8110 -714.1890  840.1250 c2        1 24I      0.324000
      3 O6        355.4690 -715.2020  839.7380 o         1 24I     -0.604000
      4 C13       354.6480 -713.0170  839.1470 c3        1 24I     -0.216000
      5 C12       353.2830 -712.3740  839.2350 c3        1 24I     -0.128000
      6 C10       353.2280 -710.9850  838.6120 c3        1 24I     -0.116000
      7 C9        353.1010 -711.0160  837.0970 c2        1 24I      0.333000
      8 O4        352.1100 -710.2550  836.6140 os        1 24I     -0.678000
      9 O3        353.8120 -711.6160  836.2830 o         1 24I     -0.382000
     10 C7        352.0700 -710.1600  839.1390 c3        1 24I     -0.854000
     11 P1        351.2670 -709.4230  837.8360 p5        1 24I      1.978000
     12 O1        351.6580 -708.0020  837.7090 o         1 24I     -0.849000
     13 O2        349.8550 -709.8490  837.7490 o         1 24I     -0.849000
     14 C6       -501.6560    0.2120-1212.4440 DU        1 24I     -0.537000
     15 C8       -501.0860    0.9860-1212.5900 DU        1 24I     -0.104000
     16 C5       -501.1490    0.9810-1211.5570 DU        1 24I     -0.117000
     17 C3       -500.5700    0.7480-1211.7150 DU        1 24I     -0.097000
     18 C4       -500.3770    0.6040-1213.7870 cx        1 24I     -0.143000
     19 C2       -499.8070    0.3650-1213.9210 c2        1 24I     -0.185000
     20 C1       -499.8880    0.4110-1212.8950 DU        1 24I     -0.296000
     21 I        -499.0420    0.5910-1213.1110 i         1 24I      0.000000
     22 H131      355.4410 -712.2670  839.4040 hc        1 24I      0.068000
     23 H132      354.8400 -713.3690  838.1020 hc        1 24I      0.068000
     24 H121      352.5230 -713.0350  838.7430 hc        1 24I      0.087500
     25 H122      353.0050 -712.2920  840.3210 hc        1 24I      0.087500
     26 H10       354.2090 -710.4730  838.8400 hc        1 24I      0.102000
     27 H7C1      352.4480 -709.3970  839.8580 hc        1 24I      0.116500
     28 H7C2      351.3620 -710.8120  839.7070 hc        1 24I      0.116500
     29 H6C1     -502.1910    0.4960-1211.5370 DU        1 24I      0.069000
     30 H6C2     -501.6060    0.9690-1213.2280 ha        1 24I      0.067000
     31 H5       -501.6800    0.2320-1210.6300 ha        1 24I      0.070000
     32 H3       -500.6410    0.0080-1210.9030 DU        1 24I      0.095000
     33 HA       -500.3070    0.3410-1214.5960 DU        1 24I      0.085000
     34 H2       -499.2740    0.1120-1214.8520 DU        1 24I      0.094000
@<TRIPOS>BOND
     1    1    2 1   
     2    2    3 1   
     3    2    4 1   
     4    4    5 1   
     5    4   22 1   
     6    4   23 1   
     7    5    6 1   
     8    5   24 1   
     9    5   25 1   
    10    6    7 1   
    11    6   10 1   
    12    6   26 1   
    13    7    8 1   
    14    7    9 1   
    15    8   11 1   
    16   10   11 1   
    17   10   27 1   
    18   10   28 1   
    19   11   12 1   
    20   11   13 1   
    21   14   15 1   
    22   14   16 1   
    23   14   17 1   
    24   14   20 1   
    25   14   29 1   
    26   14   30 1   
    27   15   16 1   
    28   15   17 1   
    29   15   18 1   
    30   15   20 1   
    31   15   21 1   
    32   16   29 1   
    33   16   31 1   
    34   16   32 1   
    35   17   20 1   
    36   17   21 1   
    37   17   32 1   
    38   18   20 1   
    39   18   21 1   
    40   18   33 1   
    41   19   20 1   
    42   19   33 1   
    43   19   34 1   
    44   21   33 1   
    45   21   34 1   
@<TRIPOS>SUBSTRUCTURE
     1 24I         1 TEMP              0 ****  ****    0 ROOT
