@<TRIPOS>MOLECULE
24K
   52    54     1     0     0
SMALL
bcc


@<TRIPOS>ATOM
      1 C01         0.0390    0.1360   -0.0800 c3        1 24K     -0.093100
      2 C02         1.5440    0.1390    0.0070 c3        1 24K     -0.078400
      3 C03         2.0130   -0.0840    1.4290 c3        1 24K     -0.095400
      4 C04         3.5410   -0.0740    1.4760 c3        1 24K      0.207800
      5 N05         4.0560   -0.3090    2.8050 nh        1 24K     -0.836900
      6 C06         5.4260   -0.1790    3.0630 ca        1 24K      0.911900
      7 N07         6.3170   -0.2200    1.9900 nb        1 24K     -0.778000
      8 C08         7.6120   -0.1790    2.3140 ca        1 24K      0.502200
      9 C09         8.1100   -0.1020    3.6290 cp        1 24K     -0.506100
     10 C10         7.1300   -0.0640    4.6850 ca        1 24K      0.756200
     11 N11         7.5350   -0.1100    6.0120 nh        1 24K     -0.837900
     12 C12         6.6160    0.1080    7.1150 c3        1 24K      0.213500
     13 C13         6.2100    1.5810    7.3030 c3        1 24K     -0.092900
     14 C14         5.2090    1.7190    8.4280 c3        1 24K     -0.092400
     15 C15         5.7810    1.1700    9.7310 c3        1 24K      0.139100
     16 O16         4.7470    1.2730   10.7020 oh        1 24K     -0.598800
     17 C17         6.2290   -0.2790    9.5590 c3        1 24K     -0.092400
     18 C18         7.2280   -0.4100    8.4320 c3        1 24K     -0.092900
     19 N19         5.7910   -0.0700    4.3920 nb        1 24K     -0.830000
     20 C20         9.5590   -0.0530    3.8290 cp        1 24K      0.499800
     21 C21        10.3650   -0.9600    3.0970 ca        1 24K     -0.246300
     22 C22        11.7510   -0.9000    3.2290 ca        1 24K     -0.087000
     23 C23        12.3100    0.0530    4.0820 ca        1 24K     -0.256300
     24 C24        11.4380    0.9080    4.7780 ca        1 24K      0.402200
     25 N25        10.1000    0.8720    4.6670 nb        1 24K     -0.691000
     26 H013       -0.3750   -0.8410    0.2700 hc        1 24K      0.034700
     27 H012       -0.2870    0.3010   -1.1350 hc        1 24K      0.034700
     28 H011       -0.3950    0.9470    0.5540 hc        1 24K      0.034700
     29 H021        1.9610   -0.6660   -0.6560 hc        1 24K      0.043700
     30 H022        1.9420    1.1180   -0.3710 hc        1 24K      0.043700
     31 H032        1.6200   -1.0650    1.8050 hc        1 24K      0.047200
     32 H031        1.5980    0.7210    2.0910 hc        1 24K      0.047200
     33 H042        3.9370   -0.8850    0.7990 h1        1 24K      0.053700
     34 H041        3.9100    0.9140    1.0720 h1        1 24K      0.053700
     35 H051        3.4460   -0.0810    3.5590 hn        1 24K      0.431800
     36 H081        8.3130   -0.2010    1.4560 h4        1 24K      0.024100
     37 H111        8.4670    0.1950    6.1910 hn        1 24K      0.438800
     38 H121        5.6780   -0.4920    6.9150 h1        1 24K      0.085700
     39 H131        7.1190    2.1990    7.5240 hc        1 24K      0.050700
     40 H132        5.7540    1.9710    6.3560 hc        1 24K      0.050700
     41 H142        4.9410    2.7970    8.5710 hc        1 24K      0.053700
     42 H141        4.2660    1.1670    8.1800 hc        1 24K      0.053700
     43 H151        6.6580    1.7980   10.0590 h1        1 24K      0.031700
     44 H161        5.0830    0.8680   11.5090 ho        1 24K      0.398000
     45 H172        6.6920   -0.6430   10.5130 hc        1 24K      0.053700
     46 H171        5.3300   -0.9180    9.3550 hc        1 24K      0.053700
     47 H181        7.5210   -1.4860    8.3190 hc        1 24K      0.050700
     48 H182        8.1540    0.1730    8.6780 hc        1 24K      0.050700
     49 H211        9.8930   -1.7050    2.4420 ha        1 24K      0.147000
     50 H221       12.3940   -1.5960    2.6700 ha        1 24K      0.138000
     51 H231       13.3960    0.1370    4.2120 ha        1 24K      0.144000
     52 H241       11.8340    1.6770    5.4670 h4        1 24K      0.020100
@<TRIPOS>BOND
     1    1    2 1   
     2    1   26 1   
     3    1   27 1   
     4    1   28 1   
     5    2    3 1   
     6    2   29 1   
     7    2   30 1   
     8    3    4 1   
     9    3   31 1   
    10    3   32 1   
    11    4    5 1   
    12    4   33 1   
    13    4   34 1   
    14    5    6 1   
    15    5   35 1   
    16    6    7 ar  
    17    6   19 ar  
    18    7    8 ar  
    19    8    9 ar  
    20    8   36 1   
    21    9   10 ar  
    22    9   20 1   
    23   10   11 1   
    24   10   19 ar  
    25   11   12 1   
    26   11   37 1   
    27   12   13 1   
    28   12   18 1   
    29   12   38 1   
    30   13   14 1   
    31   13   39 1   
    32   13   40 1   
    33   14   15 1   
    34   14   41 1   
    35   14   42 1   
    36   15   16 1   
    37   15   17 1   
    38   15   43 1   
    39   16   44 1   
    40   17   18 1   
    41   17   45 1   
    42   17   46 1   
    43   18   47 1   
    44   18   48 1   
    45   20   21 ar  
    46   20   25 ar  
    47   21   22 ar  
    48   21   49 1   
    49   22   23 ar  
    50   22   50 1   
    51   23   24 ar  
    52   23   51 1   
    53   24   25 ar  
    54   24   52 1   
@<TRIPOS>SUBSTRUCTURE
     1 24K         1 TEMP              0 ****  ****    0 ROOT
