@<TRIPOS>MOLECULE
24K
   52    50     1     0     0
SMALL
bcc


@<TRIPOS>ATOM
      1 C01        -6.1120   -0.4770   -4.9250 c3        1 24K     -0.211000
      2 C02        -4.6140   -0.4820   -4.8760 c3        1 24K     -0.157000
      3 C03        -4.1560   -0.2640   -3.4580 c3        1 24K     -0.174000
      4 C04        -2.6200   -0.2760   -3.4080 c3        1 24K     -0.027000
      5 N05        -2.1670   -0.1160   -1.9950 n3        1 24K     -0.284000
      6 C06        -0.7290   -0.0640   -1.6850 c2        1 24K      0.195000
      7 N07         0.1750   -0.0920   -2.6880 n2        1 24K     -0.253000
      8 C08         1.4970   -0.1340   -2.4110 c1        1 24K      0.037000
      9 C09         1.9240   -0.1490   -1.1100 c1        1 24K     -0.268000
     10 C10         1.0120   -0.1200   -0.0930 c1        1 24K      0.234000
     11 N11         1.4630   -0.0420    1.2660 n3        1 24K     -0.281000
     12 C12         0.5120    0.2400    2.3410 c3        1 24K      0.016000
     13 C13         0.9400    1.5060    3.0530 c3        1 24K     -0.171500
     14 C14         0.1060    1.7810    4.3170 c3        1 24K     -0.171000
     15 C15         0.0530    0.5950    5.2370 c3        1 24K      0.027000
     16 O16        -0.8790    0.8670    6.2940 oh        1 24K     -0.326000
     17 C17        -0.3760   -0.6750    4.5220 c3        1 24K     -0.171000
     18 C18         0.4550   -0.9490    3.2640 c3        1 24K     -0.171500
     19 N19        -0.3040   -0.0780   -0.3720 n1        1 24K     -0.303000
     20 C20         3.3950   -0.0890   -0.8030 c2        1 24K      0.064000
     21 C21         4.1690   -1.2530   -0.8630 c2        1 24K     -0.181000
     22 C22         5.5200   -1.1810   -0.6850 c1        1 24K     -0.087000
     23 C23         6.1160    0.0390   -0.4480 c1        1 24K     -0.127000
     24 C24         5.3480    1.1840   -0.3910 c1        1 24K     -0.127000
     25 N25         3.9890    1.1100   -0.5700 n1        1 24K     -0.164000
     26 H013       -6.4110   -0.6440   -5.8490 hc        1 24K      0.074000
     27 H012       -6.4390    0.3720   -4.6320 hc        1 24K      0.074000
     28 H011       -6.4550   -1.1730   -4.3450 hc        1 24K      0.074000
     29 H021       -4.2740   -1.3630   -5.2040 hc        1 24K      0.083000
     30 H022       -4.2600    0.2440   -5.4530 hc        1 24K      0.083000
     31 H032       -4.4930    0.6240   -3.1300 hc        1 24K      0.086500
     32 H031       -4.5070   -0.9780   -2.8890 hc        1 24K      0.086500
     33 H042       -2.2920   -1.1120   -3.7600 h1        1 24K      0.093000
     34 H041       -2.2740    0.4560   -3.9430 h1        1 24K      0.093000
     35 H051       -2.7980   -0.0490   -1.3060 hn        1 24K      0.229000
     36 H081        2.1510   -0.1540   -3.1430 ha        1 24K      0.161000
     37 H111        2.3510   -0.1050    1.4530 hn        1 24K      0.233000
     38 H121       -0.3620    0.3790    1.9580 h1        1 24K      0.123000
     39 H131        0.8420    2.2750    2.4280 hc        1 24K      0.090500
     40 H132        1.8670    1.4240    3.3020 hc        1 24K      0.090500
     41 H142        0.5120    2.5630    4.8130 hc        1 24K      0.093000
     42 H141       -0.7770    2.0070    4.0580 hc        1 24K      0.093000
     43 H151        0.9630    0.4530    5.6340 h1        1 24K      0.071000
     44 H161       -0.4590    0.7980    7.0950 ho        1 24K      0.197000
     45 H172       -1.3270   -0.5920    4.2650 hc        1 24K      0.093000
     46 H171       -0.2770   -1.4460    5.1480 hc        1 24K      0.093000
     47 H181        0.0540   -1.7160    2.7730 hc        1 24K      0.090500
     48 H182        1.3280   -1.1760    3.5210 hc        1 24K      0.090500
     49 H211        3.7360   -2.1280   -1.0340 ha        1 24K      0.146000
     50 H221        6.0590   -1.9850   -0.7250 ha        1 24K      0.138000
     51 H231        7.0510    0.0930   -0.3250 ha        1 24K      0.150500
     52 H241        5.7730    2.0500   -0.2230 ha        1 24K      0.150500
@<TRIPOS>BOND
     1    1    2 1   
     2    1   26 1   
     3    1   27 1   
     4    1   28 1   
     5    2    3 1   
     6    2   29 1   
     7    2   30 1   
     8    3    4 1   
     9    3   31 1   
    10    3   32 1   
    11    4    5 1   
    12    4   33 1   
    13    4   34 1   
    14    5    6 1   
    15    5   35 1   
    16    6    7 1   
    17    6   19 1   
    18    7    8 1   
    19    8   36 1   
    20    9   10 1   
    21    9   20 1   
    22   10   11 1   
    23   11   12 1   
    24   11   37 1   
    25   12   13 1   
    26   12   18 1   
    27   12   38 1   
    28   13   14 1   
    29   13   39 1   
    30   13   40 1   
    31   14   15 1   
    32   14   41 1   
    33   14   42 1   
    34   15   16 1   
    35   15   17 1   
    36   15   43 1   
    37   16   44 1   
    38   17   18 1   
    39   17   45 1   
    40   17   46 1   
    41   18   47 1   
    42   18   48 1   
    43   20   21 1   
    44   20   25 1   
    45   21   22 1   
    46   21   49 1   
    47   22   50 1   
    48   23   24 1   
    49   23   51 1   
    50   24   52 1   
@<TRIPOS>SUBSTRUCTURE
     1 24K         1 TEMP              0 ****  ****    0 ROOT
