@<TRIPOS>MOLECULE
24K
   52    54     1     0     0
SMALL
bcc


@<TRIPOS>ATOM
      1 C01         0.0340   -0.0780   -0.1030 c3        1 24K     -0.093100
      2 C02         1.5360   -0.1560   -0.0090 c3        1 24K     -0.078400
      3 C03         2.0140    0.1220    1.4010 c3        1 24K     -0.095400
      4 C04         3.5390    0.0340    1.4560 c3        1 24K      0.209800
      5 N05         4.0640    0.3150    2.7710 nu        1 24K     -0.839900
      6 C06         5.4240    0.1400    3.0430 ca        1 24K      0.913900
      7 N07         6.3180    0.0660    1.9730 nb        1 24K     -0.779000
      8 C08         7.6110    0.0200    2.3040 ca        1 24K      0.502200
      9 C09         8.1040    0.0180    3.6230 cp        1 24K     -0.506100
     10 C10         7.1200    0.0470    4.6750 ca        1 24K      0.755200
     11 N11         7.5140   -0.1060    5.9990 nu        1 24K     -0.836900
     12 C12         6.6030    0.1110    7.1090 c3        1 24K      0.213500
     13 C13         6.2770    1.5940    7.3660 c3        1 24K     -0.092900
     14 C14         5.2800    1.7340    8.4940 c3        1 24K     -0.092400
     15 C15         5.8150    1.0930    9.7710 c3        1 24K      0.138100
     16 O16         4.7840    1.2060   10.7430 oh        1 24K     -0.598800
     17 C17         6.1840   -0.3680    9.5320 c3        1 24K     -0.092400
     18 C18         7.1800   -0.5000    8.4020 c3        1 24K     -0.092900
     19 N19         5.7840    0.1160    4.3780 nb        1 24K     -0.829000
     20 C20         9.5520   -0.0050    3.8320 cp        1 24K      0.499800
     21 C21        10.3260   -0.9080    3.0610 ca        1 24K     -0.246300
     22 C22        11.7120   -0.9110    3.2030 ca        1 24K     -0.087000
     23 C23        12.3040   -0.0260    4.1030 ca        1 24K     -0.256300
     24 C24        11.4630    0.8300    4.8370 ca        1 24K      0.402200
     25 N25        10.1250    0.8540    4.7180 nb        1 24K     -0.690000
     26 H013       -0.3280    0.9380    0.1880 hc        1 24K      0.034700
     27 H012       -0.4440   -0.8270    0.5740 hc        1 24K      0.034700
     28 H011       -0.2990   -0.2840   -1.1480 hc        1 24K      0.034700
     29 H021        1.9970    0.5860   -0.7140 hc        1 24K      0.043700
     30 H022        1.8810   -1.1750   -0.3290 hc        1 24K      0.043700
     31 H032        1.5550   -0.6200    2.1060 hc        1 24K      0.047200
     32 H031        1.6740    1.1430    1.7180 hc        1 24K      0.047200
     33 H042        3.9790    0.7820    0.7360 h1        1 24K      0.053700
     34 H041        3.8560   -0.9940    1.1100 h1        1 24K      0.053700
     35 H051        3.4400    0.1720    3.5360 hn        1 24K      0.433800
     36 H081        8.3150   -0.0150    1.4490 h4        1 24K      0.024100
     37 H111        8.4600    0.1360    6.1970 hn        1 24K      0.437800
     38 H121        5.6340   -0.4260    6.8800 h1        1 24K      0.083700
     39 H131        7.2170    2.1500    7.6170 hc        1 24K      0.051200
     40 H132        5.8460    2.0520    6.4380 hc        1 24K      0.051200
     41 H142        5.0710    2.8170    8.6880 hc        1 24K      0.053700
     42 H141        4.3090    1.2470    8.2190 hc        1 24K      0.053700
     43 H151        6.7230    1.6570   10.1300 h1        1 24K      0.031700
     44 H161        5.0960    0.7510   11.5340 ho        1 24K      0.398000
     45 H172        5.2530   -0.9470    9.2970 hc        1 24K      0.053700
     46 H171        6.6230   -0.8010   10.4680 hc        1 24K      0.053700
     47 H181        8.1350    0.0190    8.6770 hc        1 24K      0.051200
     48 H182        7.4140   -1.5840    8.2390 hc        1 24K      0.051200
     49 H211        9.8290   -1.6000    2.3670 ha        1 24K      0.146000
     50 H221       12.3290   -1.6050    2.6130 ha        1 24K      0.138000
     51 H231       13.3910    0.0070    4.2430 ha        1 24K      0.144000
     52 H241       11.8840    1.5470    5.5650 h4        1 24K      0.020100
@<TRIPOS>BOND
     1    1    2 1   
     2    1   26 1   
     3    1   27 1   
     4    1   28 1   
     5    2    3 1   
     6    2   29 1   
     7    2   30 1   
     8    3    4 1   
     9    3   31 1   
    10    3   32 1   
    11    4    5 1   
    12    4   33 1   
    13    4   34 1   
    14    5    6 1   
    15    5   35 1   
    16    6    7 ar  
    17    6   19 ar  
    18    7    8 ar  
    19    8    9 ar  
    20    8   36 1   
    21    9   10 ar  
    22    9   20 1   
    23   10   11 1   
    24   10   19 ar  
    25   11   12 1   
    26   11   37 1   
    27   12   13 1   
    28   12   18 1   
    29   12   38 1   
    30   13   14 1   
    31   13   39 1   
    32   13   40 1   
    33   14   15 1   
    34   14   41 1   
    35   14   42 1   
    36   15   16 1   
    37   15   17 1   
    38   15   43 1   
    39   16   44 1   
    40   17   18 1   
    41   17   45 1   
    42   17   46 1   
    43   18   47 1   
    44   18   48 1   
    45   20   21 ar  
    46   20   25 ar  
    47   21   22 ar  
    48   21   49 1   
    49   22   23 ar  
    50   22   50 1   
    51   23   24 ar  
    52   23   51 1   
    53   24   25 ar  
    54   24   52 1   
@<TRIPOS>SUBSTRUCTURE
     1 24K         1 TEMP              0 ****  ****    0 ROOT
