@<TRIPOS>MOLECULE
24K
   54    56     1     0     0
SMALL
bcc


@<TRIPOS>ATOM
      1 C01         0.1770    0.8190    0.4100 c3        1 24K     -0.103100
      2 C02         1.6550    0.9320    0.6880 c3        1 24K     -0.074400
      3 C03         2.1050   -0.1680    1.6340 c3        1 24K     -0.115400
      4 C04         3.6000   -0.0190    1.8890 c3        1 24K      0.111800
      5 N05         4.1090   -1.0880    2.8200 n4        1 24K     -0.742700
      6 C06         5.5640   -0.9150    3.1010 ca        1 24K      0.726900
      7 N07         6.4340   -1.2870    2.0950 nb        1 24K     -0.616000
      8 C08         7.7310   -1.1200    2.3560 ca        1 24K      0.478200
      9 C09         8.2330   -0.6000    3.5920 cp        1 24K     -0.234100
     10 C10         7.2440   -0.2490    4.5550 ca        1 24K      0.531200
     11 N11         7.6570    0.3100    5.8570 n4        1 24K     -0.749700
     12 C12         6.6330    0.3140    6.9810 c3        1 24K      0.133500
     13 C13         5.7650    1.5750    6.9480 c3        1 24K     -0.097400
     14 C14         4.7150    1.4850    8.0350 c3        1 24K     -0.102900
     15 C15         5.3490    1.3110    9.4140 c3        1 24K      0.143100
     16 O16         4.2690    1.0630   10.2980 oh        1 24K     -0.579800
     17 C17         6.3180    0.1290    9.4370 c3        1 24K     -0.102900
     18 C18         7.3530    0.2270    8.3370 c3        1 24K     -0.097400
     19 N19         5.9060   -0.3990    4.3150 nb        1 24K     -0.658000
     20 C20         9.6770   -0.4380    3.7590 cp        1 24K      0.351800
     21 C21        10.5560   -1.3230    3.1020 ca        1 24K     -0.172300
     22 C22        11.9380   -1.1040    3.2030 ca        1 24K     -0.076000
     23 C23        12.4000   -0.0190    3.9390 ca        1 24K     -0.163300
     24 C24        11.4480    0.8090    4.5850 ca        1 24K      0.428200
     25 N25        10.1300    0.6110    4.5130 nb        1 24K     -0.725000
     26 H013       -0.0660   -0.1620   -0.0650 hc        1 24K      0.058367
     27 H012       -0.4150    0.9140    1.3530 hc        1 24K      0.058367
     28 H011       -0.1390    1.6350   -0.2870 hc        1 24K      0.058367
     29 H021        2.2260    0.8590   -0.2760 hc        1 24K      0.057200
     30 H022        1.8790    1.9340    1.1400 hc        1 24K      0.057200
     31 H032        1.5280   -0.0900    2.5930 hc        1 24K      0.074700
     32 H031        1.8790   -1.1670    1.1720 hc        1 24K      0.074700
     33 H042        3.8190    0.9800    2.3620 hx        1 24K      0.116700
     34 H041        4.1700   -0.1030    0.9180 hx        1 24K      0.116700
     35 H051        3.5750   -1.0550    3.7020 hn        1 24K      0.482800
     36 H081        8.4270   -1.4010    1.5320 h4        1 24K      0.101100
     37 H111        7.9630    1.2840    5.6890 hn        1 24K      0.482800
     38 H121        5.9860   -0.6050    6.8620 hx        1 24K      0.114700
     39 H131        5.2570    1.6870    5.9560 hc        1 24K      0.068200
     40 H132        6.4020    2.4850    7.1160 hc        1 24K      0.068200
     41 H142        4.0180    0.6280    7.8410 hc        1 24K      0.082450
     42 H141        4.0990    2.4240    8.0350 hc        1 24K      0.082450
     43 H151        5.8910    2.2530    9.7080 h1        1 24K      0.053700
     44 H161        4.6010    1.1740   11.1980 ho        1 24K      0.427000
     45 H172        5.7340   -0.8250    9.3430 hc        1 24K      0.082450
     46 H171        6.8450    0.0990   10.4280 hc        1 24K      0.082450
     47 H181        7.9890    1.1370    8.4980 hc        1 24K      0.068200
     48 H182        8.0160   -0.6780    8.3790 hc        1 24K      0.068200
     49 H211       10.1810   -2.1860    2.5310 ha        1 24K      0.161000
     50 H221       12.6430   -1.7870    2.6970 ha        1 24K      0.187000
     51 H231       13.4770    0.2010    4.0300 ha        1 24K      0.193000
     52 H241       11.7770    1.6790    5.1890 h4        1 24K      0.060100
     53 H052        3.9660   -2.0130    2.3850 hn        1 24K      0.482800
     54 H112        8.4750   -0.2360    6.1750 hn        1 24K      0.482800
@<TRIPOS>BOND
     1    1    2 1   
     2    1   26 1   
     3    1   27 1   
     4    1   28 1   
     5    2    3 1   
     6    2   29 1   
     7    2   30 1   
     8    3    4 1   
     9    3   31 1   
    10    3   32 1   
    11    4    5 1   
    12    4   33 1   
    13    4   34 1   
    14    5    6 1   
    15    5   35 1   
    16    5   53 1   
    17    6    7 ar  
    18    6   19 ar  
    19    7    8 ar  
    20    8    9 ar  
    21    8   36 1   
    22    9   10 ar  
    23    9   20 1   
    24   10   11 1   
    25   10   19 ar  
    26   11   12 1   
    27   11   37 1   
    28   11   54 1   
    29   12   13 1   
    30   12   18 1   
    31   12   38 1   
    32   13   14 1   
    33   13   39 1   
    34   13   40 1   
    35   14   15 1   
    36   14   41 1   
    37   14   42 1   
    38   15   16 1   
    39   15   17 1   
    40   15   43 1   
    41   16   44 1   
    42   17   18 1   
    43   17   45 1   
    44   17   46 1   
    45   18   47 1   
    46   18   48 1   
    47   20   21 ar  
    48   20   25 ar  
    49   21   22 ar  
    50   21   49 1   
    51   22   23 ar  
    52   22   50 1   
    53   23   24 ar  
    54   23   51 1   
    55   24   25 ar  
    56   24   52 1   
@<TRIPOS>SUBSTRUCTURE
     1 24K         1 TEMP              0 ****  ****    0 ROOT
