@<TRIPOS>MOLECULE
24K
   52    54     1     0     0
SMALL
bcc


@<TRIPOS>ATOM
      1 C01         8.0200   -1.0510   -0.1600 c3        1 24K     -0.093100
      2 C02         6.8720   -0.0780   -0.2400 c3        1 24K     -0.078400
      3 C03         5.5630   -0.7400    0.1360 c3        1 24K     -0.095400
      4 C04         4.4250    0.2770    0.0430 c3        1 24K      0.207800
      5 N05         3.1480   -0.2840    0.4150 nh        1 24K     -0.836900
      6 C06         1.9740    0.4570    0.2380 ca        1 24K      0.911900
      7 N07         2.0700    1.8410    0.0890 nb        1 24K     -0.778000
      8 C08         0.9080    2.4950    0.0130 ca        1 24K      0.502200
      9 C09        -0.3610    1.8900    0.0750 cp        1 24K     -0.506100
     10 C10        -0.3820    0.4570    0.2310 ca        1 24K      0.756200
     11 N11        -1.5880   -0.2040    0.4230 nh        1 24K     -0.837900
     12 C12        -1.6930   -1.6520    0.4040 c3        1 24K      0.213500
     13 C13        -1.5970   -2.2630   -1.0060 c3        1 24K     -0.092900
     14 C14        -1.6550   -3.7720   -0.9390 c3        1 24K     -0.092400
     15 C15        -2.9410   -4.2340   -0.2610 c3        1 24K      0.139100
     16 O16        -2.8670   -5.6520   -0.1770 oh        1 24K     -0.598800
     17 C17        -3.0800   -3.6100    1.1240 c3        1 24K     -0.092400
     18 C18        -3.0190   -2.1010    1.0490 c3        1 24K     -0.092900
     19 N19         0.7890   -0.2550    0.2800 nb        1 24K     -0.830000
     20 C20        -1.5490    2.7370   -0.0330 cp        1 24K      0.499800
     21 C21        -1.5870    3.9350    0.7230 ca        1 24K     -0.246300
     22 C22        -2.6830    4.7870    0.5980 ca        1 24K     -0.087000
     23 C23        -3.7180    4.4360   -0.2690 ca        1 24K     -0.256300
     24 C24        -3.6070    3.2250   -0.9750 ca        1 24K      0.402200
     25 N25        -2.5600    2.3890   -0.8730 nb        1 24K     -0.691000
     26 H013        8.9760   -0.5450   -0.4390 hc        1 24K      0.034700
     27 H012        8.1240   -1.4560    0.8760 hc        1 24K      0.034700
     28 H011        7.8590   -1.9100   -0.8560 hc        1 24K      0.034700
     29 H021        7.0640    0.7890    0.4470 hc        1 24K      0.043700
     30 H022        6.8000    0.3350   -1.2800 hc        1 24K      0.043700
     31 H032        5.3690   -1.6040   -0.5520 hc        1 24K      0.047200
     32 H031        5.6330   -1.1480    1.1780 hc        1 24K      0.047200
     33 H042        4.6430    1.1400    0.7360 h1        1 24K      0.053700
     34 H041        4.3910    0.6890   -1.0080 h1        1 24K      0.053700
     35 H051        3.0590   -1.2730    0.3220 hn        1 24K      0.431800
     36 H081        0.9930    3.5920   -0.1170 h4        1 24K      0.024100
     37 H111       -2.3990    0.2690    0.0890 hn        1 24K      0.438800
     38 H121       -0.8490   -2.0750    1.0280 h1        1 24K      0.085700
     39 H131       -2.4350   -1.8780   -1.6430 hc        1 24K      0.050700
     40 H132       -0.6320   -1.9540   -1.4860 hc        1 24K      0.050700
     41 H142       -1.6090   -4.2040   -1.9720 hc        1 24K      0.053700
     42 H141       -0.7760   -4.1710   -0.3680 hc        1 24K      0.053700
     43 H151       -3.8300   -3.9490   -0.8930 h1        1 24K      0.031700
     44 H161       -3.6480   -5.9430    0.3080 ho        1 24K      0.398000
     45 H172       -4.0550   -3.9230    1.5800 hc        1 24K      0.053700
     46 H171       -2.2600   -3.9980    1.7840 hc        1 24K      0.053700
     47 H181       -3.1040   -1.6750    2.0830 hc        1 24K      0.050700
     48 H182       -3.8850   -1.7180    0.4490 hc        1 24K      0.050700
     49 H211       -0.7600    4.1770    1.4050 ha        1 24K      0.147000
     50 H221       -2.7310    5.7200    1.1770 ha        1 24K      0.138000
     51 H231       -4.5970    5.0790   -0.4000 ha        1 24K      0.144000
     52 H241       -4.4020    2.9030   -1.6710 h4        1 24K      0.020100
@<TRIPOS>BOND
     1    1    2 1   
     2    1   26 1   
     3    1   27 1   
     4    1   28 1   
     5    2    3 1   
     6    2   29 1   
     7    2   30 1   
     8    3    4 1   
     9    3   31 1   
    10    3   32 1   
    11    4    5 1   
    12    4   33 1   
    13    4   34 1   
    14    5    6 1   
    15    5   35 1   
    16    6    7 ar  
    17    6   19 ar  
    18    7    8 ar  
    19    8    9 ar  
    20    8   36 1   
    21    9   10 ar  
    22    9   20 1   
    23   10   11 1   
    24   10   19 ar  
    25   11   12 1   
    26   11   37 1   
    27   12   13 1   
    28   12   18 1   
    29   12   38 1   
    30   13   14 1   
    31   13   39 1   
    32   13   40 1   
    33   14   15 1   
    34   14   41 1   
    35   14   42 1   
    36   15   16 1   
    37   15   17 1   
    38   15   43 1   
    39   16   44 1   
    40   17   18 1   
    41   17   45 1   
    42   17   46 1   
    43   18   47 1   
    44   18   48 1   
    45   20   21 ar  
    46   20   25 ar  
    47   21   22 ar  
    48   21   49 1   
    49   22   23 ar  
    50   22   50 1   
    51   23   24 ar  
    52   23   51 1   
    53   24   25 ar  
    54   24   52 1   
@<TRIPOS>SUBSTRUCTURE
     1 24K         1 TEMP              0 ****  ****    0 ROOT
