@<TRIPOS>MOLECULE
24L
   70    74     1     0     0
SMALL
bcc


@<TRIPOS>ATOM
      1 C1          7.9420   -0.4210   -2.5230 c3        1 24L     -0.198100
      2 C2          7.9270    0.0470   -1.1030 c         1 24L      0.612300
      3 O3          8.9400    0.4730   -0.5380 o         1 24L     -0.534100
      4 C4          6.6200   -0.0340   -0.4110 ce        1 24L     -0.382400
      5 C5          5.4980    0.7410   -0.9570 c         1 24L      0.630300
      6 C6          4.3640    1.0200    0.0180 c3        1 24L     -0.070500
      7 C7          4.1760   -0.1700    0.9520 c2        1 24L      0.162900
      8 C8          5.1670   -0.9920    1.3470 cf        1 24L     -0.281000
      9 C9          6.4580   -0.8100    0.7090 cf        1 24L      0.263100
     10 O10         2.8340   -0.3800    1.2510 os        1 24L     -0.185200
     11 C11         2.1040    0.3870    0.3170 ca        1 24L      0.196100
     12 C12         2.9570    1.1900   -0.4880 ca        1 24L     -0.296300
     13 C13         2.3700    1.9970   -1.4590 ca        1 24L      0.257100
     14 C14         0.9670    1.9970   -1.6070 ca        1 24L     -0.277000
     15 C15         0.1610    1.2010   -0.7860 ca        1 24L      0.237100
     16 C16         0.7240    0.3550    0.2180 ca        1 24L     -0.209600
     17 C17         4.7710    2.2590    0.8210 c3        1 24L     -0.082100
     18 O18         5.5010    1.2350   -2.0920 o         1 24L     -0.557100
     19 O19         7.5310   -1.5210    1.1710 oh        1 24L     -0.471100
     20 O20         3.0570    2.8330   -2.2920 oh        1 24L     -0.490100
     21 O21        -1.1980    1.1620   -0.8980 os        1 24L     -0.333900
     22 C22        -1.8140    2.0380   -1.8530 c3        1 24L      0.101700
     23 C23        -0.0740   -0.5400    1.1010 c         1 24L      0.689700
     24 O24         0.3170   -1.6960    1.3710 o         1 24L     -0.614100
     25 N25        -1.2020    0.0030    1.7020 n         1 24L     -0.529900
     26 C26        -2.1300   -0.8340    2.4220 c3        1 24L      0.121300
     27 C27        -3.3330   -1.2640    1.6240 ca        1 24L     -0.112300
     28 C28        -3.5400   -2.6180    1.2280 ca        1 24L     -0.023000
     29 C29        -4.7460   -2.9460    0.5500 ca        1 24L     -0.034000
     30 C30        -5.6650   -1.9200    0.1980 ca        1 24L     -0.129000
     31 C31        -5.4130   -0.6070    0.5270 ca        1 24L     -0.053300
     32 C32        -4.2510   -0.2960    1.2810 ca        1 24L     -0.109000
     33 C33        -5.0040   -4.2990    0.1960 ca        1 24L     -0.124000
     34 C34        -4.0870   -5.2820    0.4720 ca        1 24L     -0.136000
     35 C35        -2.8620   -4.9510    1.0980 ca        1 24L     -0.143000
     36 C36        -2.5920   -3.6540    1.4600 ca        1 24L     -0.110000
     37 C37        -6.2880    0.5100    0.0760 c3        1 24L     -0.045100
     38 C38        -5.5310    1.4280   -0.8680 c3        1 24L     -0.065400
     39 C39        -6.2920    2.6840   -1.2070 c3        1 24L     -0.197400
     40 C40        -5.4000    3.6890   -1.9580 c         1 24L      0.913600
     41 O41        -4.1410    3.6090   -1.8200 o         1 24L     -0.856300
     42 O42        -5.9690    4.5610   -2.6700 o         1 24L     -0.856300
     43 H1          8.9800   -0.3970   -2.9330 hc        1 24L      0.069367
     44 H1A         7.5460   -1.4640   -2.5810 hc        1 24L      0.069367
     45 H1B         7.2850    0.2440   -3.1400 hc        1 24L      0.069367
     46 H14         0.5250    2.6450   -2.3790 ha        1 24L      0.179000
     47 H17         4.8130    3.1390    0.1360 hc        1 24L      0.058033
     48 H17A        4.0160    2.4580    1.6190 hc        1 24L      0.058033
     49 H17B        5.7720    2.1080    1.2910 hc        1 24L      0.058033
     50 HO19        7.2570   -2.0090    1.9640 ho        1 24L      0.432000
     51 HO20        4.0080    2.6510   -2.2020 ho        1 24L      0.449000
     52 H22        -2.9150    1.8490   -1.7100 h1        1 24L      0.081367
     53 H22A       -1.5920    3.1060   -1.6150 h1        1 24L      0.081367
     54 H22B       -1.4840    1.7700   -2.8840 h1        1 24L      0.081367
     55 HN25       -1.6090    0.7960    1.2510 hn        1 24L      0.321500
     56 H26        -1.5750   -1.7220    2.8350 h1        1 24L      0.064200
     57 H26A       -2.4980   -0.2240    3.3000 h1        1 24L      0.064200
     58 H30        -6.5700   -2.1930   -0.3640 ha        1 24L      0.130000
     59 H32        -4.0890    0.7540    1.5760 ha        1 24L      0.142000
     60 H33        -5.9500   -4.5370   -0.3110 ha        1 24L      0.125000
     61 H34        -4.2850   -6.3290    0.2010 ha        1 24L      0.120000
     62 H35        -2.1230   -5.7450    1.2790 ha        1 24L      0.124000
     63 H36        -1.6140   -3.4030    1.9010 ha        1 24L      0.151000
     64 H37        -7.2040    0.1110   -0.4340 hc        1 24L      0.040700
     65 H37A       -6.6330    1.0950    0.9720 hc        1 24L      0.040700
     66 H38        -4.5530    1.7260   -0.3990 hc        1 24L      0.046700
     67 H38A       -5.2850    0.8750   -1.8110 hc        1 24L      0.046700
     68 H39        -7.1860    2.4480   -1.8360 hc        1 24L      0.026200
     69 H39A       -6.6550    3.1840   -0.2730 hc        1 24L      0.026200
     70 H8          5.0120   -1.8210    2.0500 ha        1 24L      0.168000
@<TRIPOS>BOND
     1    1    2 1   
     2    1   43 1   
     3    1   44 1   
     4    1   45 1   
     5    2    3 2   
     6    2    4 1   
     7    4    5 1   
     8    4    9 2   
     9    5    6 1   
    10    5   18 2   
    11    6    7 1   
    12    6   12 1   
    13    6   17 1   
    14    7    8 2   
    15    7   10 1   
    16    8    9 1   
    17    8   70 1   
    18    9   19 1   
    19   10   11 1   
    20   11   12 ar  
    21   11   16 ar  
    22   12   13 ar  
    23   13   14 ar  
    24   13   20 1   
    25   14   15 ar  
    26   14   46 1   
    27   15   16 ar  
    28   15   21 1   
    29   16   23 1   
    30   17   47 1   
    31   17   48 1   
    32   17   49 1   
    33   19   50 1   
    34   20   51 1   
    35   21   22 1   
    36   22   52 1   
    37   22   53 1   
    38   22   54 1   
    39   23   24 2   
    40   23   25 1   
    41   25   26 1   
    42   25   55 1   
    43   26   27 1   
    44   26   56 1   
    45   26   57 1   
    46   27   28 ar  
    47   27   32 ar  
    48   28   29 ar  
    49   28   36 ar  
    50   29   30 ar  
    51   29   33 ar  
    52   30   31 ar  
    53   30   58 1   
    54   31   32 ar  
    55   31   37 1   
    56   32   59 1   
    57   33   34 ar  
    58   33   60 1   
    59   34   35 ar  
    60   34   61 1   
    61   35   36 ar  
    62   35   62 1   
    63   36   63 1   
    64   37   38 1   
    65   37   64 1   
    66   37   65 1   
    67   38   39 1   
    68   38   66 1   
    69   38   67 1   
    70   39   40 1   
    71   39   68 1   
    72   39   69 1   
    73   40   41 1   
    74   40   42 1   
@<TRIPOS>SUBSTRUCTURE
     1 24L         1 TEMP              0 ****  ****    0 ROOT
