@<TRIPOS>MOLECULE
24L
   70    67     1     0     0
SMALL
bcc


@<TRIPOS>ATOM
      1 C1         -2.5560   -1.2080    8.3140 c3        1 24L     -0.264000
      2 C2         -2.1500    0.0200    7.5450 c2        1 24L      0.298000
      3 O3         -2.3270    1.1150    8.0200 o         1 24L     -0.271000
      4 C4         -1.4230   -0.1200    6.2580 c2        1 24L     -0.319000
      5 C5         -2.1720   -0.0080    4.9530 c2        1 24L      0.307000
      6 C6         -1.4080   -0.1910    3.5900 c3        1 24L     -0.024000
      7 C7          0.0660   -0.2830    3.6050 c2        1 24L      0.095000
      8 C8          0.8110   -0.4750    4.9420 c1        1 24L     -0.251000
      9 C9          0.0780   -0.2600    6.2530 c1        1 24L      0.185000
     10 O10         0.5810    0.6540    2.6120 os        1 24L     -0.097000
     11 C11        -0.6150    1.3860    1.9820 c2        1 24L      0.152000
     12 C12        -1.7690    1.0160    2.6850 c2        1 24L     -0.204000
     13 C13        -2.9860    1.6550    2.4170 c1        1 24L      0.195000
     14 C14        -3.0490    2.6670    1.4430 c1        1 24L     -0.321000
     15 C15        -1.8950    3.0370    0.7400 c1        1 24L      0.172000
     16 C16        -0.6790    2.3990    1.0070 c1        1 24L     -0.175000
     17 C17        -1.9560   -1.4780    2.9110 c3        1 24L     -0.197000
     18 O18        -3.3560    0.2230    4.9550 o         1 24L     -0.246000
     19 O19         0.8150   -0.0590    7.4540 oh        1 24L     -0.245000
     20 O20        -4.1440    1.2140    3.0270 oh        1 24L     -0.223000
     21 O21        -1.9710    4.0580   -0.3080 os        1 24L     -0.204000
     22 C22        -2.9410    3.7640   -1.3510 c3        1 24L     -0.081000
     23 C23         0.6370    2.5490    0.2310 c2        1 24L      0.356000
     24 O24         1.5400    3.2180    0.6910 o         1 24L     -0.356000
     25 N25         0.7810    1.9430   -1.0740 n         1 24L     -0.347000
     26 C26         2.0980    1.7610   -1.6430 c3        1 24L      0.012000
     27 C27         1.9940    0.9340   -2.9100 c2        1 24L     -0.111000
     28 C28         2.0040    1.3440   -4.2610 c2        1 24L     -0.035000
     29 C29         1.7670    0.4290   -5.2570 c1        1 24L     -0.035000
     30 C30         1.5140   -0.9240   -4.9310 c1        1 24L     -0.110000
     31 C31         1.5050   -1.3280   -3.6030 c1        1 24L     -0.049000
     32 C32         1.7450   -0.3990   -2.5890 c1        1 24L     -0.100000
     33 C33         1.7770    0.8350   -6.6030 c1        1 24L     -0.107000
     34 C34         2.0270    2.1690   -6.9270 c1        1 24L     -0.145500
     35 C35         2.2670    3.0960   -5.9180 c1        1 24L     -0.145500
     36 C36         2.2570    2.6950   -4.5900 c1        1 24L     -0.125000
     37 C37         1.1230   -2.7720   -3.1700 c3        1 24L     -0.133000
     38 C38         2.2190   -3.7510   -3.6270 c3        1 24L     -0.147000
     39 C39         1.7850   -5.2040   -3.2880 c3        1 24L     -0.226000
     40 C40         2.7440   -6.1850   -3.9440 c2        1 24L      0.329000
     41 O41         2.4950   -6.6340   -5.0910 o         1 24L     -0.584500
     42 O42         3.7330   -6.6240   -3.2980 o         1 24L     -0.584500
     43 H1         -1.7780   -1.7950    8.4260 hc        1 24L      0.103000
     44 H1A        -3.2550   -1.6840    7.8220 hc        1 24L      0.103000
     45 H1B        -2.8960   -0.9460    9.1920 hc        1 24L      0.103000
     46 H14        -3.9090    3.0810    1.2220 ha        1 24L      0.148000
     47 H17        -2.9120   -1.3580    2.7040 hc        1 24L      0.096667
     48 H17A       -1.4620   -1.6460    2.0830 hc        1 24L      0.096667
     49 H17B       -1.8460   -2.2450    3.5230 hc        1 24L      0.096667
     50 HO19        1.3900   -0.7340    7.5670 ho        1 24L      0.233000
     51 HO20       -4.7490    1.0280    2.4100 ho        1 24L      0.225000
     52 H22        -3.8330    3.6630   -0.9510 h1        1 24L      0.094333
     53 H22A       -2.6900    2.9320   -1.8060 h1        1 24L      0.094333
     54 H22B       -2.9560    4.5090   -2.0090 h1        1 24L      0.094333
     55 HN25        0.0410    1.7350   -1.5630 hn        1 24L      0.230000
     56 H26         2.6700    1.3000   -0.9990 h1        1 24L      0.096000
     57 H26A        2.4860    2.6370   -1.8550 h1        1 24L      0.096000
     58 H30         1.4090   -1.5800   -5.6370 ha        1 24L      0.162000
     59 H32         1.7380   -0.6820   -1.6610 ha        1 24L      0.134000
     60 H33         1.7010    0.1670   -7.3140 ha        1 24L      0.140000
     61 H34         1.9300    2.4700   -7.8480 ha        1 24L      0.121500
     62 H35         2.4430    4.0390   -6.1460 ha        1 24L      0.121500
     63 H36         2.3920    3.3470   -3.8860 ha        1 24L      0.134000
     64 H37         1.0390   -2.8100   -2.1990 hc        1 24L      0.084500
     65 H37A        0.2720   -3.0210   -3.5810 hc        1 24L      0.084500
     66 H38         3.0570   -3.5410   -3.1640 hc        1 24L      0.089000
     67 H38A        2.3500   -3.6670   -4.5910 hc        1 24L      0.089000
     68 H39         0.8790   -5.3600   -3.6220 hc        1 24L      0.060500
     69 H39A        1.8010   -5.3320   -2.3140 hc        1 24L      0.060500
     70 H8          1.7210   -0.7850    4.9440 ha        1 24L      0.168000
@<TRIPOS>BOND
     1    1    2 1   
     2    1   43 1   
     3    1   44 1   
     4    1   45 1   
     5    2    3 1   
     6    2    4 1   
     7    4    5 1   
     8    4    9 1   
     9    5    6 1   
    10    5   18 1   
    11    6    7 1   
    12    6   12 1   
    13    6   17 1   
    14    7    8 1   
    15    7   10 1   
    16    8   70 1   
    17    9   19 1   
    18   10   11 1   
    19   11   12 1   
    20   11   16 1   
    21   12   13 1   
    22   13   20 1   
    23   14   15 1   
    24   14   46 1   
    25   15   21 1   
    26   16   23 1   
    27   17   47 1   
    28   17   48 1   
    29   17   49 1   
    30   19   50 1   
    31   20   51 1   
    32   21   22 1   
    33   22   52 1   
    34   22   53 1   
    35   22   54 1   
    36   23   24 1   
    37   23   25 1   
    38   25   26 1   
    39   25   55 1   
    40   26   27 1   
    41   26   56 1   
    42   26   57 1   
    43   27   28 1   
    44   27   32 1   
    45   28   29 1   
    46   28   36 1   
    47   29   33 1   
    48   30   31 1   
    49   30   58 1   
    50   31   37 1   
    51   32   59 1   
    52   33   60 1   
    53   34   35 1   
    54   34   61 1   
    55   35   62 1   
    56   36   63 1   
    57   37   38 1   
    58   37   64 1   
    59   37   65 1   
    60   38   39 1   
    61   38   66 1   
    62   38   67 1   
    63   39   40 1   
    64   39   68 1   
    65   39   69 1   
    66   40   41 1   
    67   40   42 1   
@<TRIPOS>SUBSTRUCTURE
     1 24L         1 TEMP              0 ****  ****    0 ROOT
