@<TRIPOS>MOLECULE
24L
   71    75     1     0     0
SMALL
bcc


@<TRIPOS>ATOM
      1 C1          0.9120    0.0870    0.3770 c3        1 24L     -0.198100
      2 C2          1.3880   -0.9110   -0.6270 c         1 24L      0.608300
      3 O3          1.1230   -2.1140   -0.5480 o         1 24L     -0.522100
      4 C4          2.2030   -0.3650   -1.7390 ce        1 24L     -0.360400
      5 C5          1.5540    0.5790   -2.6740 c         1 24L      0.619300
      6 C6          2.1650    0.5650   -4.0710 c3        1 24L     -0.057500
      7 C7          3.6820    0.5310   -3.9320 c2        1 24L      0.128900
      8 C8          4.3390   -0.1180   -2.9550 cf        1 24L     -0.247000
      9 C9          3.5150   -0.7100   -1.9060 cf        1 24L      0.233100
     10 O10         4.3050    1.3740   -4.8590 os        1 24L     -0.216200
     11 C11         3.2820    2.1670   -5.4150 ca        1 24L      0.183100
     12 C12         1.9990    1.7670   -4.9570 ca        1 24L     -0.215300
     13 C13         0.8830    2.4430   -5.4400 ca        1 24L      0.250100
     14 C14         1.0590    3.5350   -6.3160 ca        1 24L     -0.329000
     15 C15         2.3400    3.9080   -6.7330 ca        1 24L      0.245100
     16 C16         3.5060    3.2080   -6.3020 ca        1 24L     -0.211600
     17 C17         1.6470   -0.6820   -4.7860 c3        1 24L     -0.081100
     18 O18         0.5780    1.2700   -2.3810 o         1 24L     -0.503100
     19 O19         4.0970   -1.5540   -1.0000 oh        1 24L     -0.469100
     20 O20        -0.3560    2.0000   -5.0710 oh        1 24L     -0.465100
     21 O21         2.5800    4.9710   -7.5650 os        1 24L     -0.306900
     22 C22         1.4410    5.6690   -8.0690 c3        1 24L      0.096700
     23 C23         4.8430    3.5790   -6.8400 c         1 24L      0.702700
     24 O24         4.9930    3.9130   -8.0330 o         1 24L     -0.605100
     25 N25         5.9130    3.4910   -5.9700 ns        1 24L     -0.553900
     26 C26         7.2370    3.9190   -6.3310 c3        1 24L      0.135300
     27 C27         7.6380    5.2580   -5.7670 ca        1 24L     -0.110300
     28 C28         8.0260    5.3980   -4.4020 ca        1 24L     -0.022000
     29 C29         8.3950    6.6860   -3.9320 ca        1 24L     -0.040000
     30 C30         8.3750    7.7940   -4.8200 ca        1 24L     -0.117000
     31 C31         8.0020    7.6400   -6.1380 ca        1 24L     -0.083300
     32 C32         7.6330    6.3520   -6.6040 ca        1 24L     -0.094000
     33 C33         8.7810    6.8500   -2.5720 ca        1 24L     -0.113000
     34 C34         8.7990    5.7780   -1.7160 ca        1 24L     -0.131000
     35 C35         8.4360    4.4920   -2.1830 ca        1 24L     -0.124000
     36 C36         8.0600    4.3070   -3.4900 ca        1 24L     -0.130000
     37 C37         8.0270    8.8100   -7.0600 c3        1 24L     -0.035100
     38 C38         6.9500    8.8160   -8.1280 c3        1 24L     -0.073400
     39 C39         5.5490    8.8510   -7.5480 c3        1 24L     -0.130400
     40 C40         4.6170    7.8700   -8.1880 c         1 24L      0.640100
     41 O41         5.1200    6.6170   -8.3260 oh        1 24L     -0.602100
     42 O42         3.4560    8.0630   -8.5680 o         1 24L     -0.583000
     43 H1          0.2650    0.8470   -0.1300 hc        1 24L      0.070367
     44 H1A         1.7880    0.6090    0.8330 hc        1 24L      0.070367
     45 H1B         0.3260   -0.4180    1.1830 hc        1 24L      0.070367
     46 H14         0.1720    4.0790   -6.6690 ha        1 24L      0.152000
     47 H17         0.5510   -0.5620   -4.9690 hc        1 24L      0.062033
     48 H17A        1.8210   -1.5900   -4.1610 hc        1 24L      0.062033
     49 H17B        2.1680   -0.8050   -5.7650 hc        1 24L      0.062033
     50 HO19        5.0030   -1.7410   -1.2930 ho        1 24L      0.432000
     51 HO20       -1.0130    2.6470   -5.3730 ho        1 24L      0.430000
     52 H22         1.9040    6.4750   -8.7000 h1        1 24L      0.061700
     53 H22A        0.8530    6.1160   -7.2320 h1        1 24L      0.061700
     54 H22B        0.8060    4.9870   -8.6840 h1        1 24L      0.061700
     55 HN25        4.4320    5.9920   -8.6270 ho        1 24L      0.473000
     56 H26         7.3020    3.9580   -7.4590 h1        1 24L      0.069700
     57 H26A        7.9660    3.1360   -5.9700 h1        1 24L      0.069700
     58 H30         8.6640    8.7830   -4.4300 ha        1 24L      0.132000
     59 H32         7.3080    6.2320   -7.6520 ha        1 24L      0.162000
     60 H33         9.0640    7.8550   -2.2240 ha        1 24L      0.133000
     61 H34         9.0970    5.9020   -0.6640 ha        1 24L      0.133000
     62 H35         8.4610    3.6440   -1.4820 ha        1 24L      0.130000
     63 H36         7.7860    3.3010   -3.8440 ha        1 24L      0.129000
     64 H37         9.0290    8.8280   -7.5730 hc        1 24L      0.051700
     65 H37A        7.9470    9.7580   -6.4600 hc        1 24L      0.051700
     66 H38         7.0730    7.9190   -8.7920 hc        1 24L      0.057200
     67 H38A        7.1010    9.7210   -8.7750 hc        1 24L      0.057200
     68 H39         5.1030    9.8750   -7.6560 hc        1 24L      0.081200
     69 H39A        5.5770    8.6000   -6.4510 hc        1 24L      0.081200
     70 H8          5.4320   -0.1630   -2.8810 ha        1 24L      0.164000
     71 H252        5.7310    3.3460   -5.0050 hn        1 24L      0.314500
@<TRIPOS>BOND
     1    1    2 1   
     2    1   43 1   
     3    1   44 1   
     4    1   45 1   
     5    2    3 2   
     6    2    4 1   
     7    4    5 1   
     8    4    9 2   
     9    5    6 1   
    10    5   18 2   
    11    6    7 1   
    12    6   12 1   
    13    6   17 1   
    14    7    8 2   
    15    7   10 1   
    16    8    9 1   
    17    8   70 1   
    18    9   19 1   
    19   10   11 1   
    20   11   12 ar  
    21   11   16 ar  
    22   12   13 ar  
    23   13   14 ar  
    24   13   20 1   
    25   14   15 ar  
    26   14   46 1   
    27   15   16 ar  
    28   15   21 1   
    29   16   23 1   
    30   17   47 1   
    31   17   48 1   
    32   17   49 1   
    33   19   50 1   
    34   20   51 1   
    35   21   22 1   
    36   22   52 1   
    37   22   53 1   
    38   22   54 1   
    39   23   24 2   
    40   23   25 1   
    41   25   26 1   
    42   25   71 1   
    43   26   27 1   
    44   26   56 1   
    45   26   57 1   
    46   27   28 ar  
    47   27   32 ar  
    48   28   29 ar  
    49   28   36 ar  
    50   29   30 ar  
    51   29   33 ar  
    52   30   31 ar  
    53   30   58 1   
    54   31   32 ar  
    55   31   37 1   
    56   32   59 1   
    57   33   34 ar  
    58   33   60 1   
    59   34   35 ar  
    60   34   61 1   
    61   35   36 ar  
    62   35   62 1   
    63   36   63 1   
    64   37   38 1   
    65   37   64 1   
    66   37   65 1   
    67   38   39 1   
    68   38   66 1   
    69   38   67 1   
    70   39   40 1   
    71   39   68 1   
    72   39   69 1   
    73   40   41 1   
    74   40   42 2   
    75   41   55 1   
@<TRIPOS>SUBSTRUCTURE
     1 24L         1 TEMP              0 ****  ****    0 ROOT
