@<TRIPOS>MOLECULE
24L
   71    75     1     0     0
SMALL
bcc


@<TRIPOS>ATOM
      1 C1         -1.2750   -0.0490   -1.1870 c3        1 24L     -0.194100
      2 C2          0.1240   -0.0920   -0.6610 c         1 24L      0.598300
      3 O3          0.3590   -0.3160    0.5330 o         1 24L     -0.526100
      4 C4          1.2080    0.1330   -1.6390 ce        1 24L     -0.367400
      5 C5          0.9170    0.9090   -2.8610 c         1 24L      0.616300
      6 C6          1.8350    0.5800   -4.0360 c3        1 24L     -0.061500
      7 C7          3.2630    0.4720   -3.5130 c2        1 24L      0.125900
      8 C8          3.5920   -0.0020   -2.3010 cf        1 24L     -0.239000
      9 C9          2.4840   -0.3160   -1.4030 cf        1 24L      0.254100
     10 O10         4.1810    1.0610   -4.3960 os        1 24L     -0.205200
     11 C11         3.4130    1.7960   -5.3100 ca        1 24L      0.220100
     12 C12         2.0220    1.5960   -5.1290 ca        1 24L     -0.209300
     13 C13         1.1370    2.2750   -5.9650 ca        1 24L      0.269100
     14 C14         1.6440    3.1560   -6.9450 ca        1 24L     -0.311000
     15 C15         3.0200    3.3320   -7.0930 ca        1 24L      0.263100
     16 C16         3.9560    2.6540   -6.2610 ca        1 24L     -0.250600
     17 C17         1.3630   -0.7430   -4.6350 c3        1 24L     -0.081100
     18 O18        -0.0050    1.7190   -2.9610 o         1 24L     -0.498100
     19 O19         2.7330   -1.0430   -0.2780 oh        1 24L     -0.442100
     20 O20        -0.1980    2.0220   -5.8390 oh        1 24L     -0.461100
     21 O21         3.5720    4.0920   -8.0920 os        1 24L     -0.342900
     22 C22         2.7830    5.1910   -8.5690 c3        1 24L      0.127700
     23 C23         5.4070    2.8370   -6.3880 c         1 24L      0.606700
     24 O24         6.2360    1.9340   -6.4780 o         1 24L     -0.478100
     25 N25         5.8760    4.2450   -6.3670 n4        1 24L     -0.705800
     26 C26         7.2710    4.4340   -6.8690 c3        1 24L      0.181100
     27 C27         7.9030    5.6480   -6.2610 ca        1 24L     -0.143300
     28 C28         9.0230    5.5660   -5.3830 ca        1 24L     -0.007000
     29 C29         9.4700    6.7650   -4.7630 ca        1 24L     -0.039000
     30 C30         8.7800    7.9860   -4.9890 ca        1 24L     -0.097000
     31 C31         7.7090    8.0470   -5.8560 ca        1 24L     -0.064300
     32 C32         7.3190    6.8680   -6.5370 ca        1 24L     -0.076000
     33 C33        10.5950    6.7280   -3.8920 ca        1 24L     -0.108000
     34 C34        11.2510    5.5490   -3.6430 ca        1 24L     -0.133000
     35 C35        10.8070    4.3530   -4.2550 ca        1 24L     -0.115000
     36 C36         9.7240    4.3610   -5.0990 ca        1 24L     -0.135000
     37 C37         6.9580    9.3200   -6.0400 c3        1 24L     -0.035100
     38 C38         5.4810    9.1850   -6.3640 c3        1 24L     -0.068400
     39 C39         4.6620    8.4430   -5.3280 c3        1 24L     -0.161400
     40 C40         4.5900    6.9550   -5.6060 c         1 24L      0.907600
     41 O41         4.3490    6.5280   -6.7910 o         1 24L     -0.872300
     42 O42         4.7960    6.1140   -4.6780 o         1 24L     -0.872300
     43 H1         -1.3400   -0.5680   -2.1730 hc        1 24L      0.067700
     44 H1A        -1.5780    1.0200   -1.3300 hc        1 24L      0.067700
     45 H1B        -1.9750   -0.5320   -0.4650 hc        1 24L      0.067700
     46 H14         0.9470    3.7060   -7.5930 ha        1 24L      0.159000
     47 H17         1.2850   -1.5230   -3.8410 hc        1 24L      0.059700
     48 H17A        2.0810   -1.0890   -5.4170 hc        1 24L      0.059700
     49 H17B        0.3610   -0.5890   -5.1040 hc        1 24L      0.059700
     50 HO19        3.6870   -1.2170   -0.2230 ho        1 24L      0.430000
     51 HO20       -0.6860    2.6860   -6.3530 ho        1 24L      0.436000
     52 H22         2.0130    4.8050   -9.2790 h1        1 24L      0.065033
     53 H22A        2.3300    5.7510   -7.7160 h1        1 24L      0.065033
     54 H22B        3.5410    5.8360   -9.0830 h1        1 24L      0.065033
     55 HN25        5.7810    4.6220   -5.3850 hn        1 24L      0.520800
     56 H26         7.8610    3.5010   -6.6480 hx        1 24L      0.091200
     57 H26A        7.2110    4.5510   -7.9890 hx        1 24L      0.091200
     58 H30         9.1100    8.8830   -4.4430 ha        1 24L      0.136000
     59 H32         6.4850    6.9300   -7.2630 ha        1 24L      0.172000
     60 H33        10.9260    7.6670   -3.4230 ha        1 24L      0.135000
     61 H34        12.1200    5.5180   -2.9710 ha        1 24L      0.135000
     62 H35        11.3430    3.4150   -4.0450 ha        1 24L      0.133000
     63 H36         9.4050    3.4160   -5.5640 ha        1 24L      0.128000
     64 H37         7.0640    9.9370   -5.1050 hc        1 24L      0.046700
     65 H37A        7.4480    9.8960   -6.8730 hc        1 24L      0.046700
     66 H38         5.3480    8.6880   -7.3620 hc        1 24L      0.045700
     67 H38A        5.0720   10.2280   -6.4620 hc        1 24L      0.045700
     68 H39         3.6110    8.8360   -5.3370 hc        1 24L      0.054700
     69 H39A        5.0810    8.6030   -4.3020 hc        1 24L      0.054700
     70 H8          4.6260   -0.0920   -1.9430 ha        1 24L      0.170000
     71 H252        5.2050    4.8670   -6.9100 hn        1 24L      0.520800
@<TRIPOS>BOND
     1    1    2 1   
     2    1   43 1   
     3    1   44 1   
     4    1   45 1   
     5    2    3 2   
     6    2    4 1   
     7    4    5 1   
     8    4    9 2   
     9    5    6 1   
    10    5   18 2   
    11    6    7 1   
    12    6   12 1   
    13    6   17 1   
    14    7    8 2   
    15    7   10 1   
    16    8    9 1   
    17    8   70 1   
    18    9   19 1   
    19   10   11 1   
    20   11   12 ar  
    21   11   16 ar  
    22   12   13 ar  
    23   13   14 ar  
    24   13   20 1   
    25   14   15 ar  
    26   14   46 1   
    27   15   16 ar  
    28   15   21 1   
    29   16   23 1   
    30   17   47 1   
    31   17   48 1   
    32   17   49 1   
    33   19   50 1   
    34   20   51 1   
    35   21   22 1   
    36   22   52 1   
    37   22   53 1   
    38   22   54 1   
    39   23   24 2   
    40   23   25 1   
    41   25   26 1   
    42   25   55 1   
    43   25   71 1   
    44   26   27 1   
    45   26   56 1   
    46   26   57 1   
    47   27   28 ar  
    48   27   32 ar  
    49   28   29 ar  
    50   28   36 ar  
    51   29   30 ar  
    52   29   33 ar  
    53   30   31 ar  
    54   30   58 1   
    55   31   32 ar  
    56   31   37 1   
    57   32   59 1   
    58   33   34 ar  
    59   33   60 1   
    60   34   35 ar  
    61   34   61 1   
    62   35   36 ar  
    63   35   62 1   
    64   36   63 1   
    65   37   38 1   
    66   37   64 1   
    67   37   65 1   
    68   38   39 1   
    69   38   66 1   
    70   38   67 1   
    71   39   40 1   
    72   39   68 1   
    73   39   69 1   
    74   40   41 1   
    75   40   42 1   
@<TRIPOS>SUBSTRUCTURE
     1 24L         1 TEMP              0 ****  ****    0 ROOT
