@<TRIPOS>MOLECULE
24L
   71    75     1     0     0
SMALL
bcc


@<TRIPOS>ATOM
      1 C1         -0.8740   -1.8620   -1.2620 c3        1 24L     -0.196100
      2 C2          0.5660   -2.2410   -1.1170 c         1 24L      0.602300
      3 O3          0.9450   -3.0220   -0.2360 o         1 24L     -0.529100
      4 C4          1.5010   -1.6380   -2.0870 ce        1 24L     -0.376400
      5 C5          1.2210   -0.2770   -2.5880 c         1 24L      0.617300
      6 C6          1.8330    0.0170   -3.9540 c3        1 24L     -0.063500
      7 C7          3.2560   -0.5320   -3.9710 c2        1 24L      0.133900
      8 C8          3.6380   -1.6560   -3.3400 cf        1 24L     -0.257000
      9 C9          2.6430   -2.2910   -2.4820 cf        1 24L      0.258100
     10 O10         4.1420    0.3430   -4.6070 os        1 24L     -0.191200
     11 C11         3.4440    1.5540   -4.7610 ca        1 24L      0.199100
     12 C12         2.0860    1.4420   -4.3560 ca        1 24L     -0.209300
     13 C13         1.2680    2.5600   -4.4700 ca        1 24L      0.244100
     14 C14         1.8180    3.7810   -4.9220 ca        1 24L     -0.320000
     15 C15         3.1630    3.8550   -5.2870 ca        1 24L      0.219100
     16 C16         4.0200    2.7210   -5.2320 ca        1 24L     -0.205600
     17 C17         0.9660   -0.6690   -5.0080 c3        1 24L     -0.080100
     18 O18         0.5240    0.5430   -1.9900 o         1 24L     -0.507100
     19 O19         2.8730   -3.5550   -2.0270 oh        1 24L     -0.450100
     20 O20        -0.0610    2.4310   -4.1730 oh        1 24L     -0.468100
     21 O21         3.7650    5.0130   -5.7210 os        1 24L     -0.327900
     22 C22         2.9090    6.1210   -5.9940 c3        1 24L      0.105700
     23 C23         5.4340    2.7690   -5.6960 c         1 24L      0.691700
     24 O24         5.8590    2.0010   -6.5800 o         1 24L     -0.591100
     25 N25         6.2660    3.6640   -5.0410 n         1 24L     -0.542900
     26 C26         7.6020    3.9170   -5.5210 c3        1 24L      0.122300
     27 C27         7.9270    5.3800   -5.6610 ca        1 24L     -0.097300
     28 C28         8.3250    6.1510   -4.5270 ca        1 24L     -0.024000
     29 C29         8.6710    7.5150   -4.7190 ca        1 24L     -0.039000
     30 C30         8.5880    8.0870   -6.0160 ca        1 24L     -0.115000
     31 C31         8.1750    7.3350   -7.0920 ca        1 24L     -0.086300
     32 C32         7.8510    5.9650   -6.9040 ca        1 24L     -0.103000
     33 C33         9.0880    8.2950   -3.6050 ca        1 24L     -0.120000
     34 C34         9.1470    7.7440   -2.3490 ca        1 24L     -0.125000
     35 C35         8.7910    6.3880   -2.1520 ca        1 24L     -0.123000
     36 C36         8.3900    5.6120   -3.2120 ca        1 24L     -0.123000
     37 C37         8.0500    7.9260   -8.4540 c3        1 24L     -0.037100
     38 C38         6.6050    8.2360   -8.8060 c3        1 24L     -0.075400
     39 C39         6.1090    9.4580   -8.0600 c3        1 24L     -0.131400
     40 C40         4.6200    9.5590   -8.1240 c         1 24L      0.645100
     41 O41         3.7610    8.7400   -7.7780 o         1 24L     -0.572000
     42 O42         4.1630   10.7430   -8.6200 oh        1 24L     -0.605100
     43 H1         -1.1700   -1.8620   -2.3380 hc        1 24L      0.067033
     44 H1A        -1.5220   -2.5750   -0.6980 hc        1 24L      0.067033
     45 H1B        -1.0240   -0.8310   -0.8530 hc        1 24L      0.067033
     46 H14         1.1690    4.6660   -4.9820 ha        1 24L      0.151000
     47 H17        -0.0260   -0.1570   -5.0460 hc        1 24L      0.059033
     48 H17A        0.8180   -1.7450   -4.7490 hc        1 24L      0.059033
     49 H17B        1.4510   -0.5980   -6.0100 hc        1 24L      0.059033
     50 HO19        3.7460   -3.8440   -2.3410 ho        1 24L      0.430000
     51 HO20       -0.4520    3.3180   -4.1410 ho        1 24L      0.428000
     52 H22         2.1090    5.8350   -6.7180 h1        1 24L      0.060367
     53 H22A        3.6010    6.8780   -6.4500 h1        1 24L      0.060367
     54 H22B        2.4660    6.5080   -5.0440 h1        1 24L      0.060367
     55 HN25        3.1920   10.7470   -8.6250 ho        1 24L      0.444000
     56 H26         8.3290    3.4420   -4.7980 h1        1 24L      0.068700
     57 H26A        7.7440    3.4020   -6.5180 h1        1 24L      0.068700
     58 H30         8.8600    9.1470   -6.1420 ha        1 24L      0.131000
     59 H32         7.5340    5.3750   -7.7790 ha        1 24L      0.142000
     60 H33         9.3600    9.3480   -3.7720 ha        1 24L      0.132000
     61 H34         9.4700    8.3440   -1.4860 ha        1 24L      0.134000
     62 H35         8.8400    5.9650   -1.1370 ha        1 24L      0.135000
     63 H36         8.1110    4.5600   -3.0470 ha        1 24L      0.142000
     64 H37         8.6640    8.8630   -8.5260 hc        1 24L      0.055200
     65 H37A        8.4560    7.2000   -9.2090 hc        1 24L      0.055200
     66 H38         5.9580    7.3520   -8.5570 hc        1 24L      0.060200
     67 H38A        6.5260    8.4150   -9.9110 hc        1 24L      0.060200
     68 H39         6.3970    9.3840   -6.9750 hc        1 24L      0.084700
     69 H39A        6.5710   10.3890   -8.4820 hc        1 24L      0.084700
     70 H8          4.6570   -2.0600   -3.3850 ha        1 24L      0.169000
     71 H252        5.8360    4.3910   -4.5150 hn        1 24L      0.315500
@<TRIPOS>BOND
     1    1    2 1   
     2    1   43 1   
     3    1   44 1   
     4    1   45 1   
     5    2    3 2   
     6    2    4 1   
     7    4    5 1   
     8    4    9 2   
     9    5    6 1   
    10    5   18 2   
    11    6    7 1   
    12    6   12 1   
    13    6   17 1   
    14    7    8 2   
    15    7   10 1   
    16    8    9 1   
    17    8   70 1   
    18    9   19 1   
    19   10   11 1   
    20   11   12 ar  
    21   11   16 ar  
    22   12   13 ar  
    23   13   14 ar  
    24   13   20 1   
    25   14   15 ar  
    26   14   46 1   
    27   15   16 ar  
    28   15   21 1   
    29   16   23 1   
    30   17   47 1   
    31   17   48 1   
    32   17   49 1   
    33   19   50 1   
    34   20   51 1   
    35   21   22 1   
    36   22   52 1   
    37   22   53 1   
    38   22   54 1   
    39   23   24 2   
    40   23   25 1   
    41   25   26 1   
    42   25   71 1   
    43   26   27 1   
    44   26   56 1   
    45   26   57 1   
    46   27   28 ar  
    47   27   32 ar  
    48   28   29 ar  
    49   28   36 ar  
    50   29   30 ar  
    51   29   33 ar  
    52   30   31 ar  
    53   30   58 1   
    54   31   32 ar  
    55   31   37 1   
    56   32   59 1   
    57   33   34 ar  
    58   33   60 1   
    59   34   35 ar  
    60   34   61 1   
    61   35   36 ar  
    62   35   62 1   
    63   36   63 1   
    64   37   38 1   
    65   37   64 1   
    66   37   65 1   
    67   38   39 1   
    68   38   66 1   
    69   38   67 1   
    70   39   40 1   
    71   39   68 1   
    72   39   69 1   
    73   40   41 2   
    74   40   42 1   
    75   42   55 1   
@<TRIPOS>SUBSTRUCTURE
     1 24L         1 TEMP              0 ****  ****    0 ROOT
