@<TRIPOS>MOLECULE
24M
   38    38     1     0     0
SMALL
bcc


@<TRIPOS>ATOM
      1 N1         -1.9200    0.1610   -0.6670 n3        1 24M     -0.899800
      2 C3         -0.5000    0.2540   -0.6600 c3        1 24M      0.165500
      3 C5         -0.0070    0.3160    0.7660 c3        1 24M      0.092100
      4 O7         -0.9980    0.8960    1.5810 oh        1 24M     -0.632800
      5 C9          0.2930   -1.0840    1.2580 c3        1 24M     -0.085700
      6 C11         1.3140   -1.0530    2.1870 c3        1 24M     -0.181700
      7 C13         0.8970   -2.2910    3.2500 c3        1 24M     -0.072400
      8 C16        -0.4570   -2.2740    3.3680 c3        1 24M     -0.075400
      9 C19        -0.9900   -1.6900    2.0310 c3        1 24M     -0.080400
     10 C22         2.7160   -1.2020    1.5770 c         1 24M      0.914600
     11 O23         2.9820   -2.1910    0.8440 o         1 24M     -0.842300
     12 C36        -0.0730    1.5030   -1.3960 c3        1 24M     -0.068400
     13 C39        -0.4470    1.3810   -2.8570 c3        1 24M     -0.066700
     14 C41        -1.1840    2.6270   -3.2940 c3        1 24M     -0.087600
     15 C45         0.8070    1.2190   -3.6870 c3        1 24M     -0.087600
     16 HN1        -2.1800   -0.4980   -1.2480 hn        1 24M      0.341300
     17 H3         -0.1210   -0.5310   -1.1020 h1        1 24M      0.063700
     18 H5          0.8060    0.8570    0.8070 h1        1 24M      0.103700
     19 HO7        -0.6760    1.6350    1.9580 ho        1 24M      0.406000
     20 H9          0.5380   -1.6600    0.5070 hc        1 24M      0.067700
     21 H11         1.3810   -0.1860    2.6360 hc        1 24M      0.024700
     22 H131        1.3110   -2.1340    4.1240 hc        1 24M      0.048700
     23 H132        1.1900   -3.1540    2.8910 hc        1 24M      0.048700
     24 H161       -0.7240   -1.7010    4.1170 hc        1 24M      0.017200
     25 H162       -0.7970   -3.1830    3.4990 hc        1 24M      0.017200
     26 H191       -1.4010   -2.3980    1.4960 hc        1 24M      0.025700
     27 H192       -1.6400   -0.9820    2.2090 hc        1 24M      0.025700
     28 H361       -0.5230    2.2800   -1.0080 hc        1 24M      0.049200
     29 H362        0.8960    1.6130   -1.3160 hc        1 24M      0.049200
     30 H39        -1.0220    0.6020   -2.9810 hc        1 24M      0.059700
     31 H411       -0.5760    3.3950   -3.2590 hc        1 24M      0.027033
     32 H412       -1.9440    2.7850   -2.6960 hc        1 24M      0.027033
     33 H413       -1.5090    2.5100   -4.2110 hc        1 24M      0.027033
     34 H451        1.4500    1.9200   -3.4490 hc        1 24M      0.027033
     35 H452        1.2040    0.3400   -3.5120 hc        1 24M      0.027033
     36 H453        0.5820    1.2920   -4.6380 hc        1 24M      0.027033
     37 H2         -2.2770    0.9620   -0.9340 hn        1 24M      0.341300
     38 OXT         3.5990   -0.3350    1.8080 o         1 24M     -0.842300
@<TRIPOS>BOND
     1    1    2 1   
     2    1   16 1   
     3    1   37 1   
     4    2    3 1   
     5    2   12 1   
     6    2   17 1   
     7    3    4 1   
     8    3    5 1   
     9    3   18 1   
    10    4   19 1   
    11    5    6 1   
    12    5    9 1   
    13    5   20 1   
    14    6    7 1   
    15    6   10 1   
    16    6   21 1   
    17    7    8 1   
    18    7   22 1   
    19    7   23 1   
    20    8    9 1   
    21    8   24 1   
    22    8   25 1   
    23    9   26 1   
    24    9   27 1   
    25   10   11 1   
    26   10   38 1   
    27   12   13 1   
    28   12   28 1   
    29   12   29 1   
    30   13   14 1   
    31   13   15 1   
    32   13   30 1   
    33   14   31 1   
    34   14   32 1   
    35   14   33 1   
    36   15   34 1   
    37   15   35 1   
    38   15   36 1   
@<TRIPOS>SUBSTRUCTURE
     1 24M         1 TEMP              0 ****  ****    0 ROOT
