@<TRIPOS>MOLECULE
24M
   38    38     1     0     0
SMALL
bcc


@<TRIPOS>ATOM
      1 N1         -2.0240    1.5350    1.0740 n3        1 24M     -0.899800
      2 C3         -1.6700    0.3120    0.3720 c3        1 24M      0.165500
      3 C5         -0.4050    0.4150   -0.5240 c3        1 24M      0.092100
      4 O7         -0.6030    1.5350   -1.3850 oh        1 24M     -0.632800
      5 C9          0.8900    0.5150    0.2790 c3        1 24M     -0.085700
      6 C11         2.1000    0.1440   -0.5910 c3        1 24M     -0.181700
      7 C13         3.2800    0.8990    0.0020 c3        1 24M     -0.072400
      8 C16         2.7120    2.0850    0.7730 c3        1 24M     -0.075400
      9 C19         1.2020    1.8910    0.8640 c3        1 24M     -0.080400
     10 C22         2.2830   -1.3890   -0.6420 c         1 24M      0.914600
     11 O23         1.4600   -2.0320   -1.3570 o         1 24M     -0.842300
     12 C36        -2.8170   -0.2170   -0.5020 c3        1 24M     -0.068400
     13 C39        -4.0670   -0.5870    0.2810 c3        1 24M     -0.066700
     14 C41        -5.2350   -0.7580   -0.6710 c3        1 24M     -0.087600
     15 C45        -3.8620   -1.8580    1.0800 c3        1 24M     -0.087600
     16 HN1        -1.2240    1.8600    1.5840 hn        1 24M      0.341300
     17 H3         -1.4390   -0.4650    1.1610 h1        1 24M      0.063700
     18 H5         -0.3230   -0.5260   -1.1520 h1        1 24M      0.103700
     19 HO7         0.2000    1.6090   -1.9150 ho        1 24M      0.406000
     20 H9          0.8250   -0.2320    1.1170 hc        1 24M      0.067700
     21 H11         1.9270    0.4900   -1.6450 hc        1 24M      0.024700
     22 H131        3.8490    0.2120    0.6810 hc        1 24M      0.048700
     23 H132        3.9800    1.2400   -0.7990 hc        1 24M      0.048700
     24 H161        3.1640    2.1420    1.7940 hc        1 24M      0.017200
     25 H162        2.9490    3.0470    0.2530 hc        1 24M      0.017200
     26 H191        0.6680    2.6890    0.2870 hc        1 24M      0.025700
     27 H192        0.8660    1.9580    1.9290 hc        1 24M      0.025700
     28 H361       -3.0710    0.5580   -1.2730 hc        1 24M      0.049200
     29 H362       -2.4450   -1.1240   -1.0480 hc        1 24M      0.049200
     30 H39        -4.3150    0.2460    0.9970 hc        1 24M      0.059700
     31 H411       -5.0160   -1.5570   -1.4190 hc        1 24M      0.027033
     32 H412       -6.1570   -1.0420   -0.1080 hc        1 24M      0.027033
     33 H413       -5.4340    0.1940   -1.2190 hc        1 24M      0.027033
     34 H451       -3.0440   -1.7200    1.8280 hc        1 24M      0.027033
     35 H452       -4.7980   -2.1280    1.6250 hc        1 24M      0.027033
     36 H453       -3.5860   -2.7050    0.4080 hc        1 24M      0.027033
     37 H2         -2.2670    2.2420    0.4040 hn        1 24M      0.341300
     38 OXT         3.2180   -1.9230    0.0170 o         1 24M     -0.842300
@<TRIPOS>BOND
     1    1    2 1   
     2    1   16 1   
     3    1   37 1   
     4    2    3 1   
     5    2   12 1   
     6    2   17 1   
     7    3    4 1   
     8    3    5 1   
     9    3   18 1   
    10    4   19 1   
    11    5    6 1   
    12    5    9 1   
    13    5   20 1   
    14    6    7 1   
    15    6   10 1   
    16    6   21 1   
    17    7    8 1   
    18    7   22 1   
    19    7   23 1   
    20    8    9 1   
    21    8   24 1   
    22    8   25 1   
    23    9   26 1   
    24    9   27 1   
    25   10   11 1   
    26   10   38 1   
    27   12   13 1   
    28   12   28 1   
    29   12   29 1   
    30   13   14 1   
    31   13   15 1   
    32   13   30 1   
    33   14   31 1   
    34   14   32 1   
    35   14   33 1   
    36   15   34 1   
    37   15   35 1   
    38   15   36 1   
@<TRIPOS>SUBSTRUCTURE
     1 24M         1 TEMP              0 ****  ****    0 ROOT
