@<TRIPOS>MOLECULE
24O
   37    37     1     0     0
SMALL
bcc


@<TRIPOS>ATOM
      1 N          -2.7300   -1.1030    1.8440 n3        1 24O     -0.891800
      2 C41        -1.8710   -0.5390    0.8130 c3        1 24O      0.128500
      3 C43        -0.3960   -0.2820    1.2510 c3        1 24O      0.103100
      4 O45        -0.0380   -1.1550    2.3160 oh        1 24O     -0.617800
      5 C47         0.5540   -0.3560    0.0590 c3        1 24O     -0.078700
      6 C49         1.9780    0.0570    0.4640 c3        1 24O     -0.192700
      7 C51         2.9360   -0.8750   -0.2640 c3        1 24O     -0.172400
      8 C54         2.1170   -2.0040   -0.8150 c         1 24O      0.575100
      9 C55         0.6470   -1.7280   -0.6050 c3        1 24O     -0.196400
     10 O58         2.5540   -3.0240   -1.3580 o         1 24O     -0.582100
     11 C59         2.2180    1.5530    0.1380 c         1 24O      0.917600
     12 O60         1.3060    2.3630    0.4690 o         1 24O     -0.837300
     13 C92        -2.4280    0.7770    0.2500 c3        1 24O     -0.075400
     14 C95        -3.6480    0.5700   -0.6350 c3        1 24O     -0.067700
     15 C97        -4.4380    1.8590   -0.7380 c3        1 24O     -0.088100
     16 C98        -3.2470    0.1000   -2.0190 c3        1 24O     -0.088100
     17 H39        -2.2370   -1.8490    2.3030 hn        1 24O      0.338300
     18 H41        -1.8510   -1.3060   -0.0190 h1        1 24O      0.049700
     19 H43        -0.3050    0.7550    1.6970 h1        1 24O      0.113700
     20 H45         0.4000   -1.9240    1.9370 ho        1 24O      0.394000
     21 H47         0.1830    0.3900   -0.6990 hc        1 24O      0.085700
     22 H49         2.1040   -0.0560    1.5720 hc        1 24O      0.052700
     23 H511        3.4470   -0.3180   -1.0970 hc        1 24O      0.086200
     24 H512        3.7340   -1.2640    0.4150 hc        1 24O      0.086200
     25 H551        0.1960   -2.5400    0.0180 hc        1 24O      0.056200
     26 H552        0.1150   -1.7340   -1.5900 hc        1 24O      0.056200
     27 H921       -2.6930    1.4640    1.0970 hc        1 24O      0.059200
     28 H922       -1.6210    1.2900   -0.3390 hc        1 24O      0.059200
     29 H95        -4.3090   -0.2150   -0.1700 hc        1 24O      0.056700
     30 H971       -3.7960    2.6790   -1.1410 hc        1 24O      0.028033
     31 H972       -5.3130    1.7260   -1.4190 hc        1 24O      0.028033
     32 H973       -4.8150    2.1670    0.2670 hc        1 24O      0.028033
     33 H981       -2.6640   -0.8510   -1.9570 hc        1 24O      0.028033
     34 H982       -4.1540   -0.0820   -2.6440 hc        1 24O      0.028033
     35 H983       -2.6150    0.8680   -2.5260 hc        1 24O      0.028033
     36 H2         -2.9290   -0.4040    2.5360 hn        1 24O      0.338300
     37 OXT         3.2970    1.8800   -0.4260 o         1 24O     -0.837300
@<TRIPOS>BOND
     1    1    2 1   
     2    1   17 1   
     3    1   36 1   
     4    2    3 1   
     5    2   13 1   
     6    2   18 1   
     7    3    4 1   
     8    3    5 1   
     9    3   19 1   
    10    4   20 1   
    11    5    6 1   
    12    5    9 1   
    13    5   21 1   
    14    6    7 1   
    15    6   11 1   
    16    6   22 1   
    17    7    8 1   
    18    7   23 1   
    19    7   24 1   
    20    8    9 1   
    21    8   10 2   
    22    9   25 1   
    23    9   26 1   
    24   11   12 1   
    25   11   37 1   
    26   13   14 1   
    27   13   27 1   
    28   13   28 1   
    29   14   15 1   
    30   14   16 1   
    31   14   29 1   
    32   15   30 1   
    33   15   31 1   
    34   15   32 1   
    35   16   33 1   
    36   16   34 1   
    37   16   35 1   
@<TRIPOS>SUBSTRUCTURE
     1 24O         1 TEMP              0 ****  ****    0 ROOT
