@<TRIPOS>MOLECULE
24O
   37    37     1     0     0
SMALL
bcc


@<TRIPOS>ATOM
      1 N          -1.9620    0.1080   -0.7080 n3        1 24O     -0.898800
      2 C41        -0.5490    0.1650   -0.6630 c3        1 24O      0.167500
      3 C43        -0.0930    0.2030    0.7720 c3        1 24O      0.092100
      4 O45        -0.8610    1.1110    1.4740 oh        1 24O     -0.629800
      5 C47        -0.2520   -1.2170    1.4090 c3        1 24O     -0.085700
      6 C49         1.1890   -1.6650    2.1470 c3        1 24O     -0.189700
      7 C51         1.1840   -1.0010    3.3330 c3        1 24O     -0.177400
      8 C54        -0.3660   -0.8340    3.6350 c         1 24O      0.577100
      9 C55        -1.1710   -1.1890    2.2950 c3        1 24O     -0.195400
     10 O58        -0.8580   -0.5720    4.7140 o         1 24O     -0.582100
     11 C59         1.3570   -3.2100    2.2990 c         1 24O      0.917600
     12 O60         0.8260   -3.8110    3.2770 o         1 24O     -0.834800
     13 C92        -0.0660    1.4250   -1.3870 c3        1 24O     -0.072400
     14 C95         0.0140    1.1490   -2.8990 c3        1 24O     -0.061700
     15 C97         1.4550    1.2630   -3.3590 c3        1 24O     -0.087100
     16 C98        -0.8430    2.1680   -3.6520 c3        1 24O     -0.087100
     17 H39        -2.2200   -0.5390   -1.2950 hn        1 24O      0.342300
     18 H41        -0.1770   -0.6240   -1.1020 h1        1 24O      0.063700
     19 H43         0.8460    0.4740    0.8080 h1        1 24O      0.101700
     20 H45        -0.4220    1.8870    1.5360 ho        1 24O      0.406000
     21 H47        -0.4820   -1.8630    0.7170 hc        1 24O      0.073700
     22 H49         1.9620   -1.4350    1.6040 hc        1 24O      0.030700
     23 H511        1.6690   -1.3220    4.1210 hc        1 24O      0.086700
     24 H512        1.6320   -0.1520    3.1730 hc        1 24O      0.086700
     25 H551       -1.9370   -0.6130    2.1180 hc        1 24O      0.062700
     26 H552       -1.6000   -2.0670    2.3600 hc        1 24O      0.062700
     27 H921       -0.6960    2.1610   -1.2210 hc        1 24O      0.051200
     28 H922        0.8160    1.6720   -1.0560 hc        1 24O      0.051200
     29 H95        -0.3170    0.2440   -3.0830 hc        1 24O      0.057700
     30 H971        1.9900    0.5620   -2.9340 hc        1 24O      0.027033
     31 H972        1.8100    2.1420   -3.1090 hc        1 24O      0.027033
     32 H973        1.4970    1.1590   -4.3370 hc        1 24O      0.027033
     33 H981       -0.6810    2.0830   -4.6190 hc        1 24O      0.027033
     34 H982       -1.7900    2.0020   -3.4630 hc        1 24O      0.027033
     35 H983       -0.6060    3.0730   -3.3600 hc        1 24O      0.027033
     36 H2         -2.2920    0.9190   -0.9820 hn        1 24O      0.342300
     37 OXT         1.9940   -3.8570    1.4380 o         1 24O     -0.834800
@<TRIPOS>BOND
     1    1    2 1   
     2    1   17 1   
     3    1   36 1   
     4    2    3 1   
     5    2   13 1   
     6    2   18 1   
     7    3    4 1   
     8    3    5 1   
     9    3   19 1   
    10    4   20 1   
    11    5    6 1   
    12    5    9 1   
    13    5   21 1   
    14    6    7 1   
    15    6   11 1   
    16    6   22 1   
    17    7    8 1   
    18    7   23 1   
    19    7   24 1   
    20    8    9 1   
    21    8   10 2   
    22    9   25 1   
    23    9   26 1   
    24   11   12 1   
    25   11   37 1   
    26   13   14 1   
    27   13   27 1   
    28   13   28 1   
    29   14   15 1   
    30   14   16 1   
    31   14   29 1   
    32   15   30 1   
    33   15   31 1   
    34   15   32 1   
    35   16   33 1   
    36   16   34 1   
    37   16   35 1   
@<TRIPOS>SUBSTRUCTURE
     1 24O         1 TEMP              0 ****  ****    0 ROOT
