@<TRIPOS>MOLECULE
24P
   41    43     1     0     0
SMALL
bcc


@<TRIPOS>ATOM
      1 CAB         0.0920    0.8830    0.2580 ca        1 24P     -0.125500
      2 CAA         1.4820    0.9560    0.3440 ca        1 24P     -0.128500
      3 CAF         2.1660    0.2060    1.2990 ca        1 24P     -0.133000
      4 CAE         1.4560   -0.6200    2.1710 ca        1 24P     -0.128500
      5 CAD         0.0670   -0.6940    2.0880 ca        1 24P     -0.125500
      6 CAC        -0.6260    0.0570    1.1310 ca        1 24P     -0.075300
      7 CAG        -2.1150    0.0080    1.0590 c3        1 24P      0.012200
      8 CAH        -2.6580   -1.3790    1.0260 ca        1 24P     -0.114300
      9 CAM        -3.1120   -1.9920    2.2020 ca        1 24P     -0.091500
     10 CAL        -3.6340   -3.2780    2.1790 ca        1 24P     -0.180500
     11 CAI        -2.7380   -2.0780   -0.1820 ca        1 24P     -0.091500
     12 CAJ        -3.2600   -3.3700   -0.2280 ca        1 24P     -0.180500
     13 CAK        -3.7080   -3.9700    0.9550 ca        1 24P      0.131100
     14 OAN        -4.2620   -5.2310    1.0360 os        1 24P     -0.331900
     15 CAO        -4.2210   -6.0100   -0.1670 c3        1 24P      0.136400
     16 CAP        -4.7710   -7.3930    0.2220 c3        1 24P      0.164500
     17 CAQ        -5.2680   -8.1360   -1.0380 c3        1 24P     -0.088400
     18 CAR        -4.7340   -9.5570   -0.9210 c3        1 24P     -0.097400
     19 CAS        -3.7230   -9.5300    0.2360 c3        1 24P      0.154800
     20 NAT        -3.7560   -8.2220    0.8780 n7        1 24P     -0.810200
     21 HAB        -0.4410    1.4770   -0.4990 ha        1 24P      0.132500
     22 HAA         2.0390    1.6070   -0.3460 ha        1 24P      0.130000
     23 HAF         3.2620    0.2640    1.3650 ha        1 24P      0.130000
     24 HAE         1.9920   -1.2150    2.9250 ha        1 24P      0.130000
     25 HAD        -0.4960   -1.3500    2.7700 ha        1 24P      0.132500
     26 HAG        -2.4690    0.5620    0.1470 hc        1 24P      0.054200
     27 HAGA       -2.5280    0.5520    1.9540 hc        1 24P      0.054200
     28 HAM        -3.0530   -1.4480    3.1580 ha        1 24P      0.132500
     29 HAL        -3.9910   -3.7650    3.0970 ha        1 24P      0.141500
     30 HAI        -2.3830   -1.6060   -1.1100 ha        1 24P      0.132500
     31 HAJ        -3.3120   -3.9000   -1.1880 ha        1 24P      0.141500
     32 HAO        -3.1730   -6.0660   -0.5560 h1        1 24P      0.047200
     33 HAOA       -4.8940   -5.5360   -0.9300 h1        1 24P      0.047200
     34 HAP        -5.6470   -7.2130    0.9140 h1        1 24P      0.048700
     35 HAQ        -6.3830   -8.1180   -1.0820 hc        1 24P      0.050700
     36 HAQA       -4.8800   -7.6460   -1.9650 hc        1 24P      0.050700
     37 HAR        -5.5610  -10.2770   -0.7010 hc        1 24P      0.048700
     38 HARA       -4.2410   -9.8840   -1.8670 hc        1 24P      0.048700
     39 HAS        -2.6790   -9.6810   -0.1570 h1        1 24P      0.041700
     40 HASA       -3.9350  -10.3620    0.9620 h1        1 24P      0.041700
     41 HNAT       -3.9410   -8.2940    1.8590 hn        1 24P      0.366800
@<TRIPOS>BOND
     1    1    2 ar  
     2    1    6 ar  
     3    1   21 1   
     4    2    3 ar  
     5    2   22 1   
     6    3    4 ar  
     7    3   23 1   
     8    4    5 ar  
     9    4   24 1   
    10    5    6 ar  
    11    5   25 1   
    12    6    7 1   
    13    7    8 1   
    14    7   26 1   
    15    7   27 1   
    16    8    9 ar  
    17    8   11 ar  
    18    9   10 ar  
    19    9   28 1   
    20   10   13 ar  
    21   10   29 1   
    22   11   12 ar  
    23   11   30 1   
    24   12   13 ar  
    25   12   31 1   
    26   13   14 1   
    27   14   15 1   
    28   15   16 1   
    29   15   32 1   
    30   15   33 1   
    31   16   17 1   
    32   16   20 1   
    33   16   34 1   
    34   17   18 1   
    35   17   35 1   
    36   17   36 1   
    37   18   19 1   
    38   18   37 1   
    39   18   38 1   
    40   19   20 1   
    41   19   39 1   
    42   19   40 1   
    43   20   41 1   
@<TRIPOS>SUBSTRUCTURE
     1 24P         1 TEMP              0 ****  ****    0 ROOT
