@<TRIPOS>MOLECULE
24P
   41    43     1     0     0
SMALL
bcc


@<TRIPOS>ATOM
      1 CAB         0.1000    0.8730    0.2620 ca        1 24P     -0.125500
      2 CAA         1.4900    0.9440    0.3540 ca        1 24P     -0.128000
      3 CAF         2.1670    0.2010    1.3210 ca        1 24P     -0.133000
      4 CAE         1.4500   -0.6160    2.1950 ca        1 24P     -0.128000
      5 CAD         0.0620   -0.6880    2.1050 ca        1 24P     -0.125500
      6 CAC        -0.6240    0.0560    1.1370 ca        1 24P     -0.075300
      7 CAG        -2.1130    0.0080    1.0580 c3        1 24P      0.012200
      8 CAH        -2.6570   -1.3790    1.0230 ca        1 24P     -0.114300
      9 CAM        -3.1160   -1.9900    2.1980 ca        1 24P     -0.091500
     10 CAL        -3.6390   -3.2760    2.1740 ca        1 24P     -0.180500
     11 CAI        -2.7320   -2.0780   -0.1840 ca        1 24P     -0.091500
     12 CAJ        -3.2550   -3.3700   -0.2310 ca        1 24P     -0.180500
     13 CAK        -3.7080   -3.9690    0.9500 ca        1 24P      0.131100
     14 OAN        -4.2630   -5.2300    1.0300 os        1 24P     -0.331900
     15 CAO        -4.2200   -6.0090   -0.1730 c3        1 24P      0.136400
     16 CAP        -4.7730   -7.3900    0.2140 c3        1 24P      0.164500
     17 CAQ        -5.2670   -8.1330   -1.0480 c3        1 24P     -0.088400
     18 CAR        -4.7360   -9.5550   -0.9290 c3        1 24P     -0.097400
     19 CAS        -3.7270   -9.5300    0.2310 c3        1 24P      0.154800
     20 NAT        -3.7610   -8.2220    0.8740 n3        1 24P     -0.810200
     21 HAB        -0.4270    1.4610   -0.5030 ha        1 24P      0.132500
     22 HAA         2.0510    1.5880   -0.3380 ha        1 24P      0.130000
     23 HAF         3.2630    0.2580    1.3920 ha        1 24P      0.130000
     24 HAE         1.9810   -1.2050    2.9570 ha        1 24P      0.130000
     25 HAD        -0.5060   -1.3380    2.7890 ha        1 24P      0.132500
     26 HAG        -2.5310    0.5530    1.9500 hc        1 24P      0.053700
     27 HAGA       -2.4610    0.5620    0.1430 hc        1 24P      0.053700
     28 HAM        -3.0610   -1.4460    3.1530 ha        1 24P      0.132500
     29 HAL        -4.0000   -3.7630    3.0910 ha        1 24P      0.141500
     30 HAI        -2.3730   -1.6070   -1.1110 ha        1 24P      0.132500
     31 HAJ        -3.3030   -3.9010   -1.1920 ha        1 24P      0.141500
     32 HAO        -3.1700   -6.0670   -0.5580 h1        1 24P      0.047200
     33 HAOA       -4.8890   -5.5340   -0.9390 h1        1 24P      0.047200
     34 HAP        -5.6510   -7.2090    0.9030 h1        1 24P      0.048700
     35 HAQ        -4.8760   -7.6440   -1.9740 hc        1 24P      0.050700
     36 HAQA       -6.3820   -8.1140   -1.0940 hc        1 24P      0.050700
     37 HAR        -5.5640  -10.2740   -0.7110 hc        1 24P      0.048700
     38 HARA       -4.2400   -9.8830   -1.8740 hc        1 24P      0.048700
     39 HAS        -2.6830   -9.6820   -0.1590 h1        1 24P      0.041700
     40 HASA       -3.9430  -10.3610    0.9560 h1        1 24P      0.041700
     41 HNAT       -3.9490   -8.2930    1.8530 hn        1 24P      0.366800
@<TRIPOS>BOND
     1    1    2 ar  
     2    1    6 ar  
     3    1   21 1   
     4    2    3 ar  
     5    2   22 1   
     6    3    4 ar  
     7    3   23 1   
     8    4    5 ar  
     9    4   24 1   
    10    5    6 ar  
    11    5   25 1   
    12    6    7 1   
    13    7    8 1   
    14    7   26 1   
    15    7   27 1   
    16    8    9 ar  
    17    8   11 ar  
    18    9   10 ar  
    19    9   28 1   
    20   10   13 ar  
    21   10   29 1   
    22   11   12 ar  
    23   11   30 1   
    24   12   13 ar  
    25   12   31 1   
    26   13   14 1   
    27   14   15 1   
    28   15   16 1   
    29   15   32 1   
    30   15   33 1   
    31   16   17 1   
    32   16   20 1   
    33   16   34 1   
    34   17   18 1   
    35   17   35 1   
    36   17   36 1   
    37   18   19 1   
    38   18   37 1   
    39   18   38 1   
    40   19   20 1   
    41   19   39 1   
    42   19   40 1   
    43   20   41 1   
@<TRIPOS>SUBSTRUCTURE
     1 24P         1 TEMP              0 ****  ****    0 ROOT
