@<TRIPOS>MOLECULE
24P
   41    43     1     0     0
SMALL
bcc


@<TRIPOS>ATOM
      1 CAB        -4.9210   -0.5050    1.2080 ca        1 24P     -0.125500
      2 CAA        -5.6660   -1.6160    0.8150 ca        1 24P     -0.128000
      3 CAF        -5.5510   -2.1150   -0.4820 ca        1 24P     -0.132000
      4 CAE        -4.6860   -1.4980   -1.3870 ca        1 24P     -0.128000
      5 CAD        -3.9420   -0.3880   -0.9970 ca        1 24P     -0.125500
      6 CAC        -4.0530    0.1180    0.3040 ca        1 24P     -0.076300
      7 CAG        -3.2810    1.3260    0.7150 c3        1 24P      0.011200
      8 CAH        -1.8180    1.2020    0.4590 ca        1 24P     -0.110300
      9 CAM        -1.2540    1.7420   -0.7060 ca        1 24P     -0.092000
     10 CAL         0.1100    1.6450   -0.9470 ca        1 24P     -0.179000
     11 CAI        -0.9900    0.5620    1.3850 ca        1 24P     -0.092000
     12 CAJ         0.3820    0.4530    1.1630 ca        1 24P     -0.179000
     13 CAK         0.9300    0.9950   -0.0050 ca        1 24P      0.124100
     14 OAN         2.2700    0.9540   -0.3410 os        1 24P     -0.327900
     15 CAO         3.1270    0.2920    0.5940 c3        1 24P      0.102400
     16 CAP         4.5530    0.3920    0.0220 c3        1 24P      0.163500
     17 CAQ         5.5350   -0.2610    1.0220 c3        1 24P     -0.090400
     18 CAR         6.1660   -1.4370    0.2870 c3        1 24P     -0.094400
     19 CAS         5.6420   -1.3680   -1.1560 c3        1 24P      0.149800
     20 NAT         4.7480   -0.2240   -1.2920 n3        1 24P     -0.801200
     21 HAB        -5.0170   -0.1170    2.2330 ha        1 24P      0.132000
     22 HAA        -6.3460   -2.1000    1.5320 ha        1 24P      0.130500
     23 HAF        -6.1390   -2.9910   -0.7900 ha        1 24P      0.130000
     24 HAE        -4.5920   -1.8900   -2.4100 ha        1 24P      0.130500
     25 HAD        -3.2530    0.0970   -1.7070 ha        1 24P      0.132000
     26 HAG        -3.6870    2.2130    0.1530 hc        1 24P      0.054700
     27 HAGA       -3.4470    1.5280    1.8090 hc        1 24P      0.054700
     28 HAM        -1.8990    2.2500   -1.4390 ha        1 24P      0.134000
     29 HAL         0.5610    2.0670   -1.8560 ha        1 24P      0.143500
     30 HAI        -1.4240    0.1360    2.3020 ha        1 24P      0.134000
     31 HAJ         1.0120   -0.0550    1.9060 ha        1 24P      0.143500
     32 HAO         3.0800    0.8140    1.5850 h1        1 24P      0.042700
     33 HAOA        2.8040   -0.7750    0.7100 h1        1 24P      0.042700
     34 HAP         4.7920    1.4870   -0.1060 h1        1 24P      0.079700
     35 HAQ         6.3120    0.4820    1.3250 hc        1 24P      0.049700
     36 HAQA        5.0080   -0.6000    1.9460 hc        1 24P      0.049700
     37 HAR         7.2800   -1.3670    0.3020 hc        1 24P      0.047700
     38 HARA        5.8780   -2.4070    0.7620 hc        1 24P      0.047700
     39 HAS         6.4930   -1.2100   -1.8740 h1        1 24P      0.040200
     40 HASA        5.1410   -2.3360   -1.4340 h1        1 24P      0.040200
     41 HNAT        3.8710   -0.4810   -1.7010 hn        1 24P      0.369800
@<TRIPOS>BOND
     1    1    2 ar  
     2    1    6 ar  
     3    1   21 1   
     4    2    3 ar  
     5    2   22 1   
     6    3    4 ar  
     7    3   23 1   
     8    4    5 ar  
     9    4   24 1   
    10    5    6 ar  
    11    5   25 1   
    12    6    7 1   
    13    7    8 1   
    14    7   26 1   
    15    7   27 1   
    16    8    9 ar  
    17    8   11 ar  
    18    9   10 ar  
    19    9   28 1   
    20   10   13 ar  
    21   10   29 1   
    22   11   12 ar  
    23   11   30 1   
    24   12   13 ar  
    25   12   31 1   
    26   13   14 1   
    27   14   15 1   
    28   15   16 1   
    29   15   32 1   
    30   15   33 1   
    31   16   17 1   
    32   16   20 1   
    33   16   34 1   
    34   17   18 1   
    35   17   35 1   
    36   17   36 1   
    37   18   19 1   
    38   18   37 1   
    39   18   38 1   
    40   19   20 1   
    41   19   39 1   
    42   19   40 1   
    43   20   41 1   
@<TRIPOS>SUBSTRUCTURE
     1 24P         1 TEMP              0 ****  ****    0 ROOT
