@<TRIPOS>MOLECULE
24P
   41    38     1     0     0
SMALL
bcc


@<TRIPOS>ATOM
      1 CAB         1.6620    4.3290   -0.4420 c1        1 24P     -0.121000
      2 CAA         0.9340    5.4100   -0.9410 c1        1 24P     -0.130000
      3 CAF         0.7250    5.5360   -2.3140 c1        1 24P     -0.130000
      4 CAE         1.2420    4.5820   -3.1900 c1        1 24P     -0.130000
      5 CAD         1.9710    3.4980   -2.6920 c1        1 24P     -0.130000
      6 CAC         2.1820    3.3710   -1.3190 c1        1 24P     -0.068000
      7 CAG         3.1230    2.2830   -0.7880 c3        1 24P     -0.081000
      8 CAH         2.3000    1.0360   -0.3920 c2        1 24P     -0.105000
      9 CAM         1.7990    0.9210    0.8960 c2        1 24P     -0.097000
     10 CAL         1.1600   -0.2570    1.2950 c1        1 24P     -0.159000
     11 CAI         2.1660   -0.0290   -1.2940 c1        1 24P     -0.087000
     12 CAJ         1.5300   -1.2000   -0.8950 c1        1 24P     -0.201000
     13 CAK         1.0260   -1.3140    0.4020 c1        1 24P      0.083000
     14 OAN         0.3110   -2.5090    0.7970 os        1 24P     -0.222000
     15 CAO        -1.0730   -2.4750    0.4980 c3        1 24P     -0.014000
     16 CAP        -1.7420   -3.8080    0.9720 c3        1 24P     -0.039000
     17 CAQ        -2.2920   -3.6440    2.4810 c3        1 24P     -0.174000
     18 CAR        -3.4160   -3.0530    2.3870 c3        1 24P     -0.183000
     19 CAS        -3.9430   -3.4250    0.9980 c3        1 24P     -0.090000
     20 NAT        -2.7420   -4.0680    0.2550 n3        1 24P     -0.281000
     21 HAB         1.8110    4.2410    0.5380 ha        1 24P      0.133000
     22 HAA         0.5680    6.0850   -0.3230 ha        1 24P      0.130250
     23 HAF         0.2060    6.3070   -2.6690 ha        1 24P      0.130250
     24 HAE         1.0920    4.6730   -4.1650 ha        1 24P      0.130250
     25 HAD         2.3370    2.8250   -3.3110 ha        1 24P      0.130250
     26 HAG         3.6010    2.6220   -0.0010 hc        1 24P      0.093500
     27 HAGA        3.7640    2.0440   -1.4780 hc        1 24P      0.093500
     28 HAM         1.8940    1.6730    1.5320 ha        1 24P      0.132000
     29 HAL         0.8110   -0.3360    2.1930 ha        1 24P      0.147000
     30 HAI         2.5170    0.0510   -2.1970 ha        1 24P      0.136000
     31 HAJ         1.4350   -1.9520   -1.5310 ha        1 24P      0.140000
     32 HAO        -1.4890   -1.7160    0.9620 h1        1 24P      0.088500
     33 HAOA       -1.1950   -2.3740   -0.4630 h1        1 24P      0.088500
     34 HAP        -1.0940   -4.5450    0.9270 h1        1 24P      0.098000
     35 HAQ        -2.4090   -4.5360    2.8990 hc        1 24P      0.095500
     36 HAQA       -1.6640   -3.0980    3.0140 hc        1 24P      0.095500
     37 HAR        -3.2980   -2.0880    2.4580 hc        1 24P      0.087000
     38 HARA       -4.0340   -3.3760    3.0870 hc        1 24P      0.087000
     39 HAS        -4.6710   -4.0630    1.0750 h1        1 24P      0.086000
     40 HASA       -4.2420   -2.6270    0.5270 h1        1 24P      0.086000
     41 HNAT       -2.8620   -4.9960    0.2110 hn        1 24P      0.152000
@<TRIPOS>BOND
     1    1    6 1   
     2    1   21 1   
     3    2    3 1   
     4    2   22 1   
     5    3   23 1   
     6    4    5 1   
     7    4   24 1   
     8    5   25 1   
     9    6    7 1   
    10    7    8 1   
    11    7   26 1   
    12    7   27 1   
    13    8    9 1   
    14    8   11 1   
    15    9   10 1   
    16    9   28 1   
    17   10   29 1   
    18   11   30 1   
    19   12   13 1   
    20   12   31 1   
    21   13   14 1   
    22   14   15 1   
    23   15   16 1   
    24   15   32 1   
    25   15   33 1   
    26   16   17 1   
    27   16   20 1   
    28   16   34 1   
    29   17   18 1   
    30   17   35 1   
    31   17   36 1   
    32   18   19 1   
    33   18   37 1   
    34   18   38 1   
    35   19   20 1   
    36   19   39 1   
    37   19   40 1   
    38   20   41 1   
@<TRIPOS>SUBSTRUCTURE
     1 24P         1 TEMP              0 ****  ****    0 ROOT
