@<TRIPOS>MOLECULE
24P
   41    43     1     0     0
SMALL
bcc


@<TRIPOS>ATOM
      1 CAB         0.0930    0.8850    0.3020 ca        1 24P     -0.125500
      2 CAA         1.4820    0.9580    0.3910 ca        1 24P     -0.128500
      3 CAF         2.1640    0.1990    1.3420 ca        1 24P     -0.133000
      4 CAE         1.4520   -0.6330    2.2050 ca        1 24P     -0.128500
      5 CAD         0.0640   -0.7070    2.1190 ca        1 24P     -0.125500
      6 CAC        -0.6270    0.0520    1.1670 ca        1 24P     -0.075300
      7 CAG        -2.1160    0.0040    1.0920 c3        1 24P      0.012200
      8 CAH        -2.6590   -1.3830    1.0460 ca        1 24P     -0.114300
      9 CAM        -3.1150   -2.0050    2.2170 ca        1 24P     -0.091500
     10 CAL        -3.6380   -3.2910    2.1820 ca        1 24P     -0.180500
     11 CAI        -2.7370   -2.0720   -0.1670 ca        1 24P     -0.091500
     12 CAJ        -3.2590   -3.3630   -0.2250 ca        1 24P     -0.180500
     13 CAK        -3.7090   -3.9730    0.9520 ca        1 24P      0.131100
     14 OAN        -4.2630   -5.2350    1.0220 os        1 24P     -0.331900
     15 CAO        -4.2200   -6.0040   -0.1870 c3        1 24P      0.136400
     16 CAP        -4.7710   -7.3890    0.1890 c3        1 24P      0.164500
     17 CAQ        -5.2650   -8.1230   -1.0770 c3        1 24P     -0.088400
     18 CAR        -4.7310   -9.5450   -0.9700 c3        1 24P     -0.097400
     19 CAS        -3.7210   -9.5270    0.1890 c3        1 24P      0.154800
     20 NAT        -3.7560   -8.2240    0.8420 n3        1 24P     -0.810200
     21 HAB        -0.4390    1.4860   -0.4510 ha        1 24P      0.132500
     22 HAA         2.0410    1.6150   -0.2920 ha        1 24P      0.130000
     23 HAF         3.2600    0.2570    1.4100 ha        1 24P      0.130000
     24 HAE         1.9870   -1.2350    2.9550 ha        1 24P      0.130000
     25 HAD        -0.5010   -1.3690    2.7940 ha        1 24P      0.132500
     26 HAG        -2.5310    0.5410    1.9900 hc        1 24P      0.054200
     27 HAGA       -2.4680    0.5660    0.1830 hc        1 24P      0.054200
     28 HAM        -3.0580   -1.4690    3.1760 ha        1 24P      0.132500
     29 HAL        -3.9960   -3.7860    3.0950 ha        1 24P      0.141500
     30 HAI        -2.3810   -1.5920   -1.0910 ha        1 24P      0.132500
     31 HAJ        -3.3090   -3.8850   -1.1900 ha        1 24P      0.141500
     32 HAO        -3.1710   -6.0570   -0.5740 h1        1 24P      0.047200
     33 HAOA       -4.8910   -5.5240   -0.9480 h1        1 24P      0.047200
     34 HAP        -5.6480   -7.2150    0.8810 h1        1 24P      0.048700
     35 HAQ        -6.3800   -8.1050   -1.1230 hc        1 24P      0.050700
     36 HAQA       -4.8750   -7.6260   -2.0000 hc        1 24P      0.050700
     37 HAR        -4.2360   -9.8640   -1.9190 hc        1 24P      0.048700
     38 HARA       -5.5570  -10.2670   -0.7580 hc        1 24P      0.048700
     39 HAS        -3.9350  -10.3640    0.9070 h1        1 24P      0.041700
     40 HASA       -2.6770   -9.6750   -0.2040 h1        1 24P      0.041700
     41 HNAT       -3.9430   -8.3040    1.8210 hn        1 24P      0.366800
@<TRIPOS>BOND
     1    1    2 ar  
     2    1    6 ar  
     3    1   21 1   
     4    2    3 ar  
     5    2   22 1   
     6    3    4 ar  
     7    3   23 1   
     8    4    5 ar  
     9    4   24 1   
    10    5    6 ar  
    11    5   25 1   
    12    6    7 1   
    13    7    8 1   
    14    7   26 1   
    15    7   27 1   
    16    8    9 ar  
    17    8   11 ar  
    18    9   10 ar  
    19    9   28 1   
    20   10   13 ar  
    21   10   29 1   
    22   11   12 ar  
    23   11   30 1   
    24   12   13 ar  
    25   12   31 1   
    26   13   14 1   
    27   14   15 1   
    28   15   16 1   
    29   15   32 1   
    30   15   33 1   
    31   16   17 1   
    32   16   20 1   
    33   16   34 1   
    34   17   18 1   
    35   17   35 1   
    36   17   36 1   
    37   18   19 1   
    38   18   37 1   
    39   18   38 1   
    40   19   20 1   
    41   19   39 1   
    42   19   40 1   
    43   20   41 1   
@<TRIPOS>SUBSTRUCTURE
     1 24P         1 TEMP              0 ****  ****    0 ROOT
