@<TRIPOS>MOLECULE
24Q
   68    71     1     0     0
SMALL
bcc


@<TRIPOS>ATOM
      1 C10         1.1160    4.5130    2.9600 ca        1 24Q     -0.097000
      2 C17        -2.7160    0.6980    5.9840 ca        1 24Q      0.189600
      3 C20        -3.7690    0.7100    8.1910 ca        1 24Q     -0.052000
      4 C21        -4.5750   -0.3870    7.8360 ca        1 24Q     -0.265600
      5 C22        -4.4250   -0.9480    6.5510 ca        1 24Q     -0.001000
      6 C24        -2.2140   -1.8330    4.0430 ca        1 24Q     -0.112300
      7 C26        -1.9240   -2.9430    4.8470 ca        1 24Q     -0.124500
      8 C28        -0.2080   -2.2640    2.7580 ca        1 24Q     -0.120000
      9 C01         4.4040   -0.1460   -0.5140 c3        1 24Q     -0.077400
     10 C02         2.9450    0.2530   -0.4490 c3        1 24Q     -0.073400
     11 C03         2.6300    0.9710    0.8570 c3        1 24Q     -0.062700
     12 C04         3.0140    0.1000    2.0440 c3        1 24Q     -0.073400
     13 C05         4.4750   -0.2960    1.9810 c3        1 24Q     -0.077400
     14 C06         4.8010   -0.9940    0.6770 c3        1 24Q     -0.078400
     15 C07         1.1520    1.3380    0.8960 c3        1 24Q     -0.135700
     16 C08         0.8390    2.3040    2.0050 ca        1 24Q      0.424600
     17 C09         1.3990    3.6080    1.9450 ca        1 24Q     -0.204300
     18 C11         0.2850    4.1190    4.0140 ca        1 24Q     -0.178300
     19 C12        -0.2390    2.8120    3.9940 ca        1 24Q      0.338800
     20 N13         0.0290    1.9160    3.0100 nb        1 24Q     -0.671000
     21 C14        -1.1320    2.4300    5.1450 c         1 24Q      0.589600
     22 O15        -1.2620    3.1940    6.1160 o         1 24Q     -0.568100
     23 N16        -1.8230    1.2110    5.0630 n         1 24Q     -0.445100
     24 C18        -3.5300   -0.4270    5.6280 ca        1 24Q     -0.142300
     25 C19        -2.8640    1.2380    7.2950 ca        1 24Q     -0.178000
     26 C23        -3.4630   -1.0500    4.2710 c3        1 24Q      0.001200
     27 C25        -0.7820   -3.7040    4.6090 ca        1 24Q     -0.120000
     28 C27        -1.3500   -1.4990    2.9950 ca        1 24Q     -0.124500
     29 C29         0.0790   -3.3660    3.5630 ca        1 24Q     -0.115000
     30 C30        -5.5440   -1.0030    8.7130 c         1 24Q      0.605700
     31 O31        -6.0580   -2.1190    8.6230 o         1 24Q     -0.507100
     32 N32        -6.0430   -0.2080    9.8940 n4        1 24Q     -0.620700
     33 S33        -7.9190   -0.2330   10.1860 s6        1 24Q      1.420900
     34 O34        -8.0140    0.7690   11.1300 o         1 24Q     -0.558300
     35 O35        -8.4410   -0.0730    8.9250 o         1 24Q     -0.558300
     36 C36        -8.0830   -1.7340   10.8190 c3        1 24Q     -0.469300
     37 H101        1.5390    5.5300    2.9410 ha        1 24Q      0.158000
     38 H201       -3.8110    1.1560    9.1980 ha        1 24Q      0.125000
     39 H221       -5.0460   -1.8200    6.2760 ha        1 24Q      0.164000
     40 H261       -2.6060   -3.2140    5.6670 ha        1 24Q      0.132000
     41 H281        0.4680   -1.9930    1.9320 ha        1 24Q      0.141000
     42 H011        5.0430    0.7760   -0.5450 hc        1 24Q      0.044200
     43 H012        4.5920   -0.7170   -1.4610 hc        1 24Q      0.044200
     44 H021        2.3000   -0.6610   -0.5350 hc        1 24Q      0.040450
     45 H022        2.7000    0.9220   -1.3150 hc        1 24Q      0.040450
     46 H031        3.2420    1.9160    0.8970 hc        1 24Q      0.051700
     47 H041        2.8130    0.6560    2.9960 hc        1 24Q      0.040450
     48 H042        2.3750   -0.8230    2.0520 hc        1 24Q      0.040450
     49 H051        5.1150    0.6190    2.0850 hc        1 24Q      0.044200
     50 H052        4.7150   -0.9740    2.8410 hc        1 24Q      0.044200
     51 H061        4.2600   -1.9760    0.6330 hc        1 24Q      0.043700
     52 H062        5.9000   -1.2130    0.6320 hc        1 24Q      0.043700
     53 H071        0.5410    0.4000    0.9910 hc        1 24Q      0.063700
     54 H072        0.8660    1.8300   -0.0740 hc        1 24Q      0.063700
     55 H091        2.0450    3.8840    1.0990 ha        1 24Q      0.160000
     56 H111        0.0410    4.8020    4.8410 ha        1 24Q      0.174000
     57 H161       -1.6470    0.6400    4.2550 hn        1 24Q      0.365500
     58 H191       -2.2400    2.0940    7.6160 ha        1 24Q      0.197000
     59 H231       -3.5730   -0.2510    3.4860 hc        1 24Q      0.069700
     60 H232       -4.3410   -1.7440    4.1360 hc        1 24Q      0.069700
     61 H251       -0.5610   -4.5750    5.2430 ha        1 24Q      0.141000
     62 H271       -1.5670   -0.6350    2.3470 ha        1 24Q      0.132000
     63 H291        0.9790   -3.9690    3.3740 ha        1 24Q      0.143000
     64 H1         -5.5600   -0.5560   10.7210 hn        1 24Q      0.459800
     65 H361       -7.6310   -1.8860   11.8370 h1        1 24Q      0.180700
     66 H362       -7.6770   -2.5780   10.1840 h1        1 24Q      0.180700
     67 H363       -9.1690   -2.0210   10.9610 h1        1 24Q      0.180700
     68 H322       -5.7590    0.7650    9.7730 hn        1 24Q      0.459800
@<TRIPOS>BOND
     1    1   17 ar  
     2    1   18 ar  
     3    1   37 1   
     4    2   23 1   
     5    2   24 ar  
     6    2   25 ar  
     7    3    4 ar  
     8    3   25 ar  
     9    3   38 1   
    10    4    5 ar  
    11    4   30 1   
    12    5   24 ar  
    13    5   39 1   
    14    6    7 ar  
    15    6   26 1   
    16    6   28 ar  
    17    7   27 ar  
    18    7   40 1   
    19    8   28 ar  
    20    8   29 ar  
    21    8   41 1   
    22    9   10 1   
    23    9   14 1   
    24    9   42 1   
    25    9   43 1   
    26   10   11 1   
    27   10   44 1   
    28   10   45 1   
    29   11   12 1   
    30   11   15 1   
    31   11   46 1   
    32   12   13 1   
    33   12   47 1   
    34   12   48 1   
    35   13   14 1   
    36   13   49 1   
    37   13   50 1   
    38   14   51 1   
    39   14   52 1   
    40   15   16 1   
    41   15   53 1   
    42   15   54 1   
    43   16   17 ar  
    44   16   20 ar  
    45   17   55 1   
    46   18   19 ar  
    47   18   56 1   
    48   19   20 ar  
    49   19   21 1   
    50   21   22 2   
    51   21   23 1   
    52   23   57 1   
    53   24   26 1   
    54   25   58 1   
    55   26   59 1   
    56   26   60 1   
    57   27   29 ar  
    58   27   61 1   
    59   28   62 1   
    60   29   63 1   
    61   30   31 2   
    62   30   32 1   
    63   32   33 1   
    64   32   64 1   
    65   32   68 1   
    66   33   34 2   
    67   33   35 2   
    68   33   36 1   
    69   36   65 1   
    70   36   66 1   
    71   36   67 1   
@<TRIPOS>SUBSTRUCTURE
     1 24Q         1 TEMP              0 ****  ****    0 ROOT
