@<TRIPOS>MOLECULE
24Q
   68    71     1     0     0
SMALL
bcc


@<TRIPOS>ATOM
      1 C10         1.2190    4.4890    3.0740 ca        1 24Q     -0.097000
      2 C17        -2.7110    0.6900    5.9910 ca        1 24Q      0.189600
      3 C20        -3.7840    0.6800    8.1880 ca        1 24Q     -0.052000
      4 C21        -4.6080   -0.3930    7.8040 ca        1 24Q     -0.265600
      5 C22        -4.4570   -0.9330    6.5100 ca        1 24Q     -0.001000
      6 C24        -2.2410   -1.8120    4.0050 ca        1 24Q     -0.112300
      7 C26        -1.9780   -2.9420    4.7900 ca        1 24Q     -0.124500
      8 C28        -0.2320   -2.2570    2.7280 ca        1 24Q     -0.120000
      9 C01         4.4320   -0.1550   -0.4870 c3        1 24Q     -0.077400
     10 C02         2.9800    0.2700   -0.4200 c3        1 24Q     -0.073400
     11 C03         2.6730    0.9660    0.9000 c3        1 24Q     -0.062700
     12 C04         3.0350    0.0630    2.0700 c3        1 24Q     -0.073400
     13 C05         4.4890   -0.3590    2.0040 c3        1 24Q     -0.077400
     14 C06         4.8080   -1.0350    0.6870 c3        1 24Q     -0.078400
     15 C07         1.2020    1.3600    0.9400 c3        1 24Q     -0.135700
     16 C08         0.9020    2.3070    2.0690 ca        1 24Q      0.424600
     17 C09         1.4890    3.6010    2.0410 ca        1 24Q     -0.204300
     18 C11         0.3720    4.0890    4.1140 ca        1 24Q     -0.178300
     19 C12        -0.1780    2.7940    4.0620 ca        1 24Q      0.338800
     20 N13         0.0780    1.9140    3.0610 nb        1 24Q     -0.671000
     21 C14        -1.0860    2.4060    5.1990 c         1 24Q      0.589600
     22 O15        -1.2080    3.1520    6.1850 o         1 24Q     -0.568100
     23 N16        -1.7990    1.2030    5.0880 ns        1 24Q     -0.445100
     24 C18        -3.5430   -0.4120    5.6060 ca        1 24Q     -0.142300
     25 C19        -2.8600    1.2060    7.3110 ca        1 24Q     -0.178000
     26 C23        -3.4760   -1.0100    4.2370 c3        1 24Q      0.001200
     27 C25        -0.8490   -3.7200    4.5460 ca        1 24Q     -0.120000
     28 C27        -1.3620   -1.4750    2.9700 ca        1 24Q     -0.124500
     29 C29         0.0260   -3.3790    3.5140 ca        1 24Q     -0.115000
     30 C30        -5.5980   -1.0060    8.6610 c         1 24Q      0.605700
     31 O31        -6.1330   -2.1100    8.5440 o         1 24Q     -0.507100
     32 N32        -6.0930   -0.2240    9.8510 ny        1 24Q     -0.620700
     33 S33        -7.9720   -0.2130   10.1210 s6        1 24Q      1.420900
     34 O34        -8.0560    0.7730   11.0830 o         1 24Q     -0.558300
     35 O35        -8.4750   -0.0180    8.8570 o         1 24Q     -0.558300
     36 C36        -8.1760   -1.7220   10.7230 c3        1 24Q     -0.469300
     37 H101        1.6620    5.4970    3.0800 ha        1 24Q      0.158000
     38 H201       -3.8250    1.1060    9.2030 ha        1 24Q      0.125000
     39 H221       -5.0940   -1.7870    6.2120 ha        1 24Q      0.164000
     40 H261       -2.6720   -3.2160    5.5980 ha        1 24Q      0.132000
     41 H281        0.4550   -1.9830    1.9120 ha        1 24Q      0.141000
     42 H011        5.0880    0.7560   -0.4960 hc        1 24Q      0.044200
     43 H012        4.6130   -0.7090   -1.4450 hc        1 24Q      0.044200
     44 H021        2.7520    0.9620   -1.2720 hc        1 24Q      0.040450
     45 H022        2.3190   -0.6290   -0.5280 hc        1 24Q      0.040450
     46 H031        3.3020    1.8990    0.9630 hc        1 24Q      0.051700
     47 H041        2.3790   -0.8480    2.0550 hc        1 24Q      0.040450
     48 H042        2.8410    0.6020    3.0330 hc        1 24Q      0.040450
     49 H051        5.1460    0.5420    2.1310 hc        1 24Q      0.044200
     50 H052        4.7120   -1.0590    2.8510 hc        1 24Q      0.044200
     51 H061        5.9020   -1.2740    0.6420 hc        1 24Q      0.043700
     52 H062        4.2490   -2.0060    0.6200 hc        1 24Q      0.043700
     53 H071        0.9290    1.8780   -0.0190 hc        1 24Q      0.063700
     54 H072        0.5740    0.4320    1.0130 hc        1 24Q      0.063700
     55 H091        2.1460    3.8820    1.2050 ha        1 24Q      0.160000
     56 H111        0.1370    4.7590    4.9550 ha        1 24Q      0.174000
     57 H161       -1.6290    0.6440    4.2690 hn        1 24Q      0.365500
     58 H191       -2.2220    2.0420    7.6540 ha        1 24Q      0.198000
     59 H231       -3.5650   -0.1940    3.4670 hc        1 24Q      0.069700
     60 H232       -4.3660   -1.6840    4.0800 hc        1 24Q      0.069700
     61 H251       -0.6500   -4.6080    5.1650 ha        1 24Q      0.141000
     62 H271       -1.5570   -0.5950    2.3360 ha        1 24Q      0.132000
     63 H291        0.9160   -3.9960    3.3200 ha        1 24Q      0.143000
     64 H1         -5.6280   -0.5990   10.6760 hn        1 24Q      0.459800
     65 H361       -7.7800   -2.5620   10.0780 h1        1 24Q      0.180367
     66 H362       -7.7410   -1.9020   11.7440 h1        1 24Q      0.180367
     67 H363       -9.2700   -1.9870   10.8460 h1        1 24Q      0.180367
     68 H322       -5.7860    0.7450    9.7520 hn        1 24Q      0.459800
@<TRIPOS>BOND
     1    1   17 ar  
     2    1   18 ar  
     3    1   37 1   
     4    2   23 1   
     5    2   24 ar  
     6    2   25 ar  
     7    3    4 ar  
     8    3   25 ar  
     9    3   38 1   
    10    4    5 ar  
    11    4   30 1   
    12    5   24 ar  
    13    5   39 1   
    14    6    7 ar  
    15    6   26 1   
    16    6   28 ar  
    17    7   27 ar  
    18    7   40 1   
    19    8   28 ar  
    20    8   29 ar  
    21    8   41 1   
    22    9   10 1   
    23    9   14 1   
    24    9   42 1   
    25    9   43 1   
    26   10   11 1   
    27   10   44 1   
    28   10   45 1   
    29   11   12 1   
    30   11   15 1   
    31   11   46 1   
    32   12   13 1   
    33   12   47 1   
    34   12   48 1   
    35   13   14 1   
    36   13   49 1   
    37   13   50 1   
    38   14   51 1   
    39   14   52 1   
    40   15   16 1   
    41   15   53 1   
    42   15   54 1   
    43   16   17 ar  
    44   16   20 ar  
    45   17   55 1   
    46   18   19 ar  
    47   18   56 1   
    48   19   20 ar  
    49   19   21 1   
    50   21   22 2   
    51   21   23 1   
    52   23   57 1   
    53   24   26 1   
    54   25   58 1   
    55   26   59 1   
    56   26   60 1   
    57   27   29 ar  
    58   27   61 1   
    59   28   62 1   
    60   29   63 1   
    61   30   31 2   
    62   30   32 1   
    63   32   33 1   
    64   32   64 1   
    65   32   68 1   
    66   33   34 2   
    67   33   35 2   
    68   33   36 1   
    69   36   65 1   
    70   36   66 1   
    71   36   67 1   
@<TRIPOS>SUBSTRUCTURE
     1 24Q         1 TEMP              0 ****  ****    0 ROOT
