@<TRIPOS>MOLECULE
24Q
   69    71     1     0     0
SMALL
bcc


@<TRIPOS>ATOM
      1 C10         0.3070    3.0920    0.3500 ca        1 24Q     -0.091000
      2 C17        -2.6550   -0.1630    4.0610 ca        1 24Q      0.012600
      3 C20        -1.6520    0.1270    6.2480 ca        1 24Q     -0.088000
      4 C21        -2.9290    0.1690    6.8220 ca        1 24Q     -0.139600
      5 C22        -4.0620    0.0460    6.0120 ca        1 24Q     -0.053000
      6 C24        -5.3000   -1.4870    3.0190 ca        1 24Q     -0.157300
      7 C26        -5.2450   -2.7340    3.6530 ca        1 24Q     -0.138500
      8 C28        -5.7250   -2.5980    0.9060 ca        1 24Q     -0.114500
      9 C01         5.4880    0.9630    4.0720 c3        1 24Q     -0.077900
     10 C02         4.6810    0.3760    2.9330 c3        1 24Q     -0.073400
     11 C03         3.2720    0.9580    2.9020 c3        1 24Q     -0.061700
     12 C04         2.5810    0.7310    4.2380 c3        1 24Q     -0.073400
     13 C05         3.3860    1.3270    5.3750 c3        1 24Q     -0.077900
     14 C06         4.7930    0.7670    5.4040 c3        1 24Q     -0.079400
     15 C07         2.4860    0.3300    1.7580 c3        1 24Q     -0.145700
     16 C08         1.2560    1.1300    1.4260 ca        1 24Q      0.448600
     17 C09         1.4210    2.3390    0.6820 ca        1 24Q     -0.165300
     18 C11        -0.9650    2.6500    0.7510 ca        1 24Q     -0.133300
     19 C12        -1.0400    1.4510    1.4800 ca        1 24Q      0.293800
     20 N13         0.0470    0.6970    1.8170 nb        1 24Q     -0.701000
     21 C14        -2.3850    0.9920    1.8810 c         1 24Q      0.479600
     22 O15        -3.4540    1.5450    1.6640 o         1 24Q     -0.425100
     23 N16        -2.4820   -0.3420    2.6170 n4        1 24Q     -0.554200
     24 C18        -3.9490   -0.1270    4.6240 ca        1 24Q     -0.019300
     25 C19        -1.5120   -0.0380    4.8740 ca        1 24Q     -0.098000
     26 C23        -5.1930   -0.2250    3.8050 c3        1 24Q     -0.027800
     27 C25        -5.4230   -3.9040    2.9170 ca        1 24Q     -0.114500
     28 C27        -5.5430   -1.4250    1.6390 ca        1 24Q     -0.138500
     29 C29        -5.6630   -3.8380    1.5430 ca        1 24Q     -0.098000
     30 C30        -3.1400    0.3940    8.2710 c         1 24Q      0.645700
     31 O31        -4.1690    0.9060    8.7340 o         1 24Q     -0.517100
     32 N32        -2.1650   -0.0530    9.2280 n         1 24Q     -0.722000
     33 S33        -3.1120   -1.4580   11.0320 s4        1 24Q      1.653500
     34 O34        -3.5090   -2.3910   10.1430 o         1 24Q     -0.399900
     35 O35        -1.9020   -1.4490   11.6260 o         1 24Q     -0.399900
     36 C36        -4.2060   -0.4460   11.5800 c3        1 24Q     -0.599800
     37 H101        0.4050    4.0290   -0.2260 ha        1 24Q      0.184000
     38 H201       -0.7400    0.2470    6.8560 ha        1 24Q      0.159000
     39 H221       -5.0680    0.1000    6.4700 ha        1 24Q      0.186000
     40 H261       -5.0830   -2.7910    4.7390 ha        1 24Q      0.139500
     41 H281       -5.9350   -2.5420   -0.1740 ha        1 24Q      0.158500
     42 H011        6.4970    0.4750    4.1000 hc        1 24Q      0.046950
     43 H012        5.6500    2.0580    3.8910 hc        1 24Q      0.046950
     44 H021        5.1970    0.5890    1.9610 hc        1 24Q      0.037700
     45 H022        4.6200   -0.7390    3.0470 hc        1 24Q      0.037700
     46 H031        3.3520    2.0680    2.7230 hc        1 24Q      0.056700
     47 H041        2.4520   -0.3710    4.4070 hc        1 24Q      0.037700
     48 H042        1.5590    1.1930    4.2160 hc        1 24Q      0.037700
     49 H051        2.8750    1.1110    6.3490 hc        1 24Q      0.046950
     50 H052        3.4300    2.4420    5.2580 hc        1 24Q      0.046950
     51 H061        4.7570   -0.3270    5.6500 hc        1 24Q      0.050200
     52 H062        5.3820    1.2750    6.2110 hc        1 24Q      0.050200
     53 H071        2.2250   -0.7300    2.0190 hc        1 24Q      0.077200
     54 H072        3.1290    0.2980    0.8360 hc        1 24Q      0.077200
     55 H091        2.4350    2.6520    0.3820 ha        1 24Q      0.183000
     56 H111       -1.8740    3.2210    0.4990 ha        1 24Q      0.184000
     57 H161       -1.6310   -0.8980    2.4500 hn        1 24Q      0.485800
     58 H191       -0.4940   -0.0600    4.4380 ha        1 24Q      0.188000
     59 H231       -6.0970   -0.1520    4.4750 hc        1 24Q      0.097200
     60 H232       -5.2360    0.6690    3.1160 hc        1 24Q      0.097200
     61 H251       -5.3900   -4.8820    3.4220 ha        1 24Q      0.158500
     62 H271       -5.6340   -0.4480    1.1380 ha        1 24Q      0.139500
     63 H291       -5.8190   -4.7640    0.9650 ha        1 24Q      0.163000
     64 H1         -1.4160   -0.5720    8.8010 hn        1 24Q      0.312500
     65 H361       -5.1840   -0.9140   11.9230 h1        1 24Q      0.222033
     66 H362       -3.8980    0.1880   12.4700 h1        1 24Q      0.222033
     67 H363       -4.5910    0.3350   10.8390 h1        1 24Q      0.222033
     68 H162       -3.3000   -0.8630    2.2430 hn        1 24Q      0.485800
     69 H322       -1.7850    0.7210    9.7510 hn        1 24Q      0.312500
@<TRIPOS>BOND
     1    1   17 ar  
     2    1   18 ar  
     3    1   37 1   
     4    2   23 1   
     5    2   24 ar  
     6    2   25 ar  
     7    3    4 ar  
     8    3   25 ar  
     9    3   38 1   
    10    4    5 ar  
    11    4   30 1   
    12    5   24 ar  
    13    5   39 1   
    14    6    7 ar  
    15    6   26 1   
    16    6   28 ar  
    17    7   27 ar  
    18    7   40 1   
    19    8   28 ar  
    20    8   29 ar  
    21    8   41 1   
    22    9   10 1   
    23    9   14 1   
    24    9   42 1   
    25    9   43 1   
    26   10   11 1   
    27   10   44 1   
    28   10   45 1   
    29   11   12 1   
    30   11   15 1   
    31   11   46 1   
    32   12   13 1   
    33   12   47 1   
    34   12   48 1   
    35   13   14 1   
    36   13   49 1   
    37   13   50 1   
    38   14   51 1   
    39   14   52 1   
    40   15   16 1   
    41   15   53 1   
    42   15   54 1   
    43   16   17 ar  
    44   16   20 ar  
    45   17   55 1   
    46   18   19 ar  
    47   18   56 1   
    48   19   20 ar  
    49   19   21 1   
    50   21   22 2   
    51   21   23 1   
    52   23   57 1   
    53   23   68 1   
    54   24   26 1   
    55   25   58 1   
    56   26   59 1   
    57   26   60 1   
    58   27   29 ar  
    59   27   61 1   
    60   28   62 1   
    61   29   63 1   
    62   30   31 2   
    63   30   32 1   
    64   32   64 1   
    65   32   69 1   
    66   33   34 1   
    67   33   35 1   
    68   33   36 1   
    69   36   65 1   
    70   36   66 1   
    71   36   67 1   
@<TRIPOS>SUBSTRUCTURE
     1 24Q         1 TEMP              0 ****  ****    0 ROOT
