@<TRIPOS>MOLECULE
24S
   46    47     1     0     0
SMALL
bcc


@<TRIPOS>ATOM
      1 C1         -0.1310   -0.2460   -0.0440 c3        1 24S      0.341300
      2 C2          1.3150   -0.2550   -0.6080 c3        1 24S      0.113100
      3 O2          1.4180   -1.4230   -1.3910 oh        1 24S     -0.630800
      4 C3          2.2620   -0.2600    0.6050 c3        1 24S      0.118100
      5 O3          3.5600   -0.1800    0.0560 oh        1 24S     -0.590800
      6 C4          1.9640    0.9550    1.5090 c3        1 24S      0.079100
      7 O4          2.7520    0.7520    2.6650 oh        1 24S     -0.575800
      8 C5          0.4760    0.9790    1.8970 c3        1 24S      0.116100
      9 O5         -0.3490    0.9330    0.7060 os        1 24S     -0.427600
     10 C6          0.0730    2.2820    2.5930 c3        1 24S      0.136400
     11 O6         -1.2540    2.0990    3.0470 oh        1 24S     -0.608800
     12 NAL        -1.1350   -0.1790   -1.1920 ny        1 24S     -0.603800
     13 CAM        -2.4840   -0.6700   -0.8320 c         1 24S      0.038400
     14 NAN        -3.4900   -0.4810   -1.9870 ny        1 24S     -0.329900
     15 SAO        -2.9560   -1.2840    0.4580 s         1 24S      0.297600
     16 NAP        -3.6710    0.8740   -2.3060 n2        1 24S     -0.534400
     17 CAQ        -3.9410    1.3170   -3.4920 ce        1 24S      0.581800
     18 CAR        -4.1880    0.6730   -4.7880 ca        1 24S     -0.225900
     19 CAS        -3.1780    0.1130   -5.6050 ca        1 24S     -0.154200
     20 CAT        -3.4690   -0.3360   -6.9010 ca        1 24S     -0.047000
     21 CAU        -4.7840   -0.2610   -7.3760 ca        1 24S     -0.073000
     22 CAV        -5.7890    0.2700   -6.5740 ca        1 24S     -0.063000
     23 CAW        -5.4900    0.7500   -5.2940 ca        1 24S     -0.083000
     24 NAX        -1.7770    0.0040   -5.1260 no        1 24S      0.320200
     25 OAY        -1.5950   -0.1490   -3.9280 o         1 24S     -0.227000
     26 OAZ        -0.8680    0.0400   -5.8880 o         1 24S     -0.227000
     27 H1         -0.3400   -1.1790    0.5620 hx        1 24S      0.121700
     28 H2          1.5160    0.6550   -1.2420 h1        1 24S      0.096700
     29 HO2         2.3640   -1.6100   -1.5180 ho        1 24S      0.483000
     30 H3          2.1480   -1.2130    1.1950 h1        1 24S      0.083700
     31 HO3         4.1850   -0.1890    0.7980 ho        1 24S      0.458000
     32 H4          2.2460    1.9050    0.9770 h1        1 24S      0.083700
     33 HO4         2.9440    1.6170    3.0520 ho        1 24S      0.436000
     34 H5          0.2220    0.0970    2.5500 h1        1 24S      0.095700
     35 H6          0.1110    3.1430    1.8750 h1        1 24S      0.062700
     36 H6A         0.7830    2.4550    3.4460 h1        1 24S      0.062700
     37 HO6        -1.4110    2.7520    3.7430 ho        1 24S      0.437000
     38 HNAL       -0.7370   -0.7400   -1.9760 hn        1 24S      0.505300
     39 HNAN       -4.3930   -0.8580   -1.6270 hn        1 24S      0.474800
     40 HAQ        -4.0630    2.4380   -3.4900 h4        1 24S      0.113800
     41 HAT        -2.6700   -0.7400   -7.5530 ha        1 24S      0.201000
     42 HAU        -5.0110   -0.6180   -8.3980 ha        1 24S      0.197000
     43 HAV        -6.8270    0.3340   -6.9520 ha        1 24S      0.193000
     44 HAW        -6.2910    1.2090   -4.6890 ha        1 24S      0.174000
     45 HAL2       -1.1850    0.8080   -1.5020 hn        1 24S      0.505300
     46 HAN2       -3.1790   -1.0520   -2.8010 hn        1 24S      0.474800
@<TRIPOS>BOND
     1    1    2 1   
     2    1    9 1   
     3    1   12 1   
     4    1   27 1   
     5    2    3 1   
     6    2    4 1   
     7    2   28 1   
     8    3   29 1   
     9    4    5 1   
    10    4    6 1   
    11    4   30 1   
    12    5   31 1   
    13    6    7 1   
    14    6    8 1   
    15    6   32 1   
    16    7   33 1   
    17    8    9 1   
    18    8   10 1   
    19    8   34 1   
    20   10   11 1   
    21   10   35 1   
    22   10   36 1   
    23   11   37 1   
    24   12   13 1   
    25   12   38 1   
    26   12   45 1   
    27   13   14 1   
    28   13   15 2   
    29   14   16 1   
    30   14   39 1   
    31   14   46 1   
    32   16   17 2   
    33   17   18 1   
    34   17   40 1   
    35   18   19 ar  
    36   18   23 ar  
    37   19   20 ar  
    38   19   24 1   
    39   20   21 ar  
    40   20   41 1   
    41   21   22 ar  
    42   21   42 1   
    43   22   23 ar  
    44   22   43 1   
    45   23   44 1   
    46   24   25 1   
    47   24   26 1   
@<TRIPOS>SUBSTRUCTURE
     1 24S         1 TEMP              0 ****  ****    0 ROOT
