@<TRIPOS>MOLECULE
24S
   44    45     1     0     0
SMALL
bcc


@<TRIPOS>ATOM
      1 C1          2.4800   -0.3730    0.3630 c3        1 24S      0.236500
      2 C2          3.2460   -1.7260    0.3850 c3        1 24S      0.089100
      3 O2          2.9050   -2.5060    1.5150 oh        1 24S     -0.597800
      4 C3          4.7500   -1.4370    0.5270 c3        1 24S      0.109100
      5 O3          5.5040   -2.6280    0.3800 oh        1 24S     -0.606800
      6 C4          5.2150   -0.4880   -0.5900 c3        1 24S      0.117100
      7 O4          6.5570   -0.0900   -0.3780 oh        1 24S     -0.593800
      8 C5          4.3480    0.7830   -0.5680 c3        1 24S      0.150100
      9 O5          2.9780    0.4140   -0.7370 os        1 24S     -0.439600
     10 C6          4.6920    1.6940   -1.7490 c3        1 24S      0.135400
     11 O6          4.3450    3.0140   -1.3630 oh        1 24S     -0.595800
     12 NAL         1.0620   -0.5600    0.1170 n         1 24S     -0.478900
     13 CAM         0.1450    0.1780    0.8550 c         1 24S      0.581400
     14 NAN        -1.1660    0.3710    0.3590 n         1 24S     -0.303900
     15 SAO         0.4390    0.7880    2.3240 s         1 24S     -0.524400
     16 NAP        -1.6070   -0.1120   -0.8010 n2        1 24S     -0.450300
     17 CAQ        -2.8400    0.0040   -1.1930 ce        1 24S      0.383800
     18 CAR        -3.9800    0.6400   -0.5220 ca        1 24S     -0.105900
     19 CAS        -5.2020   -0.0310   -0.3140 ca        1 24S     -0.156200
     20 CAT        -6.2770    0.6200    0.3170 ca        1 24S     -0.069000
     21 CAU        -6.1360    1.9410    0.7330 ca        1 24S     -0.129000
     22 CAV        -4.9340    2.6160    0.5260 ca        1 24S     -0.083000
     23 CAW        -3.8670    1.9700   -0.0940 ca        1 24S     -0.137000
     24 NAX        -5.4020   -1.4430   -0.7460 no        1 24S      0.312200
     25 OAY        -4.5750   -1.9850   -1.4280 o         1 24S     -0.203500
     26 OAZ        -6.4060   -2.0070   -0.4000 o         1 24S     -0.203500
     27 H1          2.6360    0.1760    1.3450 h2        1 24S      0.122700
     28 H2          3.0540   -2.3070   -0.5590 h1        1 24S      0.062700
     29 HO2         1.9550   -2.6750    1.4800 ho        1 24S      0.424000
     30 H3          4.9550   -0.9820    1.5370 h1        1 24S      0.070700
     31 HO3         5.1800   -3.2450    1.0510 ho        1 24S      0.429000
     32 H4          5.1250   -1.0070   -1.5840 h1        1 24S      0.059700
     33 HO4         7.0680   -0.9040   -0.2650 ho        1 24S      0.426000
     34 H5          4.4840    1.3370    0.4010 h1        1 24S      0.085700
     35 H6          5.7960    1.6290   -1.9480 h1        1 24S      0.047200
     36 H6A         4.1140    1.3860   -2.6600 h1        1 24S      0.047200
     37 HO6         4.4900    3.5720   -2.1350 ho        1 24S      0.403000
     38 HNAL        0.8480   -0.7840   -0.8350 hn        1 24S      0.327500
     39 HNAN       -1.7980    0.7680    1.0420 hn        1 24S      0.339500
     40 HAQ        -3.0450   -0.4620   -2.1820 h4        1 24S      0.073800
     41 HAT        -7.2290    0.0830    0.4830 ha        1 24S      0.177000
     42 HAU        -6.9800    2.4480    1.2270 ha        1 24S      0.154000
     43 HAV        -4.8250    3.6620    0.8540 ha        1 24S      0.152000
     44 HAW        -2.9260    2.5170   -0.2670 ha        1 24S      0.158000
@<TRIPOS>BOND
     1    1    2 1   
     2    1    9 1   
     3    1   12 1   
     4    1   27 1   
     5    2    3 1   
     6    2    4 1   
     7    2   28 1   
     8    3   29 1   
     9    4    5 1   
    10    4    6 1   
    11    4   30 1   
    12    5   31 1   
    13    6    7 1   
    14    6    8 1   
    15    6   32 1   
    16    7   33 1   
    17    8    9 1   
    18    8   10 1   
    19    8   34 1   
    20   10   11 1   
    21   10   35 1   
    22   10   36 1   
    23   11   37 1   
    24   12   13 1   
    25   12   38 1   
    26   13   14 1   
    27   13   15 2   
    28   14   16 1   
    29   14   39 1   
    30   16   17 2   
    31   17   18 1   
    32   17   40 1   
    33   18   19 ar  
    34   18   23 ar  
    35   19   20 ar  
    36   19   24 1   
    37   20   21 ar  
    38   20   41 1   
    39   21   22 ar  
    40   21   42 1   
    41   22   23 ar  
    42   22   43 1   
    43   23   44 1   
    44   24   25 1   
    45   24   26 1   
@<TRIPOS>SUBSTRUCTURE
     1 24S         1 TEMP              0 ****  ****    0 ROOT
