@<TRIPOS>MOLECULE
24S
   44    42     1     0     0
SMALL
bcc


@<TRIPOS>ATOM
      1 C1          0.3780    0.3430    1.7710 c3        1 24S      0.088000
      2 C2          1.8940    0.1870    1.6860 c3        1 24S     -0.022000
      3 O2          2.2000   -1.0970    1.1200 oh        1 24S     -0.325000
      4 C3          2.5490    0.2920    3.0150 c3        1 24S     -0.002000
      5 O3          4.0080    0.3010    2.8360 oh        1 24S     -0.334000
      6 C4          2.1320    1.5340    3.7560 c3        1 24S      0.006000
      7 O4          2.6380    1.4800    5.0290 oh        1 24S     -0.321000
      8 C5          0.6080    1.6790    3.8300 c3        1 24S      0.039000
      9 O5         -0.0300    1.5650    2.5150 os        1 24S     -0.296000
     10 C6          0.2720    3.0000    4.4090 c3        1 24S     -0.015000
     11 O6         -1.0950    2.9900    4.8500 oh        1 24S     -0.323000
     12 NAL        -0.1400    0.4170    0.4720 n         1 24S     -0.288000
     13 CAM        -0.9380   -0.7040   -0.0630 c2        1 24S      0.164000
     14 NAN        -1.9230   -0.4660   -1.0790 n         1 24S     -0.283000
     15 SAO        -0.6610   -2.2670    0.4860 s         1 24S     -0.241000
     16 NAP        -1.8120    0.6330   -1.8950 n2        1 24S     -0.030000
     17 CAQ        -1.8050    0.4860   -3.2390 c1        1 24S     -0.117000
     18 CAR        -1.9230   -0.9470   -3.8780 c1        1 24S     -0.022000
     19 CAS        -1.1180   -1.2950   -4.9760 c2        1 24S     -0.111000
     20 CAT        -1.2390   -2.5590   -5.5580 c1        1 24S     -0.069000
     21 CAU        -2.1500   -3.4670   -5.0570 c1        1 24S     -0.106000
     22 CAV        -2.9520   -3.1250   -3.9650 c1        1 24S     -0.106000
     23 CAW        -2.8340   -1.8590   -3.3770 c1        1 24S     -0.137000
     24 NAX        -0.1530   -0.3280   -5.5130 no        1 24S      0.567000
     25 OAY        -0.2860    0.8680   -5.2710 o         1 24S     -0.353500
     26 OAZ         0.7820   -0.7320   -6.3710 o         1 24S     -0.353500
     27 H1         -0.0120   -0.4750    2.2360 h2        1 24S      0.162000
     28 H2          2.2480    0.8760    1.1080 h1        1 24S      0.102000
     29 HO2         2.8920   -1.0160    0.5450 ho        1 24S      0.223000
     30 H3          2.3100   -0.4640    3.5320 h1        1 24S      0.110000
     31 HO3         4.3570   -0.5630    3.0420 ho        1 24S      0.228000
     32 H4          2.5170    2.3480    3.2820 h1        1 24S      0.099000
     33 HO4         3.5340    1.6840    5.0070 ho        1 24S      0.225000
     34 H5          0.2520    0.9830    4.4140 h1        1 24S      0.125000
     35 H6          0.9060    3.1960    5.2270 h1        1 24S      0.086500
     36 H6A         0.3990    3.7280    3.6950 h1        1 24S      0.086500
     37 HO6        -1.3150    3.7910    5.1510 ho        1 24S      0.202000
     38 HNAL       -0.1070    1.2060    0.0190 hn        1 24S      0.241000
     39 HNAN       -2.6910   -0.9770   -1.0980 hn        1 24S      0.253000
     40 HAQ        -1.7290    1.2320   -3.7860 ha        1 24S      0.203000
     41 HAT        -0.7070   -2.7880   -6.2840 ha        1 24S      0.177000
     42 HAU        -2.2290   -4.3030   -5.4430 ha        1 24S      0.153000
     43 HAV        -3.6050   -3.7790   -3.6070 ha        1 24S      0.153000
     44 HAW        -3.4260   -1.6090   -2.5740 ha        1 24S      0.158000
@<TRIPOS>BOND
     1    1    2 1   
     2    1    9 1   
     3    1   12 1   
     4    1   27 1   
     5    2    3 1   
     6    2    4 1   
     7    2   28 1   
     8    3   29 1   
     9    4    5 1   
    10    4    6 1   
    11    4   30 1   
    12    5   31 1   
    13    6    7 1   
    14    6    8 1   
    15    6   32 1   
    16    7   33 1   
    17    8    9 1   
    18    8   10 1   
    19    8   34 1   
    20   10   11 1   
    21   10   35 1   
    22   10   36 1   
    23   11   37 1   
    24   12   13 1   
    25   12   38 1   
    26   13   14 1   
    27   13   15 1   
    28   14   16 1   
    29   14   39 1   
    30   16   17 1   
    31   17   40 1   
    32   18   19 1   
    33   18   23 1   
    34   19   20 1   
    35   19   24 1   
    36   20   41 1   
    37   21   22 1   
    38   21   42 1   
    39   22   43 1   
    40   23   44 1   
    41   24   25 1   
    42   24   26 1   
@<TRIPOS>SUBSTRUCTURE
     1 24S         1 TEMP              0 ****  ****    0 ROOT
