@<TRIPOS>MOLECULE
24S
   44    45     1     0     0
SMALL
bcc


@<TRIPOS>ATOM
      1 C1          0.1280    0.0060    0.0810 c3        1 24S      0.236500
      2 C2          1.6710   -0.1780    0.1320 c3        1 24S      0.089100
      3 O2          2.0630   -1.4580   -0.3250 oh        1 24S     -0.597800
      4 C3          2.1250   -0.1110    1.6010 c3        1 24S      0.109100
      5 O3          3.5400   -0.1020    1.6860 oh        1 24S     -0.606800
      6 C4          1.6430    1.1980    2.2450 c3        1 24S      0.117100
      7 O4          1.9170    1.1990    3.6340 oh        1 24S     -0.593800
      8 C5          0.1180    1.3150    2.0760 c3        1 24S      0.150100
      9 O5         -0.2000    1.2740    0.6840 os        1 24S     -0.439600
     10 C6         -0.3840    2.6680    2.5870 c3        1 24S      0.135400
     11 O6         -1.7400    2.4890    2.9570 oh        1 24S     -0.595800
     12 NAL        -0.3640    0.0680   -1.2830 n         1 24S     -0.478900
     13 CAM        -1.5260   -0.6170   -1.6150 c         1 24S      0.581400
     14 NAN        -2.2690   -0.2310   -2.7550 n         1 24S     -0.303900
     15 SAO        -2.0750   -1.9150   -0.8220 s         1 24S     -0.524400
     16 NAP        -1.9350    0.7730   -3.5630 n2        1 24S     -0.450300
     17 CAQ        -2.5850    1.0510   -4.6540 ce        1 24S      0.383800
     18 CAR        -3.7590    0.3910   -5.2380 ca        1 24S     -0.105900
     19 CAS        -3.7830   -0.0580   -6.5740 ca        1 24S     -0.156200
     20 CAT        -4.9340   -0.6700   -7.1030 ca        1 24S     -0.069000
     21 CAU        -6.0610   -0.8280   -6.3010 ca        1 24S     -0.129000
     22 CAV        -6.0500   -0.3810   -4.9800 ca        1 24S     -0.083000
     23 CAW        -4.9080    0.2200   -4.4550 ca        1 24S     -0.137000
     24 NAX        -2.6030    0.0920   -7.4710 no        1 24S      0.312200
     25 OAY        -1.6610    0.7490   -7.1190 o         1 24S     -0.203500
     26 OAZ        -2.6300   -0.4500   -8.5440 o         1 24S     -0.203500
     27 H1         -0.3820   -0.8410    0.6410 h2        1 24S      0.122700
     28 H2          2.1860    0.6230   -0.4660 h1        1 24S      0.062700
     29 HO2         1.7590   -1.5500   -1.2360 ho        1 24S      0.424000
     30 H3          1.7180   -0.9970    2.1640 h1        1 24S      0.070700
     31 HO3         3.8480   -0.9010    1.2380 ho        1 24S      0.429000
     32 H4          2.1590    2.0700    1.7550 h1        1 24S      0.059700
     33 HO4         2.8590    0.9970    3.7260 ho        1 24S      0.426000
     34 H5         -0.4040    0.4790    2.6180 h1        1 24S      0.085700
     35 H6          0.2240    2.9640    3.4850 h1        1 24S      0.047200
     36 H6A        -0.2940    3.4460    1.7840 h1        1 24S      0.047200
     37 HO6        -2.0730    3.3600    3.2040 ho        1 24S      0.403000
     38 HNAL       -0.1680    0.9380   -1.7390 hn        1 24S      0.327500
     39 HNAN       -2.9920   -0.8940   -3.0050 hn        1 24S      0.339500
     40 HAQ        -2.1710    1.9150   -5.2190 h4        1 24S      0.073800
     41 HAT        -4.9410   -1.0260   -8.1480 ha        1 24S      0.177000
     42 HAU        -6.9610   -1.3070   -6.7170 ha        1 24S      0.154000
     43 HAV        -6.9440   -0.5050   -4.3480 ha        1 24S      0.152000
     44 HAW        -4.9150    0.5830   -3.4140 ha        1 24S      0.158000
@<TRIPOS>BOND
     1    1    2 1   
     2    1    9 1   
     3    1   12 1   
     4    1   27 1   
     5    2    3 1   
     6    2    4 1   
     7    2   28 1   
     8    3   29 1   
     9    4    5 1   
    10    4    6 1   
    11    4   30 1   
    12    5   31 1   
    13    6    7 1   
    14    6    8 1   
    15    6   32 1   
    16    7   33 1   
    17    8    9 1   
    18    8   10 1   
    19    8   34 1   
    20   10   11 1   
    21   10   35 1   
    22   10   36 1   
    23   11   37 1   
    24   12   13 1   
    25   12   38 1   
    26   13   14 1   
    27   13   15 2   
    28   14   16 1   
    29   14   39 1   
    30   16   17 2   
    31   17   18 1   
    32   17   40 1   
    33   18   19 ar  
    34   18   23 ar  
    35   19   20 ar  
    36   19   24 1   
    37   20   21 ar  
    38   20   41 1   
    39   21   22 ar  
    40   21   42 1   
    41   22   23 ar  
    42   22   43 1   
    43   23   44 1   
    44   24   25 1   
    45   24   26 1   
@<TRIPOS>SUBSTRUCTURE
     1 24S         1 TEMP              0 ****  ****    0 ROOT
