@<TRIPOS>MOLECULE
24S
   46    47     1     0     0
SMALL
bcc


@<TRIPOS>ATOM
      1 C1         -0.1400   -0.2810   -0.0440 c3        1 24S      0.342300
      2 C2          1.3090   -0.2370   -0.5980 c3        1 24S      0.112100
      3 O2          1.4530   -1.3960   -1.3900 oh        1 24S     -0.630800
      4 C3          2.2500   -0.2190    0.6190 c3        1 24S      0.116100
      5 O3          3.5480   -0.1040    0.0770 oh        1 24S     -0.589800
      6 C4          1.9110    0.9900    1.5170 c3        1 24S      0.080100
      7 O4          2.7010    0.8230    2.6770 oh        1 24S     -0.577800
      8 C5          0.4250    0.9620    1.9090 c3        1 24S      0.088100
      9 O5         -0.4060    0.8750    0.7260 os        1 24S     -0.430600
     10 C6         -0.0310    2.2600    2.5910 c3        1 24S      0.137400
     11 O6         -1.2920    2.0680    3.1840 oh        1 24S     -0.585800
     12 NAL        -1.1340   -0.2200   -1.2030 n4        1 24S     -0.604800
     13 CAM        -2.4700   -0.7640   -0.8760 c         1 24S      0.041400
     14 NAN        -3.4710   -0.5590   -2.0320 n4        1 24S     -0.329900
     15 SAO        -2.9340   -1.4440    0.3840 s         1 24S      0.291600
     16 NAP        -3.6960    0.8030   -2.2900 n2        1 24S     -0.533400
     17 CAQ        -3.9700    1.2910   -3.4580 ce        1 24S      0.581800
     18 CAR        -4.1810    0.7010   -4.7850 ca        1 24S     -0.225900
     19 CAS        -3.1460    0.2130   -5.6150 ca        1 24S     -0.154200
     20 CAT        -3.4080   -0.1840   -6.9340 ca        1 24S     -0.046000
     21 CAU        -4.7190   -0.1300   -7.4210 ca        1 24S     -0.073000
     22 CAV        -5.7500    0.3300   -6.6070 ca        1 24S     -0.062000
     23 CAW        -5.4790    0.7590   -5.3030 ca        1 24S     -0.082000
     24 NAX        -1.7460    0.1280   -5.1250 no        1 24S      0.320200
     25 OAY        -1.5700   -0.0770   -3.9340 o         1 24S     -0.227500
     26 OAZ        -0.8320    0.2300   -5.8740 o         1 24S     -0.227500
     27 H1         -0.3280   -1.2310    0.5410 hx        1 24S      0.121700
     28 H2          1.4840    0.6820   -1.2250 h1        1 24S      0.095700
     29 HO2         2.4050   -1.5540   -1.5100 ho        1 24S      0.483000
     30 H3          2.1590   -1.1740    1.2090 h1        1 24S      0.082700
     31 HO3         4.1700   -0.1020    0.8220 ho        1 24S      0.458000
     32 H4          2.1570    1.9450    0.9780 h1        1 24S      0.083700
     33 HO4         2.9330    1.7010    3.0100 ho        1 24S      0.437000
     34 H5          0.2100    0.0740    2.5660 h1        1 24S      0.084700
     35 H6         -0.1760    3.0710    1.8250 h1        1 24S      0.080700
     36 H6A         0.7540    2.5630    3.3330 h1        1 24S      0.080700
     37 HO6        -1.1550    1.8020    4.1030 ho        1 24S      0.424000
     38 HNAL       -1.2110    0.7740   -1.4890 hn        1 24S      0.504800
     39 HNAN       -4.3640   -0.9820   -1.6980 hn        1 24S      0.475800
     40 HAQ        -4.1310    2.4060   -3.4050 h4        1 24S      0.114800
     41 HAT        -2.5890   -0.5310   -7.5940 ha        1 24S      0.201000
     42 HAU        -4.9240   -0.4460   -8.4610 ha        1 24S      0.197000
     43 HAV        -6.7850    0.3790   -6.9940 ha        1 24S      0.193000
     44 HAW        -6.3020    1.1630   -4.6860 ha        1 24S      0.174000
     45 HAL2       -0.7090   -0.7460   -1.9970 hn        1 24S      0.504800
     46 HAN2       -3.1340   -1.0810   -2.8670 hn        1 24S      0.475800
@<TRIPOS>BOND
     1    1    2 1   
     2    1    9 1   
     3    1   12 1   
     4    1   27 1   
     5    2    3 1   
     6    2    4 1   
     7    2   28 1   
     8    3   29 1   
     9    4    5 1   
    10    4    6 1   
    11    4   30 1   
    12    5   31 1   
    13    6    7 1   
    14    6    8 1   
    15    6   32 1   
    16    7   33 1   
    17    8    9 1   
    18    8   10 1   
    19    8   34 1   
    20   10   11 1   
    21   10   35 1   
    22   10   36 1   
    23   11   37 1   
    24   12   13 1   
    25   12   38 1   
    26   12   45 1   
    27   13   14 1   
    28   13   15 2   
    29   14   16 1   
    30   14   39 1   
    31   14   46 1   
    32   16   17 2   
    33   17   18 1   
    34   17   40 1   
    35   18   19 ar  
    36   18   23 ar  
    37   19   20 ar  
    38   19   24 1   
    39   20   21 ar  
    40   20   41 1   
    41   21   22 ar  
    42   21   42 1   
    43   22   23 ar  
    44   22   43 1   
    45   23   44 1   
    46   24   25 1   
    47   24   26 1   
@<TRIPOS>SUBSTRUCTURE
     1 24S         1 TEMP              0 ****  ****    0 ROOT
