@<TRIPOS>MOLECULE
24T
   13    13     1     0     0
SMALL
bcc


@<TRIPOS>ATOM
      1 S1         -0.0400   -0.0930   -0.0330 ss        1 24T     -0.120300
      2 C2          1.6970    0.0940    0.0470 cc        1 24T      0.600300
      3 N3          2.1810    0.1100    1.3050 nd        1 24T     -0.689000
      4 C4          1.1320   -0.0240    2.2100 cd        1 24T      0.373600
      5 C5         -0.1240   -0.1620    1.6330 cc        1 24T     -0.275400
      6 N           2.4260    0.3170   -1.1250 nh        1 24T     -0.885500
      7 CM          1.3760   -0.0270    3.6710 c3        1 24T     -0.125400
      8 H5         -1.0530   -0.3000    2.1820 h4        1 24T      0.179000
      9 HN1         3.3940    0.5170   -0.9650 hn        1 24T      0.393300
     10 HN2         2.3080   -0.4240   -1.7860 hn        1 24T      0.393300
     11 HM1         1.8290    0.9450    3.9920 hc        1 24T      0.051700
     12 HM2         2.0800   -0.8510    3.9500 hc        1 24T      0.051700
     13 HM3         0.4130   -0.1740    4.2180 hc        1 24T      0.051700
@<TRIPOS>BOND
     1    1    2 1   
     2    1    5 1   
     3    2    3 2   
     4    2    6 1   
     5    3    4 1   
     6    4    5 2   
     7    4    7 1   
     8    5    8 1   
     9    6    9 1   
    10    6   10 1   
    11    7   11 1   
    12    7   12 1   
    13    7   13 1   
@<TRIPOS>SUBSTRUCTURE
     1 24T         1 TEMP              0 ****  ****    0 ROOT
