@<TRIPOS>MOLECULE
24T
   14    14     1     0     0
SMALL
bcc


@<TRIPOS>ATOM
      1 S1         -0.0540    0.0710   -0.0090 ss        1 24T      0.178700
      2 C2          1.6480   -0.0370    0.0470 cc        1 24T      0.281300
      3 N3          2.1740   -0.0850    1.3040 nd        1 24T     -0.578000
      4 C4          1.1490   -0.0310    2.2160 cd        1 24T      0.395600
      5 C5         -0.1320    0.0570    1.6280 cc        1 24T     -0.247400
      6 N           2.5170   -0.0770   -1.1140 n4        1 24T     -0.767300
      7 CM          1.3840   -0.0630    3.6790 c3        1 24T     -0.143400
      8 H5         -1.0580    0.1080    2.2090 h4        1 24T      0.225000
      9 HN1         3.1490    0.7380   -1.1040 hn        1 24T      0.472467
     10 HN2         3.0890   -0.9340   -1.0920 hn        1 24T      0.472467
     11 HM1         2.0270    0.8000    3.9920 hc        1 24T      0.079700
     12 HM2         0.4090   -0.0030    4.2210 hc        1 24T      0.079700
     13 HM3         1.9030   -1.0110    3.9710 hc        1 24T      0.079700
     14 HN3         1.9520   -0.0630   -1.9680 hn        1 24T      0.472467
@<TRIPOS>BOND
     1    1    2 1   
     2    1    5 1   
     3    2    3 2   
     4    2    6 1   
     5    3    4 1   
     6    4    5 2   
     7    4    7 1   
     8    5    8 1   
     9    6    9 1   
    10    6   10 1   
    11    6   14 1   
    12    7   11 1   
    13    7   12 1   
    14    7   13 1   
@<TRIPOS>SUBSTRUCTURE
     1 24T         1 TEMP              0 ****  ****    0 ROOT
