@<TRIPOS>MOLECULE
24T
   13    13     1     0     0
SMALL
bcc


@<TRIPOS>ATOM
      1 S1         -0.0420   -0.1570   -0.0280 ss        1 24T     -0.120300
      2 C2          1.7020   -0.0340    0.0450 cc        1 24T      0.600300
      3 N3          2.1870    0.0270    1.3000 nd        1 24T     -0.689000
      4 C4          1.1350   -0.0320    2.2110 cd        1 24T      0.373600
      5 C5         -0.1280   -0.1150    1.6390 cc        1 24T     -0.275400
      6 N           2.4530   -0.1180   -1.1310 nv        1 24T     -0.885500
      7 CM          1.3830    0.0050    3.6710 c3        1 24T     -0.125400
      8 H5         -1.0640   -0.1470    2.1920 h4        1 24T      0.179000
      9 HN1         3.4420   -0.1450   -0.9770 hn        1 24T      0.393300
     10 HN2         2.2030    0.5960   -1.7860 hn        1 24T      0.393300
     11 HM1         0.4120   -0.0290    4.2230 hc        1 24T      0.051700
     12 HM2         1.9260    0.9400    3.9540 hc        1 24T      0.051700
     13 HM3         2.0060   -0.8710    3.9820 hc        1 24T      0.051700
@<TRIPOS>BOND
     1    1    2 1   
     2    1    5 1   
     3    2    3 2   
     4    2    6 1   
     5    3    4 1   
     6    4    5 2   
     7    4    7 1   
     8    5    8 1   
     9    6    9 1   
    10    6   10 1   
    11    7   11 1   
    12    7   12 1   
    13    7   13 1   
@<TRIPOS>SUBSTRUCTURE
     1 24T         1 TEMP              0 ****  ****    0 ROOT
