@<TRIPOS>MOLECULE
24T
   13    13     1     0     0
SMALL
bcc


@<TRIPOS>ATOM
      1 S1          1.2620   -0.0120   -0.7430 ss        1 24T     -0.120300
      2 C2         -0.4690    0.0750   -0.9820 cc        1 24T      0.600300
      3 N3         -1.1740    0.0680    0.1670 nd        1 24T     -0.689000
      4 C4         -0.3000   -0.0020    1.2490 cd        1 24T      0.373600
      5 C5          1.0450   -0.0700    0.9120 cc        1 24T     -0.275400
      6 N          -0.9840    0.2520   -2.2690 nh        1 24T     -0.885500
      7 CM         -0.8060   -0.0140    2.6420 c3        1 24T     -0.125400
      8 H5          1.8650   -0.1520    1.6210 h4        1 24T      0.179000
      9 HN1        -0.7070   -0.4840   -2.8870 hn        1 24T      0.393300
     10 HN2        -1.9740    0.3970   -2.2910 hn        1 24T      0.393300
     11 HM1        -1.3660    0.9290    2.8610 hc        1 24T      0.051700
     12 HM2        -1.4990   -0.8780    2.8010 hc        1 24T      0.051700
     13 HM3         0.0480   -0.1010    3.3570 hc        1 24T      0.051700
@<TRIPOS>BOND
     1    1    2 1   
     2    1    5 1   
     3    2    3 2   
     4    2    6 1   
     5    3    4 1   
     6    4    5 2   
     7    4    7 1   
     8    5    8 1   
     9    6    9 1   
    10    6   10 1   
    11    7   11 1   
    12    7   12 1   
    13    7   13 1   
@<TRIPOS>SUBSTRUCTURE
     1 24T         1 TEMP              0 ****  ****    0 ROOT
