@<TRIPOS>MOLECULE
24T
   13    10     1     0     0
SMALL
bcc


@<TRIPOS>ATOM
      1 S1         -1.0000    0.0180   -1.4520 ss        1 24T      0.464000
      2 C2          0.5430    0.0180   -1.4520 c1        1 24T     -0.170000
      3 N3          0.9830    0.0180   -0.0930 n2        1 24T     -0.163000
      4 C4         -0.2820    0.0180    0.8370 c1        1 24T     -0.049000
      5 C5         -1.4590    0.0180    0.0020 c1        1 24T     -0.480000
      6 N           1.3770   -0.0480   -2.5980 n2        1 24T     -0.283000
      7 CM         -0.2680    0.0180    2.3500 c2        1 24T     -0.149000
      8 H5         -2.3840    0.0180    0.3130 DU        1 24T      0.179000
      9 HN1         2.0400    0.5670   -2.7160 hn        1 24T      0.188500
     10 HN2         1.2470   -0.7020   -3.2190 hn        1 24T      0.188500
     11 HM1         0.6550    0.0190    2.6670 ha        1 24T      0.091000
     12 HM2        -0.7260    0.8150    2.6790 ha        1 24T      0.091000
     13 HM3        -0.7260   -0.7790    2.6800 ha        1 24T      0.091000
@<TRIPOS>BOND
     1    1    2 1   
     2    1    5 1   
     3    2    3 1   
     4    3    4 1   
     5    4    5 1   
     6    6    9 1   
     7    6   10 1   
     8    7   11 1   
     9    7   12 1   
    10    7   13 1   
@<TRIPOS>SUBSTRUCTURE
     1 24T         1 TEMP              0 ****  ****    0 ROOT
