@<TRIPOS>MOLECULE
24U
   49    50     1     0     0
SMALL
bcc


@<TRIPOS>ATOM
      1 C17         2.1480    0.8050   -1.0800 c3        1 24U     -0.102100
      2 C33         3.4220    0.3410   -0.4230 c3        1 24U     -0.073400
      3 C15         3.2480    0.2490    1.0790 c3        1 24U     -0.145400
      4 C14         4.5300   -0.1620    1.7590 c         1 24U      0.677100
      5 O32         5.6380   -0.1990    1.1750 o         1 24U     -0.660100
      6 N1          4.4990   -0.5900    3.0920 n         1 24U     -0.491800
      7 C1          5.6930   -0.5300    3.9110 c3        1 24U      0.042700
      8 C7          6.5960   -1.7710    3.8180 c         1 24U      0.536100
      9 O22         7.2920   -2.2350    4.7060 o         1 24U     -0.428100
     10 C2          5.2500   -0.3220    5.3820 c3        1 24U     -0.085400
     11 C3          3.7290   -0.4130    5.3830 c3        1 24U     -0.098400
     12 C4          3.2940   -0.4850    3.9130 c3        1 24U      0.071000
     13 N23         6.6940   -2.4240    2.4570 n4        1 24U     -0.682800
     14 C24         7.7250   -3.4950    2.3320 c3        1 24U      0.152100
     15 C25         9.0970   -2.9780    2.0270 ca        1 24U     -0.113300
     16 C26         9.4730   -2.7260    0.7020 ca        1 24U     -0.088500
     17 C27        10.7770   -2.3250    0.4080 ca        1 24U     -0.088000
     18 C28        11.7060   -2.1780    1.4450 ca        1 24U     -0.223900
     19 C21        13.0760   -1.7060    1.1330 ce        1 24U      0.572800
     20 N47        13.5140   -0.5510    0.8140 n2        1 24U     -0.679100
     21 N46        14.0950   -2.8110    1.2170 n4        1 24U     -0.821600
     22 C29        11.3320   -2.4200    2.7720 ca        1 24U     -0.088000
     23 C30        10.0270   -2.8160    3.0610 ca        1 24U     -0.088500
     24 H17         1.8570    1.8190   -0.7110 hc        1 24U      0.052033
     25 H17A        2.2900    0.8630   -2.1870 hc        1 24U      0.052033
     26 H17B        1.3090    0.0990   -0.8690 hc        1 24U      0.052033
     27 H33         4.2590    1.0500   -0.6600 hc        1 24U      0.055200
     28 H33A        3.7170   -0.6630   -0.8270 hc        1 24U      0.055200
     29 H15         2.9470    1.2530    1.4890 hc        1 24U      0.091700
     30 H15A        2.4290   -0.4800    1.3270 hc        1 24U      0.091700
     31 H1          6.3700    0.3150    3.5690 h1        1 24U      0.116700
     32 H2          5.5920    0.6890    5.7190 hc        1 24U      0.092200
     33 H2A         5.7060   -1.0830    6.0630 hc        1 24U      0.092200
     34 H3          3.3820   -1.3210    5.9370 hc        1 24U      0.087700
     35 H3A         3.2750    0.4800    5.8820 hc        1 24U      0.087700
     36 H4          2.7040    0.4310    3.6300 h1        1 24U      0.076200
     37 H4A         2.6540   -1.3900    3.7220 h1        1 24U      0.076200
     38 HN23        5.7720   -2.8260    2.2430 hn        1 24U      0.483300
     39 H24         7.7390   -4.0840    3.2990 hx        1 24U      0.123700
     40 H24A        7.3920   -4.1870    1.5000 hx        1 24U      0.123700
     41 H26         8.7490   -2.8520   -0.1210 ha        1 24U      0.174500
     42 H27        11.0610   -2.1260   -0.6380 ha        1 24U      0.167000
     43 HN47       12.8810    0.2190    0.7460 hn        1 24U      0.497400
     44 HN46       14.0290   -3.2460    2.1440 hn        1 24U      0.477467
     45 HN4A       15.0540   -2.4590    1.0720 hn        1 24U      0.477467
     46 H29        12.0520   -2.2850    3.5960 ha        1 24U      0.167000
     47 H30         9.7290   -3.0020    4.1090 ha        1 24U      0.174500
     48 H232        6.8720   -1.6720    1.7600 hn        1 24U      0.483300
     49 H463       13.8810   -3.5100    0.4970 hn        1 24U      0.477467
@<TRIPOS>BOND
     1    1    2 1   
     2    1   24 1   
     3    1   25 1   
     4    1   26 1   
     5    2    3 1   
     6    2   27 1   
     7    2   28 1   
     8    3    4 1   
     9    3   29 1   
    10    3   30 1   
    11    4    5 2   
    12    4    6 1   
    13    6    7 1   
    14    6   12 1   
    15    7    8 1   
    16    7   10 1   
    17    7   31 1   
    18    8    9 2   
    19    8   13 1   
    20   10   11 1   
    21   10   32 1   
    22   10   33 1   
    23   11   12 1   
    24   11   34 1   
    25   11   35 1   
    26   12   36 1   
    27   12   37 1   
    28   13   14 1   
    29   13   38 1   
    30   13   48 1   
    31   14   15 1   
    32   14   39 1   
    33   14   40 1   
    34   15   16 ar  
    35   15   23 ar  
    36   16   17 ar  
    37   16   41 1   
    38   17   18 ar  
    39   17   42 1   
    40   18   19 1   
    41   18   22 ar  
    42   19   20 2   
    43   19   21 1   
    44   20   43 1   
    45   21   44 1   
    46   21   45 1   
    47   21   49 1   
    48   22   23 ar  
    49   22   46 1   
    50   23   47 1   
@<TRIPOS>SUBSTRUCTURE
     1 24U         1 TEMP              0 ****  ****    0 ROOT
