@<TRIPOS>MOLECULE
24U
   47    44     1     0     0
SMALL
bcc


@<TRIPOS>ATOM
      1 C17        -6.2120   -2.3280   -0.9150 c3        1 24U     -0.213000
      2 C33        -4.7440   -1.8680   -0.9000 c3        1 24U     -0.155000
      3 C15        -4.2280   -1.8480    0.5470 c3        1 24U     -0.172000
      4 C14        -2.7820   -1.3230    0.5710 c1        1 24U      0.309000
      5 O32        -2.1870   -1.1430   -0.4670 o         1 24U     -0.389000
      6 N1         -2.1300   -1.0590    1.8320 n2        1 24U     -0.323000
      7 C1         -0.8980   -0.6210    1.9990 c3        1 24U      0.007000
      8 C7          0.0760   -1.0330    0.8770 c2        1 24U      0.296000
      9 O22         0.1330   -2.1900    0.5190 o         1 24U     -0.379000
     10 C2         -0.5210   -1.2350    3.4850 c3        1 24U     -0.167000
     11 C3         -1.8220   -1.7270    4.0810 c3        1 24U     -0.169000
     12 C4         -2.7730   -1.2430    3.3030 c3        1 24U     -0.028000
     13 N23         0.9490   -0.0450    0.2780 n         1 24U     -0.362000
     14 C24         1.5750   -0.3120   -0.9970 c3        1 24U      0.003000
     15 C25         2.6180    0.7760   -1.2920 c2        1 24U     -0.094000
     16 C26         2.2060    2.0780   -1.5430 c2        1 24U     -0.128000
     17 C27         3.1330    3.0380   -1.9250 c1        1 24U     -0.096000
     18 C28         4.4690    2.6970   -2.0570 c1        1 24U     -0.113000
     19 C21         5.4840    3.7480   -2.5010 c2        1 24U      0.115000
     20 N47         6.1610    4.4300   -1.6020 n1        1 24U     -0.303000
     21 N46         5.6990    3.9920   -3.8980 n3        1 24U     -0.332000
     22 C29         4.8820    1.3950   -1.8060 c1        1 24U     -0.116000
     23 C30         3.9550    0.4350   -1.4240 c1        1 24U     -0.117000
     24 H17        -6.7790   -1.6220   -0.5470 hc        1 24U      0.074667
     25 H17A       -6.4870   -2.5200   -1.8440 hc        1 24U      0.074667
     26 H17B       -6.3060   -3.1340   -0.3750 hc        1 24U      0.074667
     27 H33        -4.2020   -2.4870   -1.4310 hc        1 24U      0.098000
     28 H33A       -4.6800   -0.9680   -1.2820 hc        1 24U      0.098000
     29 H15        -4.2520   -2.7550    0.9140 hc        1 24U      0.105500
     30 H15A       -4.7980   -1.2610    1.0890 hc        1 24U      0.105500
     31 H1         -0.8400    0.3590    1.9710 h1        1 24U      0.123000
     32 H2          0.1070   -1.9760    3.3920 hc        1 24U      0.114500
     33 H2A        -0.1360   -0.5380    4.0480 hc        1 24U      0.114500
     34 H3         -1.8460   -2.7040    4.0790 hc        1 24U      0.096500
     35 H3A        -1.9250   -1.3870    4.9950 hc        1 24U      0.096500
     36 H4         -3.0790   -0.3790    3.6460 h1        1 24U      0.085500
     37 H4A        -3.5250   -1.8730    3.2630 h1        1 24U      0.085500
     38 HN23        1.0680    0.7650    0.6840 hn        1 24U      0.249000
     39 H24         2.0150   -1.1880   -0.9680 h1        1 24U      0.109000
     40 H24A        0.8930   -0.3120   -1.7030 h1        1 24U      0.109000
     41 H26         1.2630    2.3190   -1.4510 ha        1 24U      0.140000
     42 H27         2.8420    3.9570   -2.1030 ha        1 24U      0.150000
     43 HN47        6.0230    4.2740   -0.7080 DU        1 24U      0.151000
     44 HN46        5.3150    3.4420   -4.5240 hn        1 24U      0.192500
     45 HN4A        6.2090    4.7010   -4.1640 hn        1 24U      0.192500
     46 H29         5.8270    1.1550   -1.8990 ha        1 24U      0.139000
     47 H30         4.2460   -0.4820   -1.2470 ha        1 24U      0.144000
@<TRIPOS>BOND
     1    1    2 1   
     2    1   24 1   
     3    1   25 1   
     4    1   26 1   
     5    2    3 1   
     6    2   27 1   
     7    2   28 1   
     8    3    4 1   
     9    3   29 1   
    10    3   30 1   
    11    4    5 1   
    12    6    7 1   
    13    6   12 1   
    14    7    8 1   
    15    7   10 1   
    16    7   31 1   
    17    8    9 1   
    18    8   13 1   
    19   10   11 1   
    20   10   32 1   
    21   10   33 1   
    22   11   12 1   
    23   11   34 1   
    24   11   35 1   
    25   12   36 1   
    26   12   37 1   
    27   13   14 1   
    28   13   38 1   
    29   14   15 1   
    30   14   39 1   
    31   14   40 1   
    32   15   16 1   
    33   15   23 1   
    34   16   17 1   
    35   16   41 1   
    36   17   42 1   
    37   18   19 1   
    38   18   22 1   
    39   19   20 1   
    40   19   21 1   
    41   21   44 1   
    42   21   45 1   
    43   22   46 1   
    44   23   47 1   
@<TRIPOS>SUBSTRUCTURE
     1 24U         1 TEMP              0 ****  ****    0 ROOT
