@<TRIPOS>MOLECULE
24U
   49    50     1     0     0
SMALL
bcc


@<TRIPOS>ATOM
      1 C17         2.1060    0.7660   -1.0420 c3        1 24U     -0.102100
      2 C33         3.3890    0.3090   -0.3960 c3        1 24U     -0.073400
      3 C15         3.2350    0.2390    1.1100 c3        1 24U     -0.145400
      4 C14         4.5260   -0.1630    1.7780 c         1 24U      0.677100
      5 O32         5.6260   -0.2100    1.1800 o         1 24U     -0.660100
      6 N1          4.5120   -0.5720    3.1180 n         1 24U     -0.491800
      7 C1          5.7170   -0.5020    3.9200 c3        1 24U      0.042700
      8 C7          6.6170   -1.7450    3.8320 c         1 24U      0.536100
      9 O22         7.3240   -2.1970    4.7180 o         1 24U     -0.428100
     10 C2          5.2940   -0.2720    5.3930 c3        1 24U     -0.085400
     11 C3          3.7730   -0.3600    5.4170 c3        1 24U     -0.098400
     12 C4          3.3190   -0.4530    3.9530 c3        1 24U      0.071000
     13 N23         6.6960   -2.4170    2.4790 ny        1 24U     -0.682800
     14 C24         7.7240   -3.4920    2.3560 c3        1 24U      0.152100
     15 C25         9.0920   -2.9810    2.0250 ca        1 24U     -0.113300
     16 C26         9.4500   -2.7480    0.6930 ca        1 24U     -0.088500
     17 C27        10.7510   -2.3530    0.3760 ca        1 24U     -0.088000
     18 C28        11.6940   -2.1930    1.3970 ca        1 24U     -0.223900
     19 C21        13.0610   -1.7270    1.0600 ce        1 24U      0.572800
     20 N47        13.4960   -0.5780    0.7200 n2        1 24U     -0.679100
     21 N46        14.0790   -2.8320    1.1450 nz        1 24U     -0.821600
     22 C29        11.3390   -2.4160    2.7320 ca        1 24U     -0.088000
     23 C30        10.0360   -2.8070    3.0440 ca        1 24U     -0.088500
     24 H17         2.2330    0.8070   -2.1510 hc        1 24U      0.052033
     25 H17A        1.8210    1.7850   -0.6840 hc        1 24U      0.052033
     26 H17B        1.2690    0.0630   -0.8090 hc        1 24U      0.052033
     27 H33         3.6770   -0.7010   -0.7890 hc        1 24U      0.055200
     28 H33A        4.2230    1.0140   -0.6540 hc        1 24U      0.055200
     29 H15         2.4190   -0.4840    1.3800 hc        1 24U      0.091700
     30 H15A        2.9410    1.2500    1.5090 hc        1 24U      0.091700
     31 H1          6.3910    0.3370    3.5560 h1        1 24U      0.116700
     32 H2          5.6420    0.7440    5.7110 hc        1 24U      0.092200
     33 H2A         5.7580   -1.0230    6.0790 hc        1 24U      0.092200
     34 H3          3.3270    0.5410    5.9080 hc        1 24U      0.087700
     35 H3A         3.4330   -1.2600    5.9880 hc        1 24U      0.087700
     36 H4          2.7260    0.4590    3.6650 h1        1 24U      0.076200
     37 H4A         2.6750   -1.3600    3.7840 h1        1 24U      0.076200
     38 HN23        6.8650   -1.6760    1.7700 hn        1 24U      0.483300
     39 H24         7.7510   -4.0670    3.3310 hx        1 24U      0.123700
     40 H24A        7.3790   -4.1950    1.5390 hx        1 24U      0.123700
     41 H26         8.7150   -2.8840   -0.1190 ha        1 24U      0.174500
     42 H27        11.0210   -2.1670   -0.6780 ha        1 24U      0.167000
     43 HN47       12.8630    0.1930    0.6510 hn        1 24U      0.497400
     44 HN46       15.0370   -2.4840    0.9820 hn        1 24U      0.477467
     45 HN4A       13.8550   -3.5400    0.4360 hn        1 24U      0.477467
     46 H29        12.0700   -2.2710    3.5450 ha        1 24U      0.167000
     47 H30         9.7530   -2.9780    4.0990 ha        1 24U      0.174500
     48 H232        5.7710   -2.8220    2.2840 hn        1 24U      0.483300
     49 H463       14.0250   -3.2550    2.0780 hn        1 24U      0.477467
@<TRIPOS>BOND
     1    1    2 1   
     2    1   24 1   
     3    1   25 1   
     4    1   26 1   
     5    2    3 1   
     6    2   27 1   
     7    2   28 1   
     8    3    4 1   
     9    3   29 1   
    10    3   30 1   
    11    4    5 2   
    12    4    6 1   
    13    6    7 1   
    14    6   12 1   
    15    7    8 1   
    16    7   10 1   
    17    7   31 1   
    18    8    9 2   
    19    8   13 1   
    20   10   11 1   
    21   10   32 1   
    22   10   33 1   
    23   11   12 1   
    24   11   34 1   
    25   11   35 1   
    26   12   36 1   
    27   12   37 1   
    28   13   14 1   
    29   13   38 1   
    30   13   48 1   
    31   14   15 1   
    32   14   39 1   
    33   14   40 1   
    34   15   16 ar  
    35   15   23 ar  
    36   16   17 ar  
    37   16   41 1   
    38   17   18 ar  
    39   17   42 1   
    40   18   19 1   
    41   18   22 ar  
    42   19   20 2   
    43   19   21 1   
    44   20   43 1   
    45   21   44 1   
    46   21   45 1   
    47   21   49 1   
    48   22   23 ar  
    49   22   46 1   
    50   23   47 1   
@<TRIPOS>SUBSTRUCTURE
     1 24U         1 TEMP              0 ****  ****    0 ROOT
