@<TRIPOS>MOLECULE
24U
   49    50     1     0     0
SMALL
bcc


@<TRIPOS>ATOM
      1 C17         2.0880    0.5870   -1.1270 c3        1 24U     -0.102100
      2 C33         3.3750    0.1680   -0.4620 c3        1 24U     -0.073400
      3 C15         3.2240    0.1690    1.0460 c3        1 24U     -0.145400
      4 C14         4.5180   -0.1930    1.7290 c         1 24U      0.677100
      5 O32         5.6170   -0.2630    1.1320 o         1 24U     -0.660100
      6 N1          4.5090   -0.5390    3.0870 n         1 24U     -0.491800
      7 C1          5.7150   -0.4230    3.8830 c3        1 24U      0.042700
      8 C7          6.6220   -1.6650    3.8520 c         1 24U      0.536100
      9 O22         7.3330   -2.0700    4.7570 o         1 24U     -0.428100
     10 C2          5.2930   -0.1270    5.3440 c3        1 24U     -0.085400
     11 C3          3.7720   -0.2230    5.3750 c3        1 24U     -0.098400
     12 C4          3.3160   -0.3880    3.9180 c3        1 24U      0.071000
     13 N23         6.7030   -2.3990    2.5320 n4        1 24U     -0.682800
     14 C24         7.7360   -3.4730    2.4580 c3        1 24U      0.152100
     15 C25         9.1020   -2.9720    2.1030 ca        1 24U     -0.113300
     16 C26         9.4590   -2.8010    0.7600 ca        1 24U     -0.088500
     17 C27        10.7570   -2.4140    0.4240 ca        1 24U     -0.088000
     18 C28        11.7000   -2.2010    1.4360 ca        1 24U     -0.223900
     19 C21        13.0640   -1.7450    1.0770 ce        1 24U      0.572800
     20 N47        13.4930   -0.6120    0.6800 n2        1 24U     -0.679100
     21 N46        14.0880   -2.8390    1.2170 n4        1 24U     -0.821600
     22 C29        11.3460   -2.3620    2.7810 ca        1 24U     -0.088000
     23 C30        10.0450   -2.7430    3.1120 ca        1 24U     -0.088500
     24 H17         2.2140    0.5760   -2.2370 hc        1 24U      0.052033
     25 H17A        1.7980    1.6200   -0.8170 hc        1 24U      0.052033
     26 H17B        1.2560   -0.1090   -0.8600 hc        1 24U      0.052033
     27 H33         3.6690   -0.8580   -0.8080 hc        1 24U      0.055200
     28 H33A        4.2050    0.8650   -0.7550 hc        1 24U      0.055200
     29 H15         2.9240    1.1960    1.3970 hc        1 24U      0.091700
     30 H15A        2.4130   -0.5460    1.3510 hc        1 24U      0.091700
     31 H1          6.3830    0.4010    3.4780 h1        1 24U      0.116700
     32 H2          5.6360    0.9050    5.6130 hc        1 24U      0.092200
     33 H2A         5.7630   -0.8420    6.0640 hc        1 24U      0.092200
     34 H3          3.3220    0.6980    5.8240 hc        1 24U      0.087700
     35 H3A         3.4380   -1.0970    5.9890 hc        1 24U      0.087700
     36 H4          2.6780   -1.3060    3.7940 h1        1 24U      0.076200
     37 H4A         2.7170    0.5070    3.5880 h1        1 24U      0.076200
     38 HN23        5.7800   -2.8170    2.3570 hn        1 24U      0.483300
     39 H24         7.3950   -4.2150    1.6760 hx        1 24U      0.123700
     40 H24A        7.7670   -4.0010    3.4590 hx        1 24U      0.123700
     41 H26         8.7240   -2.9790   -0.0430 ha        1 24U      0.174500
     42 H27        11.0260   -2.2790   -0.6370 ha        1 24U      0.167000
     43 HN47       12.8550    0.1510    0.5720 hn        1 24U      0.497400
     44 HN46       14.0370   -3.2150    2.1700 hn        1 24U      0.477467
     45 HN4A       13.8680   -3.5830    0.5450 hn        1 24U      0.477467
     46 H29        12.0760   -2.1740    3.5850 ha        1 24U      0.167000
     47 H30         9.7630   -2.8650    4.1740 ha        1 24U      0.174500
     48 H232        6.8680   -1.6910    1.7890 hn        1 24U      0.483300
     49 H463       15.0440   -2.4950    1.0370 hn        1 24U      0.477467
@<TRIPOS>BOND
     1    1    2 1   
     2    1   24 1   
     3    1   25 1   
     4    1   26 1   
     5    2    3 1   
     6    2   27 1   
     7    2   28 1   
     8    3    4 1   
     9    3   29 1   
    10    3   30 1   
    11    4    5 2   
    12    4    6 1   
    13    6    7 1   
    14    6   12 1   
    15    7    8 1   
    16    7   10 1   
    17    7   31 1   
    18    8    9 2   
    19    8   13 1   
    20   10   11 1   
    21   10   32 1   
    22   10   33 1   
    23   11   12 1   
    24   11   34 1   
    25   11   35 1   
    26   12   36 1   
    27   12   37 1   
    28   13   14 1   
    29   13   38 1   
    30   13   48 1   
    31   14   15 1   
    32   14   39 1   
    33   14   40 1   
    34   15   16 ar  
    35   15   23 ar  
    36   16   17 ar  
    37   16   41 1   
    38   17   18 ar  
    39   17   42 1   
    40   18   19 1   
    41   18   22 ar  
    42   19   20 2   
    43   19   21 1   
    44   20   43 1   
    45   21   44 1   
    46   21   45 1   
    47   21   49 1   
    48   22   23 ar  
    49   22   46 1   
    50   23   47 1   
@<TRIPOS>SUBSTRUCTURE
     1 24U         1 TEMP              0 ****  ****    0 ROOT
