@<TRIPOS>MOLECULE
24U
   47    48     1     0     0
SMALL
bcc


@<TRIPOS>ATOM
      1 C17        -6.2560   -2.5240   -0.6800 c3        1 24U     -0.095100
      2 C33        -4.8350   -2.0310   -0.7510 c3        1 24U     -0.076400
      3 C15        -4.7540   -0.5520   -0.4350 c3        1 24U     -0.143400
      4 C14        -3.3320   -0.0450   -0.5610 c         1 24U      0.664100
      5 O32        -2.4380   -0.7130   -1.1230 o         1 24U     -0.624100
      6 N1         -3.0230    1.1830    0.0030 n         1 24U     -0.465800
      7 C1         -1.7440    1.8430   -0.2310 c3        1 24U      0.033700
      8 C7         -0.6530    1.4130    0.7800 c         1 24U      0.651100
      9 O22        -0.0660    2.2520    1.4930 o         1 24U     -0.625100
     10 C2         -2.0010    3.3640   -0.1510 c3        1 24U     -0.088400
     11 C3         -3.4230    3.5370    0.3680 c3        1 24U     -0.090400
     12 C4         -4.0370    2.1290    0.4320 c3        1 24U      0.088000
     13 N23        -0.3680    0.0690    0.8540 n         1 24U     -0.549900
     14 C24         0.7030   -0.4390    1.6690 c3        1 24U      0.131300
     15 C25         2.0380   -0.5240    0.9810 ca        1 24U     -0.108300
     16 C26         2.5820   -1.7620    0.6320 ca        1 24U     -0.124000
     17 C27         3.8350   -1.8330    0.0240 ca        1 24U     -0.104000
     18 C28         4.5500   -0.6600   -0.2370 ca        1 24U     -0.139900
     19 C21         5.8980   -0.7410   -0.8850 ce        1 24U      0.651800
     20 N47         6.0260   -1.4530   -1.9640 n2        1 24U     -0.826100
     21 N46         6.8890    0.0500   -0.2610 nh        1 24U     -0.959800
     22 C29         4.0030    0.5830    0.0990 ca        1 24U     -0.104000
     23 C30         2.7510    0.6490    0.7070 ca        1 24U     -0.124000
     24 H17        -6.6820   -2.3640    0.3400 hc        1 24U      0.035367
     25 H17A       -6.9000   -1.9850   -1.4170 hc        1 24U      0.035367
     26 H17B       -6.2950   -3.6160   -0.9110 hc        1 24U      0.035367
     27 H33        -4.4110   -2.2150   -1.7740 hc        1 24U      0.059200
     28 H33A       -4.1930   -2.6000   -0.0270 hc        1 24U      0.059200
     29 H15        -5.1410   -0.3620    0.6010 hc        1 24U      0.065700
     30 H15A       -5.3960    0.0270   -1.1520 hc        1 24U      0.065700
     31 H1         -1.3570    1.5610   -1.2560 h1        1 24U      0.084700
     32 H2         -1.2600    3.8580    0.5270 hc        1 24U      0.074700
     33 H2A        -1.8910    3.8100   -1.1700 hc        1 24U      0.074700
     34 H3         -3.4210    4.0020    1.3840 hc        1 24U      0.056700
     35 H3A        -4.0220    4.1920   -0.3100 hc        1 24U      0.056700
     36 H4         -4.9460    2.0620   -0.2270 h1        1 24U      0.046200
     37 H4A        -4.3500    1.8780    1.4840 h1        1 24U      0.046200
     38 HN23       -0.7270   -0.5370    0.1470 hn        1 24U      0.338500
     39 H24         0.8120    0.2320    2.5720 h1        1 24U      0.066200
     40 H24A        0.4000   -1.4660    2.0220 h1        1 24U      0.066200
     41 H26         2.0210   -2.6880    0.8330 ha        1 24U      0.146000
     42 H27         4.2530   -2.8100   -0.2630 ha        1 24U      0.145500
     43 HN47        6.9370   -1.4860   -2.3690 hn        1 24U      0.381400
     44 HN46        6.6960    0.3150    0.6760 hn        1 24U      0.398800
     45 HN4A        7.8350   -0.2030   -0.4290 hn        1 24U      0.398800
     46 H29         4.5500    1.5110   -0.1260 ha        1 24U      0.145500
     47 H30         2.3100    1.6240    0.9750 ha        1 24U      0.146000
@<TRIPOS>BOND
     1    1    2 1   
     2    1   24 1   
     3    1   25 1   
     4    1   26 1   
     5    2    3 1   
     6    2   27 1   
     7    2   28 1   
     8    3    4 1   
     9    3   29 1   
    10    3   30 1   
    11    4    5 2   
    12    4    6 1   
    13    6    7 1   
    14    6   12 1   
    15    7    8 1   
    16    7   10 1   
    17    7   31 1   
    18    8    9 2   
    19    8   13 1   
    20   10   11 1   
    21   10   32 1   
    22   10   33 1   
    23   11   12 1   
    24   11   34 1   
    25   11   35 1   
    26   12   36 1   
    27   12   37 1   
    28   13   14 1   
    29   13   38 1   
    30   14   15 1   
    31   14   39 1   
    32   14   40 1   
    33   15   16 ar  
    34   15   23 ar  
    35   16   17 ar  
    36   16   41 1   
    37   17   18 ar  
    38   17   42 1   
    39   18   19 1   
    40   18   22 ar  
    41   19   20 2   
    42   19   21 1   
    43   20   43 1   
    44   21   44 1   
    45   21   45 1   
    46   22   23 ar  
    47   22   46 1   
    48   23   47 1   
@<TRIPOS>SUBSTRUCTURE
     1 24U         1 TEMP              0 ****  ****    0 ROOT
