@<TRIPOS>MOLECULE
24V
   57    62     1     0     0
SMALL
bcc


@<TRIPOS>ATOM
      1 N1          0.1160    0.1870   -0.1740 nb        1 24V     -0.651000
      2 C10         4.4880   -0.4770    0.6510 c3        1 24V      0.067000
      3 C13         6.5270   -1.8230    0.5170 c3        1 24V     -0.077400
      4 C17         4.9950   -0.2610    8.9860 ca        1 24V      0.358200
      5 C20         5.9540    2.0760    7.9160 ca        1 24V     -0.175300
      6 C21         4.9290   -0.6730   11.7850 c3        1 24V      0.185300
      7 C22         5.0890   -0.7910   13.3150 c3        1 24V      0.159300
      8 C24         4.6420    1.7290   12.0140 c3        1 24V      0.185300
      9 C02         1.4320   -0.0440   -0.0450 ca        1 24V      0.384200
     10 C03         2.1110    0.2100    1.1650 ca        1 24V     -0.128500
     11 C04         1.3600    0.7330    2.2900 cp        1 24V     -0.014000
     12 C05        -0.0010    0.9650    2.1350 ca        1 24V     -0.201300
     13 C06         2.3010    0.8890    3.3660 cp        1 24V     -0.358600
     14 C07         2.2610    1.3220    4.6950 ca        1 24V      0.512200
     15 N01         3.3480    1.3530    5.4750 nb        1 24V     -0.733000
     16 C08         4.5520    0.9340    4.9090 ca        1 24V      0.881900
     17 N02         4.7290    0.4580    3.6200 nb        1 24V     -0.764000
     18 C09         3.6030    0.4550    2.8600 ca        1 24V      0.540800
     19 N03         3.4660    0.0510    1.5180 na        1 24V     -0.162000
     20 C11         5.6690    0.4790    0.3770 c3        1 24V     -0.093900
     21 C12         6.8590   -0.4100    0.0510 c3        1 24V     -0.077400
     22 C14         5.1350   -1.7960    1.1290 c3        1 24V     -0.093900
     23 N04         5.7360    1.0880    5.6870 nu        1 24V     -0.781600
     24 C16         5.5900    0.9670    7.1120 ca        1 24V      0.552200
     25 N05         5.1150   -0.1910    7.6580 nb        1 24V     -0.657000
     26 C18         5.3400    0.7940    9.8870 ca        1 24V      0.034300
     27 C19         5.8320    1.9810    9.2980 ca        1 24V     -0.137000
     28 N06         5.2900    0.6450   11.2880 nh        1 24V     -0.630000
     29 N07         4.4370    0.2840   14.0340 n7        1 24V     -0.820200
     30 C23         4.8050    1.5960   13.5430 c3        1 24V      0.159300
     31 C2         -0.5690    0.6740    0.8820 ca        1 24V      0.367200
     32 H1          3.9790   -0.6850   -0.3390 h1        1 24V      0.061700
     33 H2          6.5610   -2.5340   -0.3460 hc        1 24V      0.044700
     34 H3          7.2750   -2.1780    1.2700 hc        1 24V      0.044700
     35 H5          6.3270    3.0020    7.4550 ha        1 24V      0.156000
     36 H6          3.8660   -0.9390   11.5120 h1        1 24V      0.046950
     37 H7          5.6180   -1.4280   11.3120 h1        1 24V      0.046950
     38 H8          4.6080   -1.7580   13.6350 h1        1 24V      0.038450
     39 H9          6.1920   -0.8570   13.5520 h1        1 24V      0.038450
     40 H10         3.5410    1.7750   11.7700 h1        1 24V      0.046950
     41 H11         5.1100    2.7050   11.7070 h1        1 24V      0.046950
     42 H12         1.9460   -0.4410   -0.9360 h4        1 24V      0.025100
     43 H13        -0.6130    1.3600    2.9560 ha        1 24V      0.147000
     44 H14         1.3190    1.6600    5.1650 h4        1 24V      0.031100
     45 H15         5.4240    1.1620   -0.4730 hc        1 24V      0.059950
     46 H16         5.8950    1.1150    1.2690 hc        1 24V      0.059950
     47 H17         7.0620   -0.4030   -1.0500 hc        1 24V      0.044700
     48 H18         7.7790   -0.0300    0.5610 hc        1 24V      0.044700
     49 H19         5.2020   -1.8350    2.2450 hc        1 24V      0.059950
     50 H20         4.5240   -2.6700    0.7950 hc        1 24V      0.059950
     51 H21         6.5090    0.5460    5.3420 hn        1 24V      0.426800
     52 H22         6.1290    2.8400    9.9180 ha        1 24V      0.144000
     53 H23         4.6350    0.2140   15.0150 hn        1 24V      0.367800
     54 H25         5.8660    1.8720   13.8120 h1        1 24V      0.038450
     55 H26         4.1190    2.3470   14.0260 h1        1 24V      0.038450
     56 H27        -1.6470    0.8400    0.7060 h4        1 24V      0.023100
     57 H4          4.5960   -1.2240    9.3540 h4        1 24V      0.025100
@<TRIPOS>BOND
     1    1    9 ar  
     2    1   31 ar  
     3    2   19 1   
     4    2   20 1   
     5    2   22 1   
     6    2   32 1   
     7    3   21 1   
     8    3   22 1   
     9    3   33 1   
    10    3   34 1   
    11    4   25 ar  
    12    4   26 ar  
    13    4   57 1   
    14    5   24 ar  
    15    5   27 ar  
    16    5   35 1   
    17    6    7 1   
    18    6   28 1   
    19    6   36 1   
    20    6   37 1   
    21    7   29 1   
    22    7   38 1   
    23    7   39 1   
    24    8   28 1   
    25    8   30 1   
    26    8   40 1   
    27    8   41 1   
    28    9   10 ar  
    29    9   42 1   
    30   10   11 ar  
    31   10   19 1   
    32   11   12 ar  
    33   11   13 1   
    34   12   31 ar  
    35   12   43 1   
    36   13   14 ar  
    37   13   18 ar  
    38   14   15 ar  
    39   14   44 1   
    40   15   16 ar  
    41   16   17 ar  
    42   16   23 1   
    43   17   18 ar  
    44   18   19 1   
    45   20   21 1   
    46   20   45 1   
    47   20   46 1   
    48   21   47 1   
    49   21   48 1   
    50   22   49 1   
    51   22   50 1   
    52   23   24 1   
    53   23   51 1   
    54   24   25 ar  
    55   26   27 ar  
    56   26   28 1   
    57   27   52 1   
    58   29   30 1   
    59   29   53 1   
    60   30   54 1   
    61   30   55 1   
    62   31   56 1   
@<TRIPOS>SUBSTRUCTURE
     1 24V         1 TEMP              0 ****  ****    0 ROOT
