@<TRIPOS>MOLECULE
24V
   57    62     1     0     0
SMALL
bcc


@<TRIPOS>ATOM
      1 N1          0.1550    0.3930   -0.2030 nb        1 24V     -0.651000
      2 C10         4.4840   -0.4820    0.6520 c3        1 24V      0.067000
      3 C13         6.4570   -1.9240    0.5320 c3        1 24V     -0.077400
      4 C17         4.9400   -0.2910    8.9890 ca        1 24V      0.358200
      5 C20         6.0280    1.9920    7.9290 ca        1 24V     -0.175300
      6 C21         4.8340   -0.7020   11.7870 c3        1 24V      0.185300
      7 C22         4.9770   -0.8300   13.3190 c3        1 24V      0.159300
      8 C24         4.6730    1.7120   12.0180 c3        1 24V      0.185300
      9 C02         1.4580    0.0990   -0.0650 ca        1 24V      0.384200
     10 C03         2.1400    0.3200    1.1500 ca        1 24V     -0.128500
     11 C04         1.4070    0.8770    2.2700 cp        1 24V     -0.014000
     12 C05         0.0600    1.1750    2.1060 ca        1 24V     -0.201300
     13 C06         2.3470    0.9880    3.3530 cp        1 24V     -0.358600
     14 C07         2.3190    1.4220    4.6810 ca        1 24V      0.512200
     15 N01         3.4010    1.3990    5.4690 nb        1 24V     -0.733000
     16 C08         4.5870    0.9230    4.9110 ca        1 24V      0.882900
     17 N02         4.7500    0.4400    3.6230 nb        1 24V     -0.764000
     18 C09         3.6300    0.4910    2.8550 ca        1 24V      0.540800
     19 N03         3.4830    0.0950    1.5120 na        1 24V     -0.162000
     20 C11         5.7130    0.4160    0.3870 c3        1 24V     -0.093900
     21 C12         6.8600   -0.5300    0.0680 c3        1 24V     -0.077400
     22 C14         5.0640   -1.8300    1.1330 c3        1 24V     -0.093900
     23 N04         5.7720    1.0200    5.6970 nh        1 24V     -0.781600
     24 C16         5.6110    0.9050    7.1210 ca        1 24V      0.552200
     25 N05         5.0720   -0.2270    7.6620 nb        1 24V     -0.657000
     26 C18         5.3340    0.7430    9.8940 ca        1 24V      0.034300
     27 C19         5.8920    1.9030    9.3100 ca        1 24V     -0.137000
     28 N06         5.2680    0.5960   11.2950 nh        1 24V     -0.630000
     29 N07         4.3780    0.2780   14.0350 n3        1 24V     -0.820200
     30 C23         4.8180    1.5690   13.5470 c3        1 24V      0.159300
     31 C2         -0.5130    0.9120    0.8500 ca        1 24V      0.367200
     32 H1          3.9730   -0.6640   -0.3420 h1        1 24V      0.061700
     33 H2          6.4630   -2.6370   -0.3310 hc        1 24V      0.044700
     34 H3          7.1820   -2.3140    1.2900 hc        1 24V      0.044700
     35 H5          6.4520    2.8980    7.4710 ha        1 24V      0.156000
     36 H6          3.7600   -0.9110   11.5070 h1        1 24V      0.046950
     37 H7          5.4850   -1.4920   11.3180 h1        1 24V      0.046950
     38 H8          4.4440   -1.7700   13.6340 h1        1 24V      0.038450
     39 H9          6.0730   -0.9550   13.5620 h1        1 24V      0.038450
     40 H10         3.5780    1.8170   11.7670 h1        1 24V      0.046950
     41 H11         5.1940    2.6610   11.7150 h1        1 24V      0.046950
     42 H12         1.9580   -0.3220   -0.9530 h4        1 24V      0.025100
     43 H13        -0.5380    1.5980    2.9230 ha        1 24V      0.147000
     44 H14         1.3910    1.8040    5.1460 h4        1 24V      0.031100
     45 H15         5.9630    1.0400    1.2810 hc        1 24V      0.059950
     46 H16         5.5060    1.1110   -0.4640 hc        1 24V      0.059950
     47 H17         7.0690   -0.5320   -1.0320 hc        1 24V      0.044700
     48 H18         7.7940   -0.1950    0.5830 hc        1 24V      0.044700
     49 H19         5.1200   -1.8740    2.2500 hc        1 24V      0.059950
     50 H20         4.4130   -2.6730    0.7930 hc        1 24V      0.059950
     51 H21         6.5210    0.4420    5.3570 hn        1 24V      0.426800
     52 H22         6.2300    2.7450    9.9330 ha        1 24V      0.144000
     53 H23         4.5650    0.1960   15.0170 hn        1 24V      0.367800
     54 H25         5.8910    1.7880   13.8240 h1        1 24V      0.038450
     55 H26         4.1700    2.3550   14.0270 h1        1 24V      0.038450
     56 H27        -1.5800    1.1290    0.6660 h4        1 24V      0.023100
     57 H4          4.4890   -1.2320    9.3540 h4        1 24V      0.025100
@<TRIPOS>BOND
     1    1    9 ar  
     2    1   31 ar  
     3    2   19 1   
     4    2   20 1   
     5    2   22 1   
     6    2   32 1   
     7    3   21 1   
     8    3   22 1   
     9    3   33 1   
    10    3   34 1   
    11    4   25 ar  
    12    4   26 ar  
    13    4   57 1   
    14    5   24 ar  
    15    5   27 ar  
    16    5   35 1   
    17    6    7 1   
    18    6   28 1   
    19    6   36 1   
    20    6   37 1   
    21    7   29 1   
    22    7   38 1   
    23    7   39 1   
    24    8   28 1   
    25    8   30 1   
    26    8   40 1   
    27    8   41 1   
    28    9   10 ar  
    29    9   42 1   
    30   10   11 ar  
    31   10   19 1   
    32   11   12 ar  
    33   11   13 1   
    34   12   31 ar  
    35   12   43 1   
    36   13   14 ar  
    37   13   18 ar  
    38   14   15 ar  
    39   14   44 1   
    40   15   16 ar  
    41   16   17 ar  
    42   16   23 1   
    43   17   18 ar  
    44   18   19 1   
    45   20   21 1   
    46   20   45 1   
    47   20   46 1   
    48   21   47 1   
    49   21   48 1   
    50   22   49 1   
    51   22   50 1   
    52   23   24 1   
    53   23   51 1   
    54   24   25 ar  
    55   26   27 ar  
    56   26   28 1   
    57   27   52 1   
    58   29   30 1   
    59   29   53 1   
    60   30   54 1   
    61   30   55 1   
    62   31   56 1   
@<TRIPOS>SUBSTRUCTURE
     1 24V         1 TEMP              0 ****  ****    0 ROOT
