@<TRIPOS>MOLECULE
24V
   58    63     1     0     0
SMALL
bcc


@<TRIPOS>ATOM
      1 N1          0.7200    1.6840   -0.0450 nb        1 24V     -0.618000
      2 C10         4.7470    0.7360    1.7200 c3        1 24V      0.050000
      3 C13         7.1040    0.1220    1.5000 c3        1 24V     -0.081400
      4 C17         4.1150   -1.1320    9.3420 ca        1 24V      0.342200
      5 C20         5.4320   -0.6380    6.9700 ca        1 24V     -0.120300
      6 C21         4.5160    0.5490   11.6050 c3        1 24V      0.199800
      7 C22         5.0140    1.2800   12.8670 c3        1 24V      0.155300
      8 C24         6.1630    1.8980   10.2860 c3        1 24V      0.199800
      9 C02         1.9670    1.4820    0.3990 ca        1 24V      0.406200
     10 C03         2.2240    0.6460    1.5110 ca        1 24V     -0.128500
     11 C04         1.1080    0.0050    2.1710 cp        1 24V     -0.044000
     12 C05        -0.1800    0.2290    1.6940 ca        1 24V     -0.181300
     13 C06         1.6650   -0.7700    3.2490 cp        1 24V     -0.267600
     14 C07         1.1700   -1.6100    4.2450 ca        1 24V      0.504200
     15 N01         1.9840   -2.2110    5.1380 nb        1 24V     -0.690000
     16 C08         3.3250   -1.9450    5.0090 ca        1 24V      0.732900
     17 N02         3.9690   -1.1560    4.0940 nb        1 24V     -0.706000
     18 C09         3.1240   -0.5630    3.2000 ca        1 24V      0.517800
     19 N03         3.4370    0.2970    2.1440 na        1 24V     -0.130000
     20 C11         5.5430    1.5330    2.7760 c3        1 24V     -0.090900
     21 C12         7.0100    1.3240    2.4320 c3        1 24V     -0.081400
     22 C14         5.6940   -0.3920    1.2550 c3        1 24V     -0.090900
     23 N04         4.2160   -2.6070    6.0200 n4        1 24V     -0.700400
     24 C16         4.5130   -1.6960    7.1420 ca        1 24V      0.340200
     25 N05         3.8510   -1.9260    8.3160 nb        1 24V     -0.594000
     26 C18         5.0640   -0.0360    9.3080 ca        1 24V      0.142300
     27 C19         5.7000    0.1870    8.0520 ca        1 24V     -0.198000
     28 N06         5.3590    0.6970   10.4310 nh        1 24V     -0.621000
     29 N07         5.5180    2.6040   12.5790 n3        1 24V     -0.820200
     30 C23         6.5890    2.5640   11.6100 c3        1 24V      0.155300
     31 C2         -0.3140    1.0780    0.5830 ca        1 24V      0.390200
     32 H1          4.5680    1.4210    0.8350 h1        1 24V      0.081700
     33 H2          7.7400   -0.6810    1.9490 hc        1 24V      0.054450
     34 H3          7.5830    0.4190    0.5320 hc        1 24V      0.054450
     35 H6          3.4760    0.9140   11.3600 h1        1 24V      0.058700
     36 H7          4.4600   -0.5470   11.8690 h1        1 24V      0.058700
     37 H8          5.7870    0.6270   13.3710 h1        1 24V      0.053200
     38 H9          4.1360    1.3810   13.5660 h1        1 24V      0.053200
     39 H10         7.1120    1.6270    9.7390 h1        1 24V      0.058700
     40 H11         5.5930    2.6500    9.6670 h1        1 24V      0.058700
     41 H12         2.7720    2.0010   -0.1500 h4        1 24V      0.042100
     42 H13        -1.0590   -0.2350    2.1610 ha        1 24V      0.160000
     43 H14         0.0900   -1.8310    4.3570 h4        1 24V      0.065100
     44 H15         5.3310    1.1700    3.8120 hc        1 24V      0.057950
     45 H16         5.2630    2.6150    2.7340 hc        1 24V      0.057950
     46 H17         7.4260    2.2350    1.9330 hc        1 24V      0.054450
     47 H18         7.6070    1.1540    3.3620 hc        1 24V      0.054450
     48 H19         5.5240   -0.6190    0.1740 hc        1 24V      0.057950
     49 H20         5.5200   -1.3360    1.8290 hc        1 24V      0.057950
     50 H21         3.7440   -3.4580    6.3690 hn        1 24V      0.479800
     51 H22         6.4080    1.0180    7.9120 ha        1 24V      0.165000
     52 H23         5.8080    3.0700   13.4180 hn        1 24V      0.390800
     53 H25         7.5020    2.0230   11.9990 h1        1 24V      0.053200
     54 H26         6.8890    3.6230   11.3710 h1        1 24V      0.053200
     55 H27        -1.3120    1.2940    0.1570 h4        1 24V      0.046100
     56 H4          3.5380   -1.3670   10.2570 h4        1 24V      0.054100
     57 H042        5.1040   -2.8640    5.5720 hn        1 24V      0.479800
     58 H5          5.9250   -0.4540    6.0020 ha        1 24V      0.167000
@<TRIPOS>BOND
     1    1    9 ar  
     2    1   31 ar  
     3    2   19 1   
     4    2   20 1   
     5    2   22 1   
     6    2   32 1   
     7    3   21 1   
     8    3   22 1   
     9    3   33 1   
    10    3   34 1   
    11    4   25 ar  
    12    4   26 ar  
    13    4   56 1   
    14    5   24 ar  
    15    5   27 ar  
    16    5   58 1   
    17    6    7 1   
    18    6   28 1   
    19    6   35 1   
    20    6   36 1   
    21    7   29 1   
    22    7   37 1   
    23    7   38 1   
    24    8   28 1   
    25    8   30 1   
    26    8   39 1   
    27    8   40 1   
    28    9   10 ar  
    29    9   41 1   
    30   10   11 ar  
    31   10   19 1   
    32   11   12 ar  
    33   11   13 1   
    34   12   31 ar  
    35   12   42 1   
    36   13   14 ar  
    37   13   18 ar  
    38   14   15 ar  
    39   14   43 1   
    40   15   16 ar  
    41   16   17 ar  
    42   16   23 1   
    43   17   18 ar  
    44   18   19 1   
    45   20   21 1   
    46   20   44 1   
    47   20   45 1   
    48   21   46 1   
    49   21   47 1   
    50   22   48 1   
    51   22   49 1   
    52   23   24 1   
    53   23   50 1   
    54   23   57 1   
    55   24   25 ar  
    56   26   27 ar  
    57   26   28 1   
    58   27   51 1   
    59   29   30 1   
    60   29   52 1   
    61   30   53 1   
    62   30   54 1   
    63   31   55 1   
@<TRIPOS>SUBSTRUCTURE
     1 24V         1 TEMP              0 ****  ****    0 ROOT
