@<TRIPOS>MOLECULE
24W
   24    25     1     0     0
SMALL
bcc


@<TRIPOS>ATOM
      1 CAG         0.0030    0.0060   -0.0010 c3        1 24W      0.196100
      2 NAH         1.4480   -0.0820    0.0100 n3        1 24W     -0.823200
      3 CAE         2.0170    0.0080    1.3350 c3        1 24W      0.169800
      4 CAF         1.6820    1.3410    2.0130 c3        1 24W     -0.059100
      5 CAK         0.2630    1.7460    1.8190 ca        1 24W     -0.030300
      6 CAJ        -0.5400    1.1140    0.8560 ca        1 24W     -0.041300
      7 CAD        -1.8720    1.5050    0.6780 ca        1 24W     -0.071000
      8 CAB        -2.4200    2.5310    1.4460 ca        1 24W     -0.099000
      9 CAC        -1.6440    3.1900    2.3950 ca        1 24W     -0.105000
     10 CAI        -0.3070    2.7970    2.5710 ca        1 24W     -0.080400
     11 NAA         0.5160    3.5030    3.5540 n4        1 24W     -0.698000
     12 H1         -0.4950   -0.9530    0.3430 h1        1 24W      0.067200
     13 H2         -0.3080    0.1860   -1.0720 h1        1 24W      0.067200
     14 H3          1.7560   -0.9110   -0.4620 hn        1 24W      0.398800
     15 H5          1.6700   -0.8270    2.0130 h1        1 24W      0.053200
     16 H6          3.1370   -0.0730    1.2370 h1        1 24W      0.053200
     17 H7          2.3480    2.1430    1.5880 hc        1 24W      0.057200
     18 H8          1.9210    1.2290    3.1050 hc        1 24W      0.057200
     19 H9         -2.4910    0.9980   -0.0830 ha        1 24W      0.171000
     20 H10        -3.4720    2.8300    1.3000 ha        1 24W      0.174000
     21 H11        -2.0890    4.0060    2.9860 ha        1 24W      0.155000
     22 H12         1.4080    3.7720    3.1210 hn        1 24W      0.461800
     23 H13         0.7060    2.8840    4.3510 hn        1 24W      0.461800
     24 HAA3        0.0290    4.3430    3.8840 hn        1 24W      0.461800
@<TRIPOS>BOND
     1    1    2 1   
     2    1    6 1   
     3    1   12 1   
     4    1   13 1   
     5    2    3 1   
     6    2   14 1   
     7    3    4 1   
     8    3   15 1   
     9    3   16 1   
    10    4    5 1   
    11    4   17 1   
    12    4   18 1   
    13    5    6 ar  
    14    5   10 ar  
    15    6    7 ar  
    16    7    8 ar  
    17    7   19 1   
    18    8    9 ar  
    19    8   20 1   
    20    9   10 ar  
    21    9   21 1   
    22   10   11 1   
    23   11   22 1   
    24   11   23 1   
    25   11   24 1   
@<TRIPOS>SUBSTRUCTURE
     1 24W         1 TEMP              0 ****  ****    0 ROOT
