@<TRIPOS>MOLECULE
24W
   23    24     1     0     0
SMALL
bcc


@<TRIPOS>ATOM
      1 CAG         0.0120    0.0480   -0.0320 c3        1 24W      0.204100
      2 NAH         1.4520   -0.1140   -0.0140 n3        1 24W     -0.815200
      3 CAE         2.0410    0.0370    1.2990 c3        1 24W      0.166800
      4 CAF         1.7160    1.3810    1.9510 c3        1 24W     -0.025100
      5 CAK         0.2890    1.7720    1.8040 ca        1 24W     -0.121300
      6 CAJ        -0.5190    1.1360    0.8550 ca        1 24W     -0.040300
      7 CAD        -1.8640    1.4910    0.7050 ca        1 24W     -0.171000
      8 CAB        -2.4080    2.4940    1.5010 ca        1 24W     -0.093000
      9 CAC        -1.6230    3.1540    2.4380 ca        1 24W     -0.193000
     10 CAI        -0.2580    2.8200    2.5950 ca        1 24W      0.140600
     11 NAA         0.5440    3.5790    3.4570 nh        1 24W     -0.816200
     12 H1         -0.5260   -0.9080    0.2520 h1        1 24W      0.040700
     13 H2         -0.2700    0.2860   -1.1000 h1        1 24W      0.040700
     14 H3          1.6960   -1.0080   -0.4000 hn        1 24W      0.363800
     15 H5          1.7160   -0.7840    2.0060 h1        1 24W      0.027700
     16 H6          3.1580   -0.0440    1.1780 h1        1 24W      0.027700
     17 H7          2.3580    2.1840    1.4960 hc        1 24W      0.050200
     18 H8          1.9980    1.2930    3.0350 hc        1 24W      0.050200
     19 H9         -2.4840    0.9800   -0.0440 ha        1 24W      0.131000
     20 H10        -3.4660    2.7710    1.3870 ha        1 24W      0.129000
     21 H11        -2.0680    3.9520    3.0490 ha        1 24W      0.130000
     22 H12         0.0360    4.0440    4.1770 hn        1 24W      0.386800
     23 H13         1.3540    3.1090    3.7960 hn        1 24W      0.386800
@<TRIPOS>BOND
     1    1    2 1   
     2    1    6 1   
     3    1   12 1   
     4    1   13 1   
     5    2    3 1   
     6    2   14 1   
     7    3    4 1   
     8    3   15 1   
     9    3   16 1   
    10    4    5 1   
    11    4   17 1   
    12    4   18 1   
    13    5    6 ar  
    14    5   10 ar  
    15    6    7 ar  
    16    7    8 ar  
    17    7   19 1   
    18    8    9 ar  
    19    8   20 1   
    20    9   10 ar  
    21    9   21 1   
    22   10   11 1   
    23   11   22 1   
    24   11   23 1   
@<TRIPOS>SUBSTRUCTURE
     1 24W         1 TEMP              0 ****  ****    0 ROOT
