@<TRIPOS>MOLECULE
24W
   23    24     1     0     0
SMALL
bcc


@<TRIPOS>ATOM
      1 CAG         0.0060    0.0430   -0.0270 c3        1 24W      0.204100
      2 NAH         1.4460   -0.1180   -0.0140 n7        1 24W     -0.815200
      3 CAE         2.0400    0.0380    1.2950 c3        1 24W      0.166800
      4 CAF         1.7180    1.3840    1.9450 c3        1 24W     -0.025100
      5 CAK         0.2890    1.7730    1.8020 ca        1 24W     -0.121300
      6 CAJ        -0.5220    1.1330    0.8590 ca        1 24W     -0.040300
      7 CAD        -1.8670    1.4880    0.7130 ca        1 24W     -0.171000
      8 CAB        -2.4090    2.4930    1.5070 ca        1 24W     -0.093000
      9 CAC        -1.6210    3.1560    2.4390 ca        1 24W     -0.193000
     10 CAI        -0.2550    2.8230    2.5920 ca        1 24W      0.140600
     11 NAA         0.5500    3.5850    3.4480 nv        1 24W     -0.816200
     12 H1         -0.2800    0.2770   -1.0950 h1        1 24W      0.040700
     13 H2         -0.5300   -0.9120    0.2630 h1        1 24W      0.040700
     14 H3          1.6900   -1.0120   -0.3990 hn        1 24W      0.363800
     15 H5          3.1570   -0.0430    1.1710 h1        1 24W      0.027700
     16 H6          1.7200   -0.7810    2.0060 h1        1 24W      0.027700
     17 H7          2.0030    1.2990    3.0280 hc        1 24W      0.050200
     18 H8          2.3570    2.1860    1.4850 hc        1 24W      0.050200
     19 H9         -2.4900    0.9740   -0.0320 ha        1 24W      0.131000
     20 H10        -3.4680    2.7690    1.3970 ha        1 24W      0.129000
     21 H11        -2.0640    3.9560    3.0500 ha        1 24W      0.130000
     22 H12         0.0450    4.0530    4.1690 hn        1 24W      0.386800
     23 H13         1.3610    3.1170    3.7860 hn        1 24W      0.386800
@<TRIPOS>BOND
     1    1    2 1   
     2    1    6 1   
     3    1   12 1   
     4    1   13 1   
     5    2    3 1   
     6    2   14 1   
     7    3    4 1   
     8    3   15 1   
     9    3   16 1   
    10    4    5 1   
    11    4   17 1   
    12    4   18 1   
    13    5    6 ar  
    14    5   10 ar  
    15    6    7 ar  
    16    7    8 ar  
    17    7   19 1   
    18    8    9 ar  
    19    8   20 1   
    20    9   10 ar  
    21    9   21 1   
    22   10   11 1   
    23   11   22 1   
    24   11   23 1   
@<TRIPOS>SUBSTRUCTURE
     1 24W         1 TEMP              0 ****  ****    0 ROOT
