@<TRIPOS>MOLECULE
24X
   63    63     1     0     0
SMALL
bcc


@<TRIPOS>ATOM
      1 N1          0.2320   -0.0530    0.0430 n2        1 24X     -0.313000
      2 C2          1.5630    0.0050    0.0670 c2        1 24X      0.131000
      3 C3          2.3560    0.2340    1.2230 c2        1 24X     -0.289000
      4 C4          1.7460    0.4110    2.4460 c1        1 24X     -0.236000
      5 C5          0.2940    0.3370    2.5450 c3        1 24X     -0.176000
      6 C6         -0.4550    0.1150    1.2350 c2        1 24X      0.164000
      7 C7         -2.5830    0.3010    2.4400 c3        1 24X      0.020000
      8 N2         -1.7990    0.0870    1.2320 n3        1 24X     -0.207000
      9 C8         -4.0580   -2.3600    2.7530 c2        1 24X     -0.322000
     10 C17        -4.8990   -3.5610    3.0530 c3        1 24X      0.022000
     11 C21        -4.1600   -4.7090    3.4980 c1        1 24X      0.002000
     12 C23        -3.5670   -5.6810    3.8710 c1        1 24X     -0.282000
     13 C26        -1.5020   -2.7840    2.8600 c1        1 24X     -0.401000
     14 C29        -2.6830   -2.5580    2.8060 c1        1 24X     -0.014000
     15 C9         -4.1420   -2.2170   -1.2050 c1        1 24X      0.430000
     16 O2         -4.8930   -3.1370   -1.2820 o         1 24X     -0.214000
     17 O1         -3.3880   -1.2980   -1.1760 o         1 24X     -0.214000
     18 C10        -2.8340   -6.8320    4.3010 c2        1 24X      0.434000
     19 N3         -1.4860   -6.6120    4.5650 n         1 24X     -0.368000
     20 O4         -3.3550   -7.9550    4.4730 o         1 24X     -0.381000
     21 C11        -0.5700   -7.6890    4.7970 c3        1 24X     -0.025000
     22 C18         0.3480   -8.0390    3.6120 c3        1 24X     -0.138000
     23 C12         1.2610   -6.8860    3.2600 c3        1 24X     -0.208500
     24 C13         1.1570   -9.2690    3.9680 c3        1 24X     -0.208500
     25 C14         3.8380    0.2700    1.1260 c2        1 24X      0.171000
     26 N4          4.4800    0.9870    2.1720 n3        1 24X     -0.370000
     27 N5          4.4360   -0.2810    0.1040 n2        1 24X     -0.360000
     28 C15        -6.8150   -0.0100    1.9240 ca        1 24X     -0.055000
     29 C19        -6.1520    1.2150    1.6710 ca        1 24X     -0.213000
     30 C22        -4.7660    1.2290    1.8350 ca        1 24X     -0.020000
     31 C24        -4.0430    0.1000    2.2190 ca        1 24X     -0.267000
     32 C27        -4.6910   -1.1570    2.4350 ca        1 24X      0.148000
     33 C30        -6.1240   -1.1350    2.2880 ca        1 24X     -0.244000
     34 C16        -6.4320    3.5830    0.9710 c2        1 24X     -0.297000
     35 HN41        3.8630    1.1860    2.9370 hn        1 24X      0.183500
     36 HN42        5.3390    0.5850    2.4760 hn        1 24X      0.183500
     37 HN5         5.4330   -0.2300    0.1090 hn        1 24X      0.116000
     38 H2          2.0340   -0.1370   -0.9290 h4        1 24X      0.166000
     39 H5          0.0400   -0.5240    3.2350 hc        1 24X      0.150500
     40 H4         -0.0800    1.2790    3.0360 hc        1 24X      0.150500
     41 HN2        -2.2030   -0.3750    3.2600 h1        1 24X      0.097000
     42 H71        -2.3080   -0.1340    0.3960 hn        1 24X      0.266000
     43 H72        -2.3890    1.3660    2.7740 h1        1 24X      0.097000
     44 H22        -4.2210    2.1720    1.6630 ha        1 24X      0.105000
     45 H20        -5.3650    3.8310    0.9960 ha        1 24X      0.097000
     46 H161       -8.0070    2.2040    1.2210 ha        1 24X      0.097000
     47 H162       -7.0900    4.4090    0.6770 ha        1 24X      0.097000
     48 H15        -7.9110   -0.0500    1.8190 ha        1 24X      0.101000
     49 H30        -6.6910   -2.0590    2.4650 ha        1 24X      0.112000
     50 H17        -5.4810   -3.8590    2.1310 hc        1 24X      0.088500
     51 H21        -5.6510   -3.3050    3.8570 hc        1 24X      0.088500
     52 H26        -0.4650   -2.9810    2.8930 ha        1 24X      0.204000
     53 HN3         0.6770   -6.0210    2.8630 hc        1 24X      0.073000
     54 H111       -1.0950   -5.7420    4.2830 hn        1 24X      0.231000
     55 H112        0.0820   -7.4040    5.6740 h1        1 24X      0.095000
     56 H18        -1.1580   -8.6100    5.0780 h1        1 24X      0.095000
     57 H121       -0.2910   -8.2800    2.7160 hc        1 24X      0.099000
     58 H122        1.8310   -6.5460    4.1580 hc        1 24X      0.073000
     59 H123        1.9930   -7.1970    2.4760 hc        1 24X      0.073000
     60 H131        1.8180   -9.5560    3.1150 hc        1 24X      0.073000
     61 H132        1.7990   -9.0720    4.8610 hc        1 24X      0.073000
     62 H133        0.4820  -10.1270    4.1990 hc        1 24X      0.073000
     63 C20        -6.9150    2.3730    1.2720 c2        1 24X     -0.057000
@<TRIPOS>BOND
     1    1    2 1   
     2    1    6 1   
     3    2    3 1   
     4    2   38 1   
     5    3    4 1   
     6    3   25 1   
     7    4    5 1   
     8    5    6 1   
     9    5   39 1   
    10    5   40 1   
    11    6    8 1   
    12    7    8 1   
    13    7   31 1   
    14    7   41 1   
    15    7   43 1   
    16    8   42 1   
    17    9   10 1   
    18    9   14 1   
    19    9   32 1   
    20   10   11 1   
    21   10   50 1   
    22   10   51 1   
    23   11   12 1   
    24   12   18 1   
    25   13   14 1   
    26   13   52 1   
    27   15   16 1   
    28   15   17 1   
    29   18   19 1   
    30   18   20 1   
    31   19   21 1   
    32   19   54 1   
    33   21   22 1   
    34   21   55 1   
    35   21   56 1   
    36   22   23 1   
    37   22   24 1   
    38   22   57 1   
    39   23   53 1   
    40   23   58 1   
    41   23   59 1   
    42   24   60 1   
    43   24   61 1   
    44   24   62 1   
    45   25   26 1   
    46   25   27 1   
    47   26   35 1   
    48   26   36 1   
    49   27   37 1   
    50   28   29 1   
    51   28   33 1   
    52   28   48 1   
    53   29   30 1   
    54   29   63 1   
    55   30   31 1   
    56   30   44 1   
    57   31   32 1   
    58   32   33 1   
    59   33   49 1   
    60   34   45 1   
    61   34   47 1   
    62   34   63 1   
    63   46   63 1   
@<TRIPOS>SUBSTRUCTURE
     1 24X         1 TEMP              0 ****  ****    0 ROOT
