@<TRIPOS>MOLECULE
24X
   63    65     1     0     0
SMALL
bcc


@<TRIPOS>ATOM
      1 N1          8.1320   -2.5770    4.4630 nb        1 24X     -0.717000
      2 C2          7.3710   -3.2790    5.2990 ca        1 24X      0.488200
      3 C3          6.2590   -2.7640    6.0040 ca        1 24X     -0.372200
      4 C4          5.9620   -1.4080    5.8360 ca        1 24X     -0.030000
      5 C5          6.7320   -0.6350    4.9820 ca        1 24X     -0.357300
      6 C6          7.8350   -1.2340    4.2790 ca        1 24X      0.698200
      7 C7          8.3290    0.8890    3.1930 c3        1 24X      0.259100
      8 N2          8.6610   -0.4880    3.4620 nh        1 24X     -0.839900
      9 C8          8.0430    1.1050    0.2630 cp        1 24X     -0.037000
     10 C17         6.8560    1.8530    0.1970 ca        1 24X     -0.142000
     11 C21         5.7350    1.3440   -0.4470 ca        1 24X     -0.138000
     12 C23         5.8000    0.0850   -1.0560 ca        1 24X     -0.157600
     13 C26         6.9840   -0.6520   -1.0170 ca        1 24X     -0.067000
     14 C29         8.1070   -0.1580   -0.3390 ca        1 24X     -0.093600
     15 C9          9.3580   -1.0330   -0.2690 c         1 24X      0.917200
     16 O2          9.6560   -1.5280    0.8550 o         1 24X     -0.812300
     17 O1          9.9970   -1.2240   -1.3340 o         1 24X     -0.812300
     18 C10         4.6060   -0.4810   -1.7430 c         1 24X      0.671700
     19 N3          3.4210   -0.4740   -1.0080 n         1 24X     -0.565900
     20 O4          4.6270   -0.9080   -2.9130 o         1 24X     -0.603100
     21 C11         2.2540   -1.1830   -1.4450 c3        1 24X      0.087000
     22 C18         2.0250   -2.5560   -0.7870 c3        1 24X     -0.100700
     23 C12         1.8020   -2.4250    0.7030 c3        1 24X     -0.088600
     24 C13         0.8360   -3.2220   -1.4460 c3        1 24X     -0.088600
     25 C14         5.4520   -3.6450    6.8860 ce        1 24X      0.672800
     26 N4          4.0480   -3.4540    6.7750 nh        1 24X     -0.953800
     27 N5          6.0550   -4.4580    7.7030 n2        1 24X     -0.838100
     28 C15        11.2840    2.9230    0.8310 ca        1 24X     -0.113000
     29 C19        11.4440    2.8300    2.2230 ca        1 24X     -0.078800
     30 C22        10.4730    2.1510    2.9670 ca        1 24X     -0.097000
     31 C24         9.3570    1.5840    2.3450 ca        1 24X     -0.084300
     32 C27         9.2040    1.6810    0.9540 cp        1 24X      0.021000
     33 C30        10.1830    2.3510    0.2050 ca        1 24X     -0.109000
     34 C16        13.0700    3.1560    4.0680 c2        1 24X     -0.230000
     35 HN41        3.4860   -4.2400    7.0080 hn        1 24X      0.385800
     36 HN42        3.7630   -3.0050    5.9340 hn        1 24X      0.385800
     37 HN5         5.4630   -5.0440    8.2550 hn        1 24X      0.366400
     38 H2          7.6660   -4.3400    5.4190 h4        1 24X      0.026100
     39 H5          6.4900    0.4250    4.8470 ha        1 24X      0.135000
     40 H4          5.1240   -0.9470    6.3810 ha        1 24X      0.127000
     41 HN2         9.2170   -0.9660    2.7610 hn        1 24X      0.513800
     42 H71         8.2510    1.4380    4.1790 h1        1 24X      0.037200
     43 H72         7.3210    0.9650    2.6820 h1        1 24X      0.037200
     44 H22        10.5860    2.0510    4.0570 ha        1 24X      0.130000
     45 H20        13.1360    4.1740    2.2150 ha        1 24X      0.112000
     46 H161       13.9610    3.6490    4.4750 ha        1 24X      0.109000
     47 H162       12.6050    2.4170    4.7330 ha        1 24X      0.109000
     48 H15        12.0470    3.4380    0.2280 ha        1 24X      0.123000
     49 H30        10.0840    2.3970   -0.8900 ha        1 24X      0.148000
     50 H17         6.8140    2.8490    0.6620 ha        1 24X      0.120000
     51 H21         4.8090    1.9350   -0.4910 ha        1 24X      0.120000
     52 H26         7.0520   -1.6270   -1.5240 ha        1 24X      0.158000
     53 HN3         3.4980   -0.3120   -0.0310 hn        1 24X      0.301500
     54 H111        2.3220   -1.3310   -2.5610 h1        1 24X      0.054700
     55 H112        1.3560   -0.5350   -1.2270 h1        1 24X      0.054700
     56 H18         2.9360   -3.1960   -0.9610 hc        1 24X      0.065700
     57 H121        0.9780   -1.7020    0.9160 hc        1 24X      0.031700
     58 H122        1.5230   -3.4150    1.1400 hc        1 24X      0.031700
     59 H123        2.7280   -2.0690    1.2150 hc        1 24X      0.031700
     60 H131       -0.0870   -2.6100   -1.3050 hc        1 24X      0.031700
     61 H132        0.6630   -4.2310   -1.0000 hc        1 24X      0.031700
     62 H133        1.0160   -3.3450   -2.5420 hc        1 24X      0.031700
     63 C20        12.6090    3.4350    2.8470 ce        1 24X     -0.094200
@<TRIPOS>BOND
     1    1    2 ar  
     2    1    6 ar  
     3    2    3 ar  
     4    2   38 1   
     5    3    4 ar  
     6    3   25 1   
     7    4    5 ar  
     8    4   40 1   
     9    5    6 ar  
    10    5   39 1   
    11    6    8 1   
    12    7    8 1   
    13    7   31 1   
    14    7   42 1   
    15    7   43 1   
    16    8   41 1   
    17    9   10 ar  
    18    9   14 ar  
    19    9   32 1   
    20   10   11 ar  
    21   10   50 1   
    22   11   12 ar  
    23   11   51 1   
    24   12   13 ar  
    25   12   18 1   
    26   13   14 ar  
    27   13   52 1   
    28   14   15 1   
    29   15   16 1   
    30   15   17 1   
    31   18   19 1   
    32   18   20 2   
    33   19   21 1   
    34   19   53 1   
    35   21   22 1   
    36   21   54 1   
    37   21   55 1   
    38   22   23 1   
    39   22   24 1   
    40   22   56 1   
    41   23   57 1   
    42   23   58 1   
    43   23   59 1   
    44   24   60 1   
    45   24   61 1   
    46   24   62 1   
    47   25   26 1   
    48   25   27 2   
    49   26   35 1   
    50   26   36 1   
    51   27   37 1   
    52   28   29 ar  
    53   28   33 ar  
    54   28   48 1   
    55   29   30 ar  
    56   29   63 1   
    57   30   31 ar  
    58   30   44 1   
    59   31   32 ar  
    60   32   33 ar  
    61   33   49 1   
    62   34   46 1   
    63   34   47 1   
    64   34   63 2   
    65   45   63 1   
@<TRIPOS>SUBSTRUCTURE
     1 24X         1 TEMP              0 ****  ****    0 ROOT
