@<TRIPOS>MOLECULE
24X
   65    65     1     0     0
SMALL
bcc


@<TRIPOS>ATOM
      1 N1         -0.1340   -0.6690    4.5100 n2        1 24X     -0.239000
      2 C2          1.0340   -0.5390    4.0120 c2        1 24X      0.199000
      3 C3          1.4580   -0.5390    2.5990 c2        1 24X     -0.120000
      4 C4          2.1450   -1.5280    2.0860 c1        1 24X     -0.128000
      5 C5          2.8320   -2.5020    1.5600 c2        1 24X     -0.038000
      6 C6         -1.3980   -0.8630    4.0430 c2        1 24X      0.220000
      7 C7         -3.6740   -0.2250    3.4370 c3        1 24X     -0.025000
      8 N2         -2.2580    0.0630    3.6430 n7        1 24X     -0.179000
      9 C8         -3.8810   -2.6420    1.6990 c2        1 24X      0.086000
     10 C17        -4.9160   -3.1940    2.6370 c3        1 24X     -0.124000
     11 C21        -4.5130   -3.6900    3.9290 c1        1 24X     -0.204000
     12 C23        -3.2750   -4.0350    4.3870 c2        1 24X     -0.354000
     13 C26        -2.1930   -4.7180    1.5740 c1        1 24X      0.191000
     14 C29        -2.8000   -3.3400    1.3320 c2        1 24X     -0.354000
     15 C9         -1.6040   -3.0850    0.4650 c2        1 24X      0.306000
     16 O2         -0.9660   -2.3410   -0.2340 o         1 24X     -0.210000
     17 O1         -1.1290   -4.4410    0.7910 os        1 24X     -0.228000
     18 C10        -3.2150   -4.6880    5.5860 c1        1 24X      0.480000
     19 N3         -1.7800   -6.6620    4.3700 n8        1 24X     -0.383000
     20 O4         -3.1710   -5.2280    6.6230 o         1 24X     -0.044000
     21 C11        -0.4560   -7.1330    4.7040 c3        1 24X     -0.089000
     22 C18         0.0920   -8.2770    3.8510 c3        1 24X     -0.197000
     23 C12         2.2470   -3.6580    0.8500 c3        1 24X     -0.202000
     24 C13         1.4740   -8.6670    4.3050 c3        1 24X     -0.209000
     25 C14         1.0880    0.6910    1.8160 c2        1 24X      0.199000
     26 N4          2.0400    1.1090    0.8940 n8        1 24X     -0.395000
     27 N5         -0.0420    1.2700    2.1170 n2        1 24X     -0.411000
     28 C15        -4.8350    0.1000   -0.6840 ca        1 24X     -0.090000
     29 C19        -4.7700    1.2480    0.1220 ca        1 24X     -0.010000
     30 C22        -4.3770    1.1080    1.4600 ca        1 24X     -0.107000
     31 C24        -4.0700   -0.1470    1.9930 ca        1 24X     -0.110000
     32 C27        -4.1440   -1.2910    1.1830 ca        1 24X     -0.072000
     33 C30        -4.5280   -1.1510   -0.1590 ca        1 24X     -0.100000
     34 C16        -5.5120    3.6060    0.2450 c2        1 24X     -0.171000
     35 HN41        2.7680    0.4830    0.6490 hn        1 24X      0.227500
     36 HN42        1.7950    1.7970    0.2230 hn        1 24X      0.227500
     37 HN5        -0.2780    2.0850    1.5950 hn        1 24X      0.163000
     38 H2          1.8560   -0.4320    4.7630 h4        1 24X      0.196000
     39 H5         -1.7990   -1.9040    4.2140 h5        1 24X      0.210000
     40 H4          3.9390   -2.4900    1.6350 ha        1 24X      0.170000
     41 HN2        -4.2520    0.5470    4.0300 h1        1 24X      0.138500
     42 H71        -1.9580    0.9980    3.4100 hn        1 24X      0.291000
     43 H72        -3.9220   -1.2430    3.8610 h1        1 24X      0.138500
     44 H22        -4.3160    2.0020    2.1010 ha        1 24X      0.141000
     45 H20        -5.6470    3.6020    1.3350 ha        1 24X      0.124000
     46 H161       -5.0060    2.5990   -1.5510 ha        1 24X      0.141000
     47 H162       -5.7570    4.5570   -0.2480 ha        1 24X      0.124000
     48 H15        -5.1370    0.1900   -1.7400 ha        1 24X      0.159000
     49 H30        -4.5930   -2.0430   -0.8030 ha        1 24X      0.154000
     50 H17        -5.4220   -4.0750    2.1290 hc        1 24X      0.156000
     51 H21        -5.7210   -2.4180    2.7940 hc        1 24X      0.156000
     52 H26        -2.3170   -4.0020    3.8300 ha        1 24X      0.131000
     53 HN3        -2.4460   -7.4050    4.4650 hn        1 24X      0.155500
     54 H111       -1.8140   -6.3320    3.4200 hn        1 24X      0.155500
     55 H112        0.2500   -6.2580    4.6260 h1        1 24X      0.085000
     56 H18        -0.5910   -9.1640    3.9230 hc        1 24X      0.085000
     57 H121        0.1210   -7.9670    2.7730 hc        1 24X      0.085000
     58 H122        2.4500   -4.5950    1.4280 hc        1 24X      0.111667
     59 H123        1.1420   -3.5580    0.7050 hc        1 24X      0.111667
     60 H131        2.1780   -7.8040    4.2210 hc        1 24X      0.077333
     61 H132        1.8650   -9.5030    3.6770 hc        1 24X      0.077333
     62 H133        1.4600   -9.0040    5.3700 hc        1 24X      0.077333
     63 H32        -0.4680   -7.4630    5.7820 h1        1 24X      0.085000
     64 H43         2.7260   -3.7580   -0.1580 hc        1 24X      0.111667
     65 C20        -5.1000    2.5430   -0.4510 c2        1 24X     -0.156000
@<TRIPOS>BOND
     1    1    2 1   
     2    1    6 1   
     3    2    3 1   
     4    2   38 1   
     5    3    4 1   
     6    3   25 1   
     7    4    5 1   
     8    5   23 1   
     9    5   40 1   
    10    6    8 1   
    11    6   39 1   
    12    7    8 1   
    13    7   31 1   
    14    7   41 1   
    15    7   43 1   
    16    8   42 1   
    17    9   10 1   
    18    9   14 1   
    19    9   32 1   
    20   10   11 1   
    21   10   50 1   
    22   10   51 1   
    23   11   12 1   
    24   12   18 1   
    25   12   52 1   
    26   13   14 1   
    27   13   17 1   
    28   14   15 1   
    29   15   16 1   
    30   15   17 1   
    31   18   20 1   
    32   19   21 1   
    33   19   53 1   
    34   19   54 1   
    35   21   22 1   
    36   21   55 1   
    37   21   63 1   
    38   22   24 1   
    39   22   56 1   
    40   22   57 1   
    41   23   58 1   
    42   23   59 1   
    43   23   64 1   
    44   24   60 1   
    45   24   61 1   
    46   24   62 1   
    47   25   26 1   
    48   25   27 1   
    49   26   35 1   
    50   26   36 1   
    51   27   37 1   
    52   28   29 1   
    53   28   33 1   
    54   28   48 1   
    55   29   30 1   
    56   29   65 1   
    57   30   31 1   
    58   30   44 1   
    59   31   32 1   
    60   32   33 1   
    61   33   49 1   
    62   34   45 1   
    63   34   47 1   
    64   34   65 1   
    65   46   65 1   
@<TRIPOS>SUBSTRUCTURE
     1 24X         1 TEMP              0 ****  ****    0 ROOT
