@<TRIPOS>MOLECULE
24X
   65    64     1     0     0
SMALL
bcc


@<TRIPOS>ATOM
      1 N1         -0.2780   -1.8650   -0.5220 n2        1 24X     -0.614900
      2 C2          0.6510   -1.0210   -0.8280 ce        1 24X      0.541500
      3 C3          1.4540   -0.2770    0.1510 ce        1 24X     -0.317200
      4 C4          1.4360   -0.6600    1.4410 c2        1 24X     -0.083200
      5 C5          0.6060   -1.8120    1.8660 c3        1 24X     -0.101200
      6 C6         -0.5710   -2.0900    0.8940 c3        1 24X      0.364700
      7 C7         -2.9850   -1.7780    1.1920 c2        1 24X      0.265000
      8 N2         -1.7710   -1.3040    1.3160 nh        1 24X     -0.576000
      9 C8         -5.4540   -3.2910    1.3380 ce        1 24X      0.257100
     10 C17        -5.3150   -4.2150    2.5110 c3        1 24X     -0.063000
     11 C21        -3.9430   -4.1180    3.0680 c2        1 24X     -0.132200
     12 C23        -3.0790   -5.1360    3.1210 ce        1 24X     -0.203200
     13 C26        -5.8170   -4.1830   -1.0810 c1        1 24X      0.286000
     14 C29        -5.6210   -3.7390    0.1080 cg        1 24X     -0.609300
     15 C9         -1.0680    2.8070    0.4050 c1        1 24X      0.931000
     16 O2         -0.7660    3.8620   -0.0390 o         1 24X     -0.466000
     17 O1         -1.4280    1.7660    0.8760 o         1 24X     -0.466000
     18 C10        -1.6810   -4.8970    3.5810 c         1 24X      0.665300
     19 N3         -1.0980   -5.8040    4.4100 n         1 24X     -0.636000
     20 O4         -1.0530   -3.8780    3.1880 o         1 24X     -0.694100
     21 C11        -0.2270   -7.8270    6.4700 c2        1 24X     -0.257000
     22 C18         1.0160   -7.6470    6.0110 c2        1 24X     -0.109400
     23 C12         1.7860   -6.4060    6.2720 c3        1 24X     -0.072900
     24 C13         1.7330   -8.6820    5.2270 c3        1 24X     -0.072900
     25 C14         2.1780    0.9420   -0.3280 ce        1 24X      0.689500
     26 N4          3.5590    0.7870   -0.4610 nh        1 24X     -0.966800
     27 N5          1.4600    2.0120   -0.4970 n2        1 24X     -0.881100
     28 C15        -6.6150    0.1620    2.2660 cc        1 24X     -0.047000
     29 C19        -5.4350    0.9210    2.1930 cc        1 24X     -0.026000
     30 C22        -4.2400    0.2780    1.8470 cd        1 24X     -0.067000
     31 C24        -4.2140   -1.0970    1.5670 cd        1 24X     -0.151000
     32 C27        -5.4120   -1.8450    1.6350 cd        1 24X     -0.022000
     33 C30        -6.6010   -1.2030    1.9900 cd        1 24X     -0.118000
     34 C16        -4.5510    3.2360    2.1410 c2        1 24X     -0.165000
     35 HN41        2.0380   -0.1600    2.2170 ha        1 24X      0.166000
     36 HN42        4.0730    1.4850   -0.9450 hn        1 24X      0.423300
     37 HN5         1.9280    2.8320   -0.8190 hn        1 24X      0.408400
     38 H2          0.8650   -0.8650   -1.9060 h4        1 24X      0.057800
     39 H5          1.2400   -2.7450    1.8840 hc        1 24X      0.109200
     40 H4          0.2310   -1.6810    2.9170 hc        1 24X      0.109200
     41 HN2        -0.8480   -3.1900    0.9980 h2        1 24X      0.133700
     42 H71        -1.5940   -0.3670    1.6430 hn        1 24X      0.480800
     43 H72        -3.0930   -2.8160    0.7840 h4        1 24X      0.203000
     44 H22        -3.3180    0.8810    1.7850 ha        1 24X      0.160000
     45 H20        -3.6330    2.9750    1.5960 ha        1 24X      0.123000
     46 H161       -6.3950    2.6740    3.0190 ha        1 24X      0.146000
     47 H162       -4.6570    4.3030    2.3860 ha        1 24X      0.123000
     48 H15        -7.5650    0.6540    2.5380 ha        1 24X      0.167000
     49 H30        -7.5390   -1.7810    2.0420 ha        1 24X      0.166000
     50 H17        -5.5540   -5.2680    2.1970 hc        1 24X      0.096200
     51 H21        -6.0640   -3.9180    3.3000 hc        1 24X      0.096200
     52 H26        -3.3280   -6.1580    2.7950 ha        1 24X      0.161000
     53 HN3        -3.6540   -3.1160    3.4370 ha        1 24X      0.134000
     54 H111       -1.5850   -6.6050    4.7310 hn        1 24X      0.331500
     55 H112       -0.7440   -7.0740    7.0790 ha        1 24X      0.116000
     56 H18        -0.7870   -8.7550    6.2980 ha        1 24X      0.116000
     57 H121        2.1700   -5.9760    5.3130 hc        1 24X      0.047367
     58 H122        2.6680   -6.6370    6.9220 hc        1 24X      0.047367
     59 H123        1.1650   -5.6330    6.7880 hc        1 24X      0.047367
     60 H131        2.0590   -8.2670    4.2410 hc        1 24X      0.047367
     61 H132        1.0890   -9.5770    5.0410 hc        1 24X      0.047367
     62 H133        2.6450   -9.0150    5.7830 hc        1 24X      0.047367
     63 H32        -0.1630   -5.6750    4.7230 hn        1 24X      0.331500
     64 H43         3.9190   -0.1340   -0.5080 hn        1 24X      0.423300
     65 C20        -5.4850    2.3460    2.4830 ce        1 24X     -0.154000
@<TRIPOS>BOND
     1    1    2 2   
     2    1    6 1   
     3    2    3 1   
     4    2   38 1   
     5    3    4 2   
     6    3   25 1   
     7    4    5 1   
     8    4   35 1   
     9    5    6 1   
    10    5   39 1   
    11    5   40 1   
    12    6    8 1   
    13    6   41 1   
    14    7    8 1   
    15    7   31 2   
    16    7   43 1   
    17    8   42 1   
    18    9   10 1   
    19    9   14 1   
    20    9   32 2   
    21   10   11 1   
    22   10   50 1   
    23   10   51 1   
    24   11   12 2   
    25   11   53 1   
    26   12   18 1   
    27   12   52 1   
    28   13   14 3   
    29   15   16 2   
    30   15   17 2   
    31   18   19 1   
    32   18   20 2   
    33   19   54 1   
    34   19   63 1   
    35   21   22 2   
    36   21   55 1   
    37   21   56 1   
    38   22   23 1   
    39   22   24 1   
    40   23   57 1   
    41   23   58 1   
    42   23   59 1   
    43   24   60 1   
    44   24   61 1   
    45   24   62 1   
    46   25   26 1   
    47   25   27 2   
    48   26   36 1   
    49   26   64 1   
    50   27   37 1   
    51   28   29 1   
    52   28   33 2   
    53   28   48 1   
    54   29   30 2   
    55   29   65 1   
    56   30   31 1   
    57   30   44 1   
    58   31   32 1   
    59   32   33 1   
    60   33   49 1   
    61   34   45 1   
    62   34   47 1   
    63   34   65 2   
    64   46   65 1   
@<TRIPOS>SUBSTRUCTURE
     1 24X         1 TEMP              0 ****  ****    0 ROOT
