@<TRIPOS>MOLECULE
24X
   63    53     1     0     0
SMALL
bcc


@<TRIPOS>ATOM
      1 N1          1.7010    4.7280    0.3850 n1        1 24X     -0.225000
      2 C2          2.3140    5.1060    1.5440 c1        1 24X     -0.077500
      3 C3          2.5690    4.1630    2.5360 c1        1 24X     -0.146000
      4 C4          2.2030    2.8560    2.3480 c2        1 24X     -0.070500
      5 C5          1.5860    2.4770    1.1800 c1        1 24X     -0.219500
      6 C6          1.3340    3.4150    0.1950 c1        1 24X      0.116000
      7 C7          0.4970    2.2050   -1.8360 c3        1 24X     -0.056000
      8 N2          0.6870    3.4360   -1.1040 n3        1 24X     -0.257000
      9 C8         -0.8090   -0.3600   -2.0990 c1        1 24X     -0.027000
     10 C17        -0.0660   -1.0420   -3.0560 c1        1 24X     -0.142000
     11 C21         0.5740   -2.2380   -2.7230 c2        1 24X     -0.109000
     12 C23         0.4680   -2.7480   -1.4330 c1        1 24X     -0.133000
     13 C26        -0.2750   -2.0660   -0.4750 c1        1 24X     -0.094000
     14 C29        -0.9150   -0.8700   -0.8070 c1        1 24X     -0.074000
     15 C9         -1.8530   -0.2230    0.1800 c2        1 24X      0.365000
     16 O2         -1.4710    0.7750    0.8510 o         1 24X     -0.553000
     17 O1         -3.0400   -0.6280    0.2770 o         1 24X     -0.553000
     18 C10         1.1620   -4.0720   -1.0710 c2        1 24X      0.349000
     19 N3          1.1600   -4.5310    0.2860 n         1 24X     -0.375000
     20 O4          1.8040   -4.6730   -1.9150 o         1 24X     -0.392000
     21 C11         0.8710   -5.9010    0.5760 c3        1 24X     -0.025000
     22 C18         0.6650   -6.0690    2.0780 c3        1 24X     -0.132000
     23 C12        -0.7750   -5.7530    2.4290 c3        1 24X     -0.207000
     24 C13         0.9840   -7.5070    2.4780 c3        1 24X     -0.207000
     25 C14         3.3080    4.5700    3.8030 c1        1 24X      0.146000
     26 N4          2.5830    5.0580    4.9240 n3        1 24X     -0.341000
     27 N5          4.6160    4.4690    3.8610 n1        1 24X     -0.339000
     28 C15        -3.5770    1.8500   -3.2730 c1        1 24X     -0.115500
     29 C19        -3.0170    3.1160   -3.0630 c1        1 24X     -0.146000
     30 C22        -1.7180    3.2320   -2.5540 c1        1 24X     -0.077500
     31 C24        -0.9770    2.0800   -2.2540 c1        1 24X     -0.075000
     32 C27        -1.5380    0.8120   -2.4650 c1        1 24X     -0.002000
     33 C30        -2.8350    0.6970   -2.9720 c1        1 24X     -0.115500
     34 C16        -4.7260    4.8410   -2.3640 c1        1 24X     -0.219500
     35 C20        -3.8630    4.3890   -3.3210 c2        1 24X     -0.070500
     36 HN41        1.7320    5.3670    4.8180 hn        1 24X      0.194500
     37 HN42        2.9630    5.0360    5.7620 hn        1 24X      0.194500
     38 HN5         5.0840    4.1540    3.1380 DU        1 24X      0.124667
     39 H2          2.5750    6.0390    1.6780 ha        1 24X      0.137500
     40 H5          1.3250    1.5430    1.0450 ha        1 24X      0.163000
     41 H4          2.3820    2.1910    3.0470 ha        1 24X      0.137000
     42 HN2         0.3520    4.2260   -1.4380 hn        1 24X      0.191000
     43 H71         1.0680    2.2090   -2.6400 h1        1 24X      0.147000
     44 H72         0.7410    1.4430   -1.2660 h1        1 24X      0.147000
     45 H22        -1.3270    4.1170   -2.4080 ha        1 24X      0.137500
     46 H20        -3.7790    4.8680   -4.1690 ha        1 24X      0.137000
     47 H161       -4.8110    4.3620   -1.5140 DU        1 24X      0.124667
     48 H162       -5.2630    5.6510   -2.5290 ha        1 24X      0.163000
     49 H15        -4.4460    1.7690   -3.7210 ha        1 24X      0.131500
     50 H30        -3.2250   -0.1860   -3.1190 ha        1 24X      0.131500
     51 H17         0.0090   -0.6830   -3.9650 DU        1 24X      0.124667
     52 H21         1.0980   -2.7190   -3.3990 ha        1 24X      0.136000
     53 H26        -0.3480   -2.4260    0.4330 ha        1 24X      0.138000
     54 HN3         1.4010   -3.9680    0.9540 hn        1 24X      0.227000
     55 H111        1.6200   -6.4610    0.2840 h1        1 24X      0.092500
     56 H112        0.0600   -6.1700    0.1030 h1        1 24X      0.092500
     57 H18         1.2560   -5.4600    2.5570 hc        1 24X      0.087000
     58 H121       -0.9350   -4.7890    2.3220 hc        1 24X      0.074000
     59 H122       -0.9490   -6.0120    3.3570 hc        1 24X      0.074000
     60 H123       -1.3740   -6.2520    1.8340 hc        1 24X      0.074000
     61 H131        0.3580   -8.1160    2.0330 hc        1 24X      0.074000
     62 H132        1.9020   -7.7240    2.2060 hc        1 24X      0.074000
     63 H133        0.8990   -7.6040    3.4520 hc        1 24X      0.074000
@<TRIPOS>BOND
     1    1    6 1   
     2    2    3 1   
     3    2   39 1   
     4    3    4 1   
     5    4    5 1   
     6    4   41 1   
     7    5   40 1   
     8    6    8 1   
     9    7    8 1   
    10    7   31 1   
    11    7   43 1   
    12    7   44 1   
    13    8   42 1   
    14    9   10 1   
    15   10   11 1   
    16   11   12 1   
    17   11   52 1   
    18   12   18 1   
    19   13   14 1   
    20   13   53 1   
    21   14   15 1   
    22   15   16 1   
    23   15   17 1   
    24   18   19 1   
    25   18   20 1   
    26   19   21 1   
    27   19   54 1   
    28   21   22 1   
    29   21   55 1   
    30   21   56 1   
    31   22   23 1   
    32   22   24 1   
    33   22   57 1   
    34   23   58 1   
    35   23   59 1   
    36   23   60 1   
    37   24   61 1   
    38   24   62 1   
    39   24   63 1   
    40   25   26 1   
    41   25   27 1   
    42   26   36 1   
    43   26   37 1   
    44   28   33 1   
    45   28   49 1   
    46   29   30 1   
    47   29   35 1   
    48   30   45 1   
    49   31   32 1   
    50   33   50 1   
    51   34   35 1   
    52   34   48 1   
    53   35   46 1   
@<TRIPOS>SUBSTRUCTURE
     1 24X         1 TEMP              0 ****  ****    0 ROOT
