@<TRIPOS>MOLECULE
24Y
   40    43     1     0     0
SMALL
bcc


@<TRIPOS>ATOM
      1 CL          0.0660    0.4230   -0.0460 cl        1 24Y     -0.053400
      2 C9          1.7440    0.2140   -0.0340 cc        1 24Y     -0.116800
      3 C8          2.4400    0.1730    1.1390 cd        1 24Y     -0.012000
      4 C10         2.4210    0.0750   -1.3310 c         1 24Y      0.692700
      5 O           1.8890    0.1060   -2.4540 o         1 24Y     -0.607500
      6 N2          3.8210   -0.1130   -1.2750 n         1 24Y     -0.431100
      7 C11         4.5060   -0.1530   -0.0930 cc        1 24Y      0.072600
      8 C7          3.8580   -0.0100    1.1210 cd        1 24Y     -0.249800
      9 C6          4.6260   -0.0760    2.3530 cd        1 24Y      0.530300
     10 N3          5.6470   -0.9270    2.6140 nc        1 24Y     -0.688000
     11 C12         6.0370   -0.6080    3.9400 cc        1 24Y      0.586500
     12 C13         7.1190   -1.2940    4.6430 ca        1 24Y     -0.119500
     13 C18         7.7790   -0.6640    5.7080 ca        1 24Y     -0.096000
     14 C17         8.8100   -1.3230    6.3750 ca        1 24Y     -0.140500
     15 C16         9.1910   -2.6070    5.9870 ca        1 24Y     -0.117000
     16 C15         8.5370   -3.2360    4.9280 ca        1 24Y     -0.140500
     17 C14         7.5030   -2.5860    4.2540 ca        1 24Y     -0.096000
     18 N4          5.2750    0.4000    4.4760 nd        1 24Y     -0.504800
     19 N1          4.3850    0.7160    3.5160 na        1 24Y     -0.090200
     20 C5          3.5650    1.8930    3.5840 ca        1 24Y      0.488800
     21 C1          2.7040    2.0980    4.6990 ca        1 24Y     -0.148600
     22 C           2.6110    1.1450    5.8250 c3        1 24Y     -0.055800
     23 N           3.6630    2.7750    2.5430 nb        1 24Y     -0.662000
     24 C4          2.8970    3.8730    2.5900 ca        1 24Y      0.404200
     25 C3          2.0150    4.1680    3.6480 ca        1 24Y     -0.234300
     26 C2          1.9270    3.2680    4.7030 ca        1 24Y     -0.096000
     27 H1          1.9290    0.2740    2.1100 ha        1 24Y      0.158000
     28 H2          5.6010   -0.3080   -0.1550 h4        1 24Y      0.178000
     29 H4          7.4890    0.3510    6.0200 ha        1 24Y      0.148000
     30 H5          9.3250   -0.8250    7.2100 ha        1 24Y      0.134000
     31 H6         10.0050   -3.1240    6.5160 ha        1 24Y      0.132000
     32 H7          8.8350   -4.2480    4.6200 ha        1 24Y      0.134000
     33 H8          6.9930   -3.0910    3.4200 ha        1 24Y      0.148000
     34 H9          2.5040    0.0950    5.4570 hc        1 24Y      0.058700
     35 H10         1.7310    1.3810    6.4730 hc        1 24Y      0.058700
     36 H11         3.5350    1.2010    6.4560 hc        1 24Y      0.058700
     37 H12         3.0030    4.5570    1.7280 h4        1 24Y      0.033100
     38 H13         1.4160    5.0890    3.6310 ha        1 24Y      0.152000
     39 H14         1.2490    3.4630    5.5480 ha        1 24Y      0.148000
     40 H15         4.3120   -0.2140   -2.1380 hn        1 24Y      0.342500
@<TRIPOS>BOND
     1    1    2 1   
     2    2    3 2   
     3    2    4 1   
     4    3    8 1   
     5    3   27 1   
     6    4    5 2   
     7    4    6 1   
     8    6    7 1   
     9    6   40 1   
    10    7    8 2   
    11    7   28 1   
    12    8    9 1   
    13    9   10 2   
    14    9   19 1   
    15   10   11 1   
    16   11   12 1   
    17   11   18 2   
    18   12   13 ar  
    19   12   17 ar  
    20   13   14 ar  
    21   13   29 1   
    22   14   15 ar  
    23   14   30 1   
    24   15   16 ar  
    25   15   31 1   
    26   16   17 ar  
    27   16   32 1   
    28   17   33 1   
    29   18   19 1   
    30   19   20 1   
    31   20   21 ar  
    32   20   23 ar  
    33   21   22 1   
    34   21   26 ar  
    35   22   34 1   
    36   22   35 1   
    37   22   36 1   
    38   23   24 ar  
    39   24   25 ar  
    40   24   37 1   
    41   25   26 ar  
    42   25   38 1   
    43   26   39 1   
@<TRIPOS>SUBSTRUCTURE
     1 24Y         1 TEMP              0 ****  ****    0 ROOT
