@<TRIPOS>MOLECULE
24Y
   40    43     1     0     0
SMALL
bcc


@<TRIPOS>ATOM
      1 Cl          0.0760    0.4130   -0.0600 cl        1 24Y     -0.053400
      2 C9          1.7550    0.2130   -0.0430 cc        1 24Y     -0.116800
      3 C8          2.4480    0.1710    1.1310 cd        1 24Y     -0.012000
      4 C10         2.4370    0.0840   -1.3390 c         1 24Y      0.692700
      5 O           1.9090    0.1170   -2.4630 o         1 24Y     -0.607500
      6 N2          3.8380   -0.0970   -1.2790 ns        1 24Y     -0.431100
      7 C11         4.5190   -0.1390   -0.0960 cc        1 24Y      0.072600
      8 C7          3.8660   -0.0040    1.1170 cd        1 24Y     -0.249800
      9 C6          4.6300   -0.0720    2.3520 cd        1 24Y      0.530300
     10 N3          5.6560   -0.9180    2.6120 nc        1 24Y     -0.688000
     11 C12         6.0390   -0.6030    3.9400 cc        1 24Y      0.586500
     12 C13         7.1230   -1.2870    4.6440 ca        1 24Y     -0.119500
     13 C18         7.7760   -0.6580    5.7140 ca        1 24Y     -0.096000
     14 C17         8.8090   -1.3140    6.3820 ca        1 24Y     -0.140500
     15 C16         9.1970   -2.5950    5.9890 ca        1 24Y     -0.117000
     16 C15         8.5510   -3.2210    4.9250 ca        1 24Y     -0.140500
     17 C14         7.5160   -2.5740    4.2510 ca        1 24Y     -0.096000
     18 N4          5.2710    0.3980    4.4780 nd        1 24Y     -0.504800
     19 N1          4.3820    0.7140    3.5170 na        1 24Y     -0.090200
     20 C5          3.5550    1.8860    3.5870 ca        1 24Y      0.488800
     21 C1          2.6900    2.0820    4.7010 ca        1 24Y     -0.148600
     22 C           2.5990    1.1240    5.8220 c3        1 24Y     -0.055800
     23 N           3.6520    2.7730    2.5510 nb        1 24Y     -0.662000
     24 C4          2.8800    3.8670    2.6000 ca        1 24Y      0.404200
     25 C3          1.9930    4.1530    3.6560 ca        1 24Y     -0.234300
     26 C2          1.9070    3.2470    4.7070 ca        1 24Y     -0.096000
     27 H1          1.9320    0.2640    2.1010 ha        1 24Y      0.158000
     28 H2          5.6150   -0.2870   -0.1550 h4        1 24Y      0.178000
     29 H4          7.4800    0.3540    6.0300 ha        1 24Y      0.148000
     30 H5          9.3180   -0.8170    7.2210 ha        1 24Y      0.134000
     31 H6         10.0130   -3.1090    6.5190 ha        1 24Y      0.132000
     32 H7          8.8560   -4.2310    4.6130 ha        1 24Y      0.134000
     33 H8          7.0120   -3.0780    3.4120 ha        1 24Y      0.148000
     34 H9          2.4980    0.0740    5.4490 hc        1 24Y      0.058700
     35 H10         1.7150    1.3520    6.4680 hc        1 24Y      0.058700
     36 H11         3.5200    1.1820    6.4570 hc        1 24Y      0.058700
     37 H12         2.9850    4.5550    1.7410 h4        1 24Y      0.033100
     38 H13         1.3900    5.0700    3.6410 ha        1 24Y      0.152000
     39 H14         1.2250    3.4350    5.5510 ha        1 24Y      0.148000
     40 H15         4.3320   -0.1920   -2.1410 hn        1 24Y      0.342500
@<TRIPOS>BOND
     1    1    2 1   
     2    2    3 2   
     3    2    4 1   
     4    3    8 1   
     5    3   27 1   
     6    4    5 2   
     7    4    6 1   
     8    6    7 1   
     9    6   40 1   
    10    7    8 2   
    11    7   28 1   
    12    8    9 1   
    13    9   10 2   
    14    9   19 1   
    15   10   11 1   
    16   11   12 1   
    17   11   18 2   
    18   12   13 ar  
    19   12   17 ar  
    20   13   14 ar  
    21   13   29 1   
    22   14   15 ar  
    23   14   30 1   
    24   15   16 ar  
    25   15   31 1   
    26   16   17 ar  
    27   16   32 1   
    28   17   33 1   
    29   18   19 1   
    30   19   20 1   
    31   20   21 ar  
    32   20   23 ar  
    33   21   22 1   
    34   21   26 ar  
    35   22   34 1   
    36   22   35 1   
    37   22   36 1   
    38   23   24 ar  
    39   24   25 ar  
    40   24   37 1   
    41   25   26 ar  
    42   25   38 1   
    43   26   39 1   
@<TRIPOS>SUBSTRUCTURE
     1 24Y         1 TEMP              0 ****  ****    0 ROOT
