@<TRIPOS>MOLECULE
24Y
   40    43     1     0     0
SMALL
bcc


@<TRIPOS>ATOM
      1 CL          0.0660    0.4230   -0.0460 cl        1 24Y     -0.053400
      2 C9          1.7440    0.2150   -0.0340 cc        1 24Y     -0.116800
      3 C8          2.4400    0.1740    1.1380 cd        1 24Y     -0.012000
      4 C10         2.4210    0.0780   -1.3310 c         1 24Y      0.692700
      5 O           1.8890    0.1090   -2.4540 o         1 24Y     -0.607500
      6 N2          3.8220   -0.1090   -1.2750 n         1 24Y     -0.431100
      7 C11         4.5060   -0.1500   -0.0940 cc        1 24Y      0.072600
      8 C7          3.8580   -0.0090    1.1200 cd        1 24Y     -0.249800
      9 C6          4.6260   -0.0750    2.3530 cd        1 24Y      0.530300
     10 N3          5.6480   -0.9250    2.6130 nc        1 24Y     -0.688000
     11 C12         6.0370   -0.6080    3.9390 cc        1 24Y      0.586500
     12 C13         7.1200   -1.2940    4.6410 ca        1 24Y     -0.119500
     13 C18         7.7780   -0.6650    5.7080 ca        1 24Y     -0.096000
     14 C17         8.8100   -1.3240    6.3740 ca        1 24Y     -0.140500
     15 C16         9.1920   -2.6070    5.9840 ca        1 24Y     -0.117000
     16 C15         8.5400   -3.2340    4.9230 ca        1 24Y     -0.140500
     17 C14         7.5060   -2.5840    4.2500 ca        1 24Y     -0.096000
     18 N4          5.2750    0.3990    4.4760 nd        1 24Y     -0.504800
     19 N1          4.3850    0.7160    3.5160 na        1 24Y     -0.090200
     20 C5          3.5640    1.8920    3.5850 ca        1 24Y      0.488800
     21 C1          2.7040    2.0960    4.7010 ca        1 24Y     -0.148600
     22 C           2.6120    1.1430    5.8270 c3        1 24Y     -0.055800
     23 N           3.6600    2.7750    2.5450 nb        1 24Y     -0.662000
     24 C4          2.8940    3.8720    2.5930 ca        1 24Y      0.404200
     25 C3          2.0130    4.1670    3.6510 ca        1 24Y     -0.234300
     26 C2          1.9260    3.2650    4.7060 ca        1 24Y     -0.096000
     27 H1          1.9280    0.2730    2.1100 ha        1 24Y      0.158000
     28 H2          5.6010   -0.3040   -0.1560 h4        1 24Y      0.178000
     29 H4          7.4870    0.3490    6.0220 ha        1 24Y      0.148000
     30 H5          9.3240   -0.8270    7.2100 ha        1 24Y      0.134000
     31 H6         10.0070   -3.1240    6.5120 ha        1 24Y      0.132000
     32 H7          8.8400   -4.2460    4.6130 ha        1 24Y      0.134000
     33 H8          6.9970   -3.0880    3.4140 ha        1 24Y      0.148000
     34 H9          2.5050    0.0920    5.4580 hc        1 24Y      0.058700
     35 H10         1.7320    1.3770    6.4750 hc        1 24Y      0.058700
     36 H11         3.5360    1.1990    6.4580 hc        1 24Y      0.058700
     37 H12         2.9990    4.5570    1.7310 h4        1 24Y      0.033100
     38 H13         1.4130    5.0860    3.6350 ha        1 24Y      0.152000
     39 H14         1.2480    3.4590    5.5520 ha        1 24Y      0.148000
     40 H15         4.3120   -0.2100   -2.1390 hn        1 24Y      0.342500
@<TRIPOS>BOND
     1    1    2 1   
     2    2    3 2   
     3    2    4 1   
     4    3    8 1   
     5    3   27 1   
     6    4    5 2   
     7    4    6 1   
     8    6    7 1   
     9    6   40 1   
    10    7    8 2   
    11    7   28 1   
    12    8    9 1   
    13    9   10 2   
    14    9   19 1   
    15   10   11 1   
    16   11   12 1   
    17   11   18 2   
    18   12   13 ar  
    19   12   17 ar  
    20   13   14 ar  
    21   13   29 1   
    22   14   15 ar  
    23   14   30 1   
    24   15   16 ar  
    25   15   31 1   
    26   16   17 ar  
    27   16   32 1   
    28   17   33 1   
    29   18   19 1   
    30   19   20 1   
    31   20   21 ar  
    32   20   23 ar  
    33   21   22 1   
    34   21   26 ar  
    35   22   34 1   
    36   22   35 1   
    37   22   36 1   
    38   23   24 ar  
    39   24   25 ar  
    40   24   37 1   
    41   25   26 ar  
    42   25   38 1   
    43   26   39 1   
@<TRIPOS>SUBSTRUCTURE
     1 24Y         1 TEMP              0 ****  ****    0 ROOT
