@<TRIPOS>MOLECULE
24Y
   40    43     1     0     0
SMALL
bcc


@<TRIPOS>ATOM
      1 CL          4.6500   -0.5260   -1.3040 cl        1 24Y     -0.053400
      2 C9          3.3610   -1.1280   -0.3890 cc        1 24Y     -0.116800
      3 C8          2.1140   -0.5820   -0.4830 cd        1 24Y     -0.012000
      4 C10         3.6350   -2.2600    0.5070 c         1 24Y      0.692700
      5 O           4.7280   -2.8260    0.6780 o         1 24Y     -0.607500
      6 N2          2.5270   -2.7430    1.2420 n         1 24Y     -0.431100
      7 C11         1.2830   -2.1880    1.1360 cc        1 24Y      0.072600
      8 C7          1.0420   -1.1140    0.2970 cd        1 24Y     -0.249800
      9 C6         -0.3020   -0.5670    0.2060 cd        1 24Y      0.530300
     10 N3         -1.4550   -1.2780    0.1860 nc        1 24Y     -0.688000
     11 C12        -2.4690   -0.2930    0.0640 cc        1 24Y      0.586500
     12 C13        -3.8940   -0.6160   -0.0020 ca        1 24Y     -0.119500
     13 C18        -4.8510    0.3420    0.3600 ca        1 24Y     -0.096000
     14 C17        -6.2080    0.0300    0.2950 ca        1 24Y     -0.140500
     15 C16        -6.6190   -1.2340   -0.1290 ca        1 24Y     -0.117000
     16 C15        -5.6680   -2.1890   -0.4880 ca        1 24Y     -0.140500
     17 C14        -4.3090   -1.8860   -0.4270 ca        1 24Y     -0.096000
     18 N4         -1.9550    0.9770    0.0060 nd        1 24Y     -0.504800
     19 N1         -0.6180    0.8180    0.0650 na        1 24Y     -0.090200
     20 C5          0.2790    1.9170    0.2810 ca        1 24Y      0.488800
     21 C1          0.2720    3.0290   -0.6090 ca        1 24Y     -0.148600
     22 C          -0.6390    3.1190   -1.7700 c3        1 24Y     -0.055800
     23 N           1.1130    1.8320    1.3610 nb        1 24Y     -0.662000
     24 C4          1.9610    2.8480    1.5700 ca        1 24Y      0.404200
     25 C3          2.0310    3.9900    0.7500 ca        1 24Y     -0.234300
     26 C2          1.1760    4.0700   -0.3430 ca        1 24Y     -0.096000
     27 H1          1.9120    0.2650   -1.1600 ha        1 24Y      0.158000
     28 H2          0.4800   -2.6390    1.7520 h4        1 24Y      0.178000
     29 H4         -4.5380    1.3410    0.6990 ha        1 24Y      0.148000
     30 H5         -6.9550    0.7840    0.5800 ha        1 24Y      0.134000
     31 H6         -7.6900   -1.4770   -0.1790 ha        1 24Y      0.132000
     32 H7         -5.9890   -3.1860   -0.8230 ha        1 24Y      0.134000
     33 H8         -3.5670   -2.6470   -0.7140 ha        1 24Y      0.148000
     34 H9         -1.6870    3.3170   -1.4250 hc        1 24Y      0.058700
     35 H10        -0.3330    3.9520   -2.4510 hc        1 24Y      0.058700
     36 H11        -0.6390    2.1680   -2.3580 hc        1 24Y      0.058700
     37 H12         2.6200    2.7370    2.4510 h4        1 24Y      0.033100
     38 H13         2.7460    4.7930    0.9760 ha        1 24Y      0.152000
     39 H14         1.2000    4.9470   -1.0080 ha        1 24Y      0.148000
     40 H15         2.6770   -3.5140    1.8570 hn        1 24Y      0.342500
@<TRIPOS>BOND
     1    1    2 1   
     2    2    3 2   
     3    2    4 1   
     4    3    8 1   
     5    3   27 1   
     6    4    5 2   
     7    4    6 1   
     8    6    7 1   
     9    6   40 1   
    10    7    8 2   
    11    7   28 1   
    12    8    9 1   
    13    9   10 2   
    14    9   19 1   
    15   10   11 1   
    16   11   12 1   
    17   11   18 2   
    18   12   13 ar  
    19   12   17 ar  
    20   13   14 ar  
    21   13   29 1   
    22   14   15 ar  
    23   14   30 1   
    24   15   16 ar  
    25   15   31 1   
    26   16   17 ar  
    27   16   32 1   
    28   17   33 1   
    29   18   19 1   
    30   19   20 1   
    31   20   21 ar  
    32   20   23 ar  
    33   21   22 1   
    34   21   26 ar  
    35   22   34 1   
    36   22   35 1   
    37   22   36 1   
    38   23   24 ar  
    39   24   25 ar  
    40   24   37 1   
    41   25   26 ar  
    42   25   38 1   
    43   26   39 1   
@<TRIPOS>SUBSTRUCTURE
     1 24Y         1 TEMP              0 ****  ****    0 ROOT
