@<TRIPOS>MOLECULE
24Y
   40    31     1     0     0
SMALL
bcc


@<TRIPOS>ATOM
      1 CL         -5.0460    0.3630   -3.0780 cl        1 24Y      0.032000
      2 C9         -3.3020    0.3350   -3.0900 c1        1 24Y     -0.187000
      3 C8         -2.5580    0.3210   -1.8240 c1        1 24Y     -0.005000
      4 C10        -2.5550    0.2720   -4.4060 c1        1 24Y      0.331000
      5 O          -3.1710    0.2400   -5.4530 o         1 24Y     -0.333000
      6 N2         -1.0920    0.2490   -4.4170 n2        1 24Y     -0.277000
      7 C11        -0.3480    0.2350   -3.1570 c2        1 24Y      0.082000
      8 C7         -1.0880    0.2980   -1.8380 c1        1 24Y     -0.158000
      9 C6         -0.3170    0.4380   -0.5440 c1        1 24Y      0.001500
     10 N3         -0.2160    1.5530    0.1970 n2        1 24Y     -0.138000
     11 C12         0.5610    1.2780    1.2570 c1        1 24Y      0.001500
     12 C13         1.0050    2.2660    2.3130 c1        1 24Y     -0.011000
     13 C18         2.1520    3.0200    2.1170 c2        1 24Y     -0.092000
     14 C17         2.5130    3.9870    3.0420 c1        1 24Y     -0.140000
     15 C16         1.7270    4.2010    4.1640 c1        1 24Y     -0.122000
     16 C15         0.5810    3.4470    4.3610 c1        1 24Y     -0.122000
     17 C14         0.2200    2.4800    3.4350 c1        1 24Y     -0.101000
     18 N4          0.9390   -0.0060    1.1710 n2        1 24Y     -0.090000
     19 N1          0.3960   -0.5250    0.0570 n2        1 24Y     -0.090000
     20 C5          0.6130   -1.8360   -0.4430 c1        1 24Y      0.112000
     21 C1          0.0750   -2.9280    0.2210 c1        1 24Y     -0.073000
     22 C          -0.7740   -2.7200    1.4530 c2        1 24Y     -0.181000
     23 N           1.4130   -2.0260   -1.5290 n1        1 24Y     -0.157000
     24 C4          1.6850   -3.2880   -1.9640 c1        1 24Y     -0.122000
     25 C3          1.1480   -4.3810   -1.3020 c1        1 24Y     -0.122000
     26 C2          0.3470   -4.1920   -0.2140 c1        1 24Y     -0.092000
     27 H1         -3.0380    0.3620   -0.9740 ha        1 24Y      0.163000
     28 H2          0.6300    0.2190   -3.1680 h4        1 24Y      0.179000
     29 H4          2.7060    2.8700    1.3270 ha        1 24Y      0.152000
     30 H5          3.3210    4.5180    2.9040 ha        1 24Y      0.134000
     31 H6          1.9820    4.8820    4.8160 ha        1 24Y      0.145500
     32 H7          0.0270    3.5980    5.1510 ha        1 24Y      0.145500
     33 H8         -0.5890    1.9490    3.5740 ha        1 24Y      0.146000
     34 H9         -1.6940   -3.0050    1.2680 ha        1 24Y      0.098333
     35 H10        -0.7690   -1.7700    1.6960 ha        1 24Y      0.098333
     36 H11        -0.4110   -3.2480    2.1930 ha        1 24Y      0.098333
     37 H12         2.2580   -3.4230   -2.7420 ha        1 24Y      0.145500
     38 H13         1.3430   -5.2850   -1.6130 ha        1 24Y      0.145500
     39 H14        -0.0320   -4.9610    0.2530 ha        1 24Y      0.149000
     40 H15        -0.6430    0.2110   -5.2120 hn        1 24Y      0.255000
@<TRIPOS>BOND
     1    1    2 1   
     2    2    3 1   
     3    3   27 1   
     4    4    5 1   
     5    6    7 1   
     6    6   40 1   
     7    7    8 1   
     8    7   28 1   
     9    9   10 1   
    10    9   19 1   
    11   10   11 1   
    12   11   18 1   
    13   12   13 1   
    14   12   17 1   
    15   13   14 1   
    16   13   29 1   
    17   14   30 1   
    18   15   16 1   
    19   15   31 1   
    20   16   32 1   
    21   17   33 1   
    22   18   19 1   
    23   20   23 1   
    24   21   26 1   
    25   22   34 1   
    26   22   35 1   
    27   22   36 1   
    28   24   25 1   
    29   24   37 1   
    30   25   38 1   
    31   26   39 1   
@<TRIPOS>SUBSTRUCTURE
     1 24Y         1 TEMP              0 ****  ****    0 ROOT
