@<TRIPOS>MOLECULE
24Z
   45    46     1     0     0
SMALL
bcc


@<TRIPOS>ATOM
      1 N01         2.2920    0.0200    0.3620 nh        1 24Z     -0.748600
      2 N02         3.0250   -3.9930    0.4810 n         1 24Z     -0.671000
      3 N03         4.9020    4.0020    0.7290 nb        1 24Z     -0.666000
      4 N04        -2.4680   -0.6380   -0.2040 nh        1 24Z     -0.723600
      5 N05        -2.0040   -3.5630   -0.6790 no        1 24Z      0.334200
      6 C06         0.3670   -3.0470   -0.3720 ca        1 24Z      0.041000
      7 C07         1.4490   -2.2210   -0.1390 ca        1 24Z     -0.291600
      8 C08         1.2280   -0.8140    0.0630 ca        1 24Z      0.297600
      9 C09        -0.0860   -0.3340    0.0260 ca        1 24Z     -0.336000
     10 C10        -1.2220   -1.1690   -0.2000 ca        1 24Z      0.336600
     11 C11        -0.9570   -2.5720   -0.4130 ca        1 24Z     -0.348200
     12 C13         2.1700    1.4490    0.1940 c3        1 24Z      0.249100
     13 C14         3.4880    2.1470    0.0520 ca        1 24Z     -0.215600
     14 C15         3.7600    3.2970    0.8240 ca        1 24Z      0.408200
     15 C16         5.8260    3.5700   -0.1510 ca        1 24Z      0.392200
     16 C17         5.6520    2.4340   -0.9610 ca        1 24Z     -0.245300
     17 C18         4.4620    1.7140   -0.8550 ca        1 24Z     -0.084000
     18 C19        -2.7270    0.7670    0.0210 c3        1 24Z      0.193800
     19 C20        -4.2120    1.1250   -0.0050 c3        1 24Z     -0.080400
     20 C21        -4.3800    2.6130    0.1780 c3        1 24Z     -0.203400
     21 C22        -5.8540    2.9730    0.4630 c         1 24Z      0.912600
     22 O23         3.8000   -2.2060   -0.6690 o         1 24Z     -0.657100
     23 O24        -6.3000    4.0330   -0.0580 o         1 24Z     -0.841300
     24 O25        -6.5210    2.2050    1.2120 o         1 24Z     -0.841300
     25 O26        -3.1550   -3.2380   -0.8310 o         1 24Z     -0.245500
     26 O27        -1.6890   -4.7290   -0.7500 o         1 24Z     -0.245500
     27 HN01        3.2070   -0.3540    0.2040 hn        1 24Z      0.447800
     28 H102        2.2870   -4.4660    0.9340 hn        1 24Z      0.312500
     29 H202        3.9290   -4.3950    0.4810 hn        1 24Z      0.312500
     30 HN04       -3.2680   -1.2180   -0.3640 hn        1 24Z      0.475800
     31 H06         0.5360   -4.1260   -0.5560 ha        1 24Z      0.159000
     32 H09        -0.2630    0.7410    0.1930 ha        1 24Z      0.154000
     33 H113        1.5480    1.6940   -0.7210 h1        1 24Z      0.059700
     34 H213        1.6190    1.8570    1.0930 h1        1 24Z      0.059700
     35 H15         3.0210    3.6740    1.5550 h4        1 24Z      0.028100
     36 H16         6.7530    4.1680   -0.2040 h4        1 24Z      0.018100
     37 H17         6.4380    2.1230   -1.6610 ha        1 24Z      0.143000
     38 H18         4.2970    0.8200   -1.4770 ha        1 24Z      0.156000
     39 H119       -2.2990    1.0600    1.0240 h1        1 24Z      0.041200
     40 H219       -2.1910    1.3660   -0.7720 h1        1 24Z      0.041200
     41 H120       -4.6710    0.8110   -0.9780 hc        1 24Z      0.063200
     42 H220       -4.7650    0.5960    0.8180 hc        1 24Z      0.063200
     43 H121       -3.7750    2.9690    1.0500 hc        1 24Z      0.023700
     44 H221       -4.0330    3.1630   -0.7320 hc        1 24Z      0.023700
     45 C12         2.8220   -2.7840   -0.1370 c         1 24Z      0.696700
@<TRIPOS>BOND
     1    1    8 1   
     2    1   12 1   
     3    1   27 1   
     4    2   28 1   
     5    2   29 1   
     6    2   45 1   
     7    3   14 ar  
     8    3   15 ar  
     9    4   10 1   
    10    4   18 1   
    11    4   30 1   
    12    5   11 1   
    13    5   25 1   
    14    5   26 1   
    15    6    7 ar  
    16    6   11 ar  
    17    6   31 1   
    18    7    8 ar  
    19    7   45 1   
    20    8    9 ar  
    21    9   10 ar  
    22    9   32 1   
    23   10   11 ar  
    24   12   13 1   
    25   12   33 1   
    26   12   34 1   
    27   13   14 ar  
    28   13   17 ar  
    29   14   35 1   
    30   15   16 ar  
    31   15   36 1   
    32   16   17 ar  
    33   16   37 1   
    34   17   38 1   
    35   18   19 1   
    36   18   39 1   
    37   18   40 1   
    38   19   20 1   
    39   19   41 1   
    40   19   42 1   
    41   20   21 1   
    42   20   43 1   
    43   20   44 1   
    44   21   23 1   
    45   21   24 1   
    46   22   45 2   
@<TRIPOS>SUBSTRUCTURE
     1 24Z         1 TEMP              0 ****  ****    0 ROOT
