@<TRIPOS>MOLECULE
24Z
   45    42     1     0     0
SMALL
bcc


@<TRIPOS>ATOM
      1 N01        -1.4730    0.1300    1.4320 nh        1 24Z     -0.754000
      2 N02         1.5740    0.0060    4.5320 n         1 24Z     -0.673000
      3 N03        -5.8530    1.4700    1.7970 n1        1 24Z     -0.140000
      4 N04         1.9020    0.2430   -2.1100 nh        1 24Z     -0.725000
      5 N05         3.9680   -0.1660   -0.1650 n2        1 24Z      0.480400
      6 C06         2.2400   -0.0080    1.6170 cg        1 24Z      0.006700
      7 C07         0.8990    0.0420    2.0140 ce        1 24Z     -0.253900
      8 C08        -0.1220    0.1230    1.0430 cf        1 24Z      0.302000
      9 C09         0.2080    0.1530   -0.3210 cf        1 24Z     -0.339000
     10 C10         1.5610    0.1030   -0.7200 ce        1 24Z      0.371300
     11 C11         2.5720    0.0230    0.2450 ch        1 24Z     -0.336300
     12 C12         0.5420    0.1280    3.5700 c         1 24Z      0.694300
     13 C13        -2.1140    1.4070    1.9160 c3        1 24Z      0.247000
     14 C14        -3.5240    1.1500    2.2700 ce        1 24Z     -0.147200
     15 C15        -4.5550    1.5790    1.4090 ce        1 24Z     -0.056000
     16 C16        -6.1830    0.9170    3.0860 c1        1 24Z     -0.012500
     17 C17        -5.1860    0.4990    3.9280 ch        1 24Z     -0.217300
     18 C18        -3.8450    0.6080    3.5340 cf        1 24Z     -0.042700
     19 C19         1.4660   -0.7800   -3.0900 c3        1 24Z      0.193800
     20 C20         2.4990   -0.8550   -4.2660 c3        1 24Z     -0.080400
     21 C21         1.8690   -1.6050   -5.4580 c3        1 24Z     -0.203400
     22 C22         2.8830   -1.7060   -6.5800 c         1 24Z      0.912600
     23 O23        -0.6080    0.1770    3.9250 o         1 24Z     -0.650100
     24 O24         3.0190   -0.6910   -7.4500 o         1 24Z     -0.841300
     25 O25         3.5290   -2.7910   -6.7590 o         1 24Z     -0.841300
     26 O26         4.3600    0.2480   -1.3120 o         1 24Z     -0.341700
     27 O27         4.7380   -0.5190    0.6020 o         1 24Z     -0.341700
     28 HN01       -1.9780   -0.6570    1.3820 hn        1 24Z      0.453800
     29 H102        1.3700    0.1240    5.4890 hn        1 24Z      0.311500
     30 H202        2.5250   -0.0730    4.2340 hn        1 24Z      0.311500
     31 HN04        2.3480    0.9220   -2.3720 hn        1 24Z      0.475800
     32 H06         2.9700   -0.1640    2.3130 DU        1 24Z      0.150500
     33 H09        -0.4370    0.0900   -0.9320 ha        1 24Z      0.153000
     34 H113       -1.6670    1.7070    2.6490 h1        1 24Z      0.057700
     35 H213       -2.0770    2.0560    1.2360 h1        1 24Z      0.057700
     36 H15        -4.3460    1.9430    0.5600 h4        1 24Z      0.165000
     37 H16        -7.1930    0.8350    3.3800 ha        1 24Z      0.098500
     38 H17        -5.4270    0.0490    4.8380 DU        1 24Z      0.150500
     39 H18        -3.1670    0.3240    4.1090 ha        1 24Z      0.149000
     40 H119        0.5540   -0.5310   -3.4610 h1        1 24Z      0.041200
     41 H219        1.4090   -1.6770   -2.6310 h1        1 24Z      0.041200
     42 H120        3.2640   -1.3080   -3.9810 hc        1 24Z      0.063200
     43 H220        2.7500    0.0870   -4.5560 hc        1 24Z      0.063200
     44 H121        1.6120   -2.4740   -5.1860 hc        1 24Z      0.024200
     45 H221        1.1230   -1.1380   -5.7570 hc        1 24Z      0.024200
@<TRIPOS>BOND
     1    1    8 1   
     2    1   13 1   
     3    1   28 1   
     4    2   12 1   
     5    2   29 1   
     6    2   30 1   
     7    3   15 2   
     8    4   10 1   
     9    4   19 1   
    10    4   31 1   
    11    5   26 2   
    12    5   27 2   
    13    6    7 1   
    14    6   11 3   
    15    7    8 2   
    16    7   12 1   
    17    8    9 1   
    18    9   10 2   
    19    9   33 1   
    20   10   11 1   
    21   12   23 2   
    22   13   14 1   
    23   13   34 1   
    24   13   35 1   
    25   14   15 1   
    26   14   18 2   
    27   15   36 1   
    28   16   17 3   
    29   16   37 1   
    30   17   18 1   
    31   18   39 1   
    32   19   20 1   
    33   19   40 1   
    34   19   41 1   
    35   20   21 1   
    36   20   42 1   
    37   20   43 1   
    38   21   22 1   
    39   21   44 1   
    40   21   45 1   
    41   22   24 1   
    42   22   25 1   
@<TRIPOS>SUBSTRUCTURE
     1 24Z         1 TEMP              0 ****  ****    0 ROOT
