@<TRIPOS>MOLECULE
24Z
   46    45     1     0     0
SMALL
bcc


@<TRIPOS>ATOM
      1 N01        -0.2170    0.0850   -0.1400 n3        1 24Z     -0.283000
      2 N02         3.1260    0.0900    2.4250 n3        1 24Z     -0.427000
      3 N03        -3.3130   -3.3370    0.2790 n1        1 24Z     -0.061000
      4 N04         3.0970    0.2090   -3.7600 n3        1 24Z     -0.314000
      5 N05         4.4580    0.6140   -1.1670 no        1 24Z      0.540000
      6 C06         3.2320   -1.3610   -0.2740 c1        1 24Z     -0.107000
      7 C07         1.9070   -1.1450    0.0570 c2        1 24Z     -0.263000
      8 C08         1.0030   -0.2980   -0.7460 c2        1 24Z      0.041000
      9 C09         1.3990    0.0260   -2.0020 c2        1 24Z     -0.232000
     10 C10         2.6550   -0.5460   -2.5960 c3        1 24Z      0.017000
     11 C11         3.7610   -0.7070   -1.5080 c3        1 24Z     -0.100000
     12 C13        -1.1010    0.9190   -0.9410 c3        1 24Z      0.043000
     13 C14        -2.2920    1.3140   -0.2300 c1        1 24Z     -0.195000
     14 C15        -3.0220   -2.2260    0.1130 c1        1 24Z     -0.192000
     15 C16        -4.7750    1.8650    2.2320 c2        1 24Z     -0.176000
     16 C17        -4.4740    2.1000    0.9510 c2        1 24Z     -0.078000
     17 C18        -3.2920    1.6690    0.3280 c1        1 24Z     -0.090000
     18 C19         2.5070   -0.2470   -5.0020 c3        1 24Z     -0.064000
     19 C20         3.0420    0.5170   -6.2150 c3        1 24Z     -0.162000
     20 C21         2.3550    0.0430   -7.4550 cx        1 24Z     -0.039000
     21 C22         3.0170    0.0690   -8.7510 cu        1 24Z      0.289000
     22 O23         1.1230   -2.2070    2.2260 o         1 24Z     -0.036000
     23 O24         2.9590   -1.1470   -8.1170 os        1 24Z     -0.266000
     24 O25         3.4770    0.4340   -9.8040 o         1 24Z     -0.216000
     25 O26         4.1870    1.1900   -0.1500 o         1 24Z     -0.365500
     26 O27         5.2900    1.0170   -1.9330 o         1 24Z     -0.365500
     27 HN01       -0.0600    0.4810    0.7690 hn        1 24Z      0.186000
     28 H102        3.4480    0.2210    3.3620 hn        1 24Z      0.144333
     29 H202        2.9620    0.9880    2.0140 hn        1 24Z      0.144333
     30 HN04        4.0980    0.2410   -3.8240 hn        1 24Z      0.185000
     31 H06         4.5860   -1.3610   -1.9260 h1        1 24Z      0.156000
     32 H09         2.4100   -1.6240   -2.8830 h1        1 24Z      0.094000
     33 H113       -0.5810    1.8590   -1.3060 h1        1 24Z      0.105000
     34 H213       -1.3980    0.3190   -1.8540 h1        1 24Z      0.105000
     35 H15        -2.7500   -1.1990   -0.0400 ha        1 24Z      0.250000
     36 H16        -4.1160    1.3080    2.9110 ha        1 24Z      0.123000
     37 H17        -5.7130    2.2230    2.6760 ha        1 24Z      0.123000
     38 H18        -5.1620    2.6660    0.2940 ha        1 24Z      0.144000
     39 H119        0.8150    0.6970   -2.6490 ha        1 24Z      0.150000
     40 H219        1.3940   -0.0860   -4.9260 h1        1 24Z      0.077000
     41 H120        2.6750   -1.3510   -5.1810 h1        1 24Z      0.077000
     42 H220        2.8490    1.6170   -6.0980 hc        1 24Z      0.116000
     43 H121        4.1510    0.3710   -6.3040 hc        1 24Z      0.116000
     44 H221        1.2490   -0.0110   -7.3990 h1        1 24Z      0.152000
     45 H023        3.8480   -0.3610    1.8950 hn        1 24Z      0.144333
     46 C12         1.4760   -1.7090    1.2300 c1        1 24Z      0.509000
@<TRIPOS>BOND
     1    1    8 1   
     2    1   12 1   
     3    1   27 1   
     4    2   28 1   
     5    2   29 1   
     6    2   45 1   
     7    3   14 1   
     8    4   10 1   
     9    4   18 1   
    10    4   30 1   
    11    5   11 1   
    12    5   25 1   
    13    5   26 1   
    14    6    7 1   
    15    6   11 1   
    16    7    8 1   
    17    7   46 1   
    18    8    9 1   
    19    9   10 1   
    20    9   39 1   
    21   10   11 1   
    22   10   32 1   
    23   11   31 1   
    24   12   13 1   
    25   12   33 1   
    26   12   34 1   
    27   13   17 1   
    28   14   35 1   
    29   15   16 1   
    30   15   36 1   
    31   15   37 1   
    32   16   17 1   
    33   16   38 1   
    34   18   19 1   
    35   18   40 1   
    36   18   41 1   
    37   19   20 1   
    38   19   42 1   
    39   19   43 1   
    40   20   21 1   
    41   20   23 1   
    42   20   44 1   
    43   21   23 1   
    44   21   24 1   
    45   22   46 1   
@<TRIPOS>SUBSTRUCTURE
     1 24Z         1 TEMP              0 ****  ****    0 ROOT
