@<TRIPOS>MOLECULE
24Z
   46    45     1     0     0
SMALL
bcc


@<TRIPOS>ATOM
      1 N01        -0.2080    0.0830   -0.1350 n7        1 24Z     -0.283000
      2 N02         3.1490    0.0670    2.4130 n9        1 24Z     -0.427000
      3 N03        -3.3270   -3.3150    0.3070 n1        1 24Z     -0.061000
      4 N04         3.0880    0.1800   -3.7730 n7        1 24Z     -0.314000
      5 N05         4.4660    0.5780   -1.1870 no        1 24Z      0.540000
      6 C06         3.2300   -1.3870   -0.2850 c1        1 24Z     -0.107000
      7 C07         1.9080   -1.1620    0.0520 c2        1 24Z     -0.263000
      8 C08         1.0060   -0.3090   -0.7470 c2        1 24Z      0.041000
      9 C09         1.3980    0.0110   -2.0060 c2        1 24Z     -0.232000
     10 C10         2.6460   -0.5710   -2.6050 c3        1 24Z      0.017000
     11 C11         3.7570   -0.7390   -1.5230 c3        1 24Z     -0.100000
     12 C13        -1.0910    0.9230   -0.9320 c3        1 24Z      0.043000
     13 C14        -2.2750    1.3270   -0.2160 c1        1 24Z     -0.195000
     14 C15        -3.0290   -2.2060    0.1370 c1        1 24Z     -0.192000
     15 C16        -4.7350    1.9090    2.2620 c2        1 24Z     -0.176000
     16 C17        -4.4450    2.1300    0.9760 c2        1 24Z     -0.078000
     17 C18        -3.2690    1.6900    0.3470 c1        1 24Z     -0.090000
     18 C19         2.4890   -0.2730   -5.0110 c3        1 24Z     -0.064000
     19 C20         3.0220    0.4860   -6.2270 c3        1 24Z     -0.162000
     20 C21         2.3260    0.0150   -7.4630 cx        1 24Z     -0.039000
     21 C22         2.9810    0.0350   -8.7630 cu        1 24Z      0.289000
     22 O23         1.1270   -2.2150    2.2260 o         1 24Z     -0.036000
     23 O24         2.9180   -1.1790   -8.1270 os        1 24Z     -0.266000
     24 O25         3.4380    0.3970   -9.8190 o         1 24Z     -0.216000
     25 O26         4.2040    1.1570   -0.1690 o         1 24Z     -0.365500
     26 O27         5.2960    0.9740   -1.9570 o         1 24Z     -0.365500
     27 HN01       -0.0430    0.4790    0.7730 hn        1 24Z      0.186000
     28 H102        3.4760    0.1970    3.3480 hn        1 24Z      0.144333
     29 H202        2.9890    0.9660    2.0010 hn        1 24Z      0.144333
     30 HN04        4.0890    0.2050   -3.8410 hn        1 24Z      0.185000
     31 H06         4.5750   -1.3990   -1.9440 h1        1 24Z      0.156000
     32 H09         2.3930   -1.6470   -2.8890 h1        1 24Z      0.094000
     33 H113       -1.3960    0.3250   -1.8440 h1        1 24Z      0.105000
     34 H213       -0.5650    1.8590   -1.3010 h1        1 24Z      0.105000
     35 H15        -2.7500   -1.1820   -0.0190 ha        1 24Z      0.250000
     36 H16        -4.0720    1.3580    2.9410 ha        1 24Z      0.123000
     37 H17        -5.6690    2.2740    2.7100 ha        1 24Z      0.123000
     38 H18        -5.1370    2.6900    0.3190 ha        1 24Z      0.144000
     39 H119        0.8150    0.6850   -2.6500 ha        1 24Z      0.150000
     40 H219        2.6480   -1.3790   -5.1900 h1        1 24Z      0.077000
     41 H120        1.3770   -0.1050   -4.9290 h1        1 24Z      0.077000
     42 H220        4.1300    0.3320   -6.3220 hc        1 24Z      0.116000
     43 H121        2.8380    1.5870   -6.1110 hc        1 24Z      0.116000
     44 H221        1.2190   -0.0310   -7.4010 h1        1 24Z      0.152000
     45 H023        3.8640   -0.3900    1.8790 hn        1 24Z      0.144333
     46 C12         1.4790   -1.7210    1.2280 c1        1 24Z      0.509000
@<TRIPOS>BOND
     1    1    8 1   
     2    1   12 1   
     3    1   27 1   
     4    2   28 1   
     5    2   29 1   
     6    2   45 1   
     7    3   14 1   
     8    4   10 1   
     9    4   18 1   
    10    4   30 1   
    11    5   11 1   
    12    5   25 1   
    13    5   26 1   
    14    6    7 1   
    15    6   11 1   
    16    7    8 1   
    17    7   46 1   
    18    8    9 1   
    19    9   10 1   
    20    9   39 1   
    21   10   11 1   
    22   10   32 1   
    23   11   31 1   
    24   12   13 1   
    25   12   33 1   
    26   12   34 1   
    27   13   17 1   
    28   14   35 1   
    29   15   16 1   
    30   15   36 1   
    31   15   37 1   
    32   16   17 1   
    33   16   38 1   
    34   18   19 1   
    35   18   40 1   
    36   18   41 1   
    37   19   20 1   
    38   19   42 1   
    39   19   43 1   
    40   20   21 1   
    41   20   23 1   
    42   20   44 1   
    43   21   23 1   
    44   21   24 1   
    45   22   46 1   
@<TRIPOS>SUBSTRUCTURE
     1 24Z         1 TEMP              0 ****  ****    0 ROOT
