@<TRIPOS>MOLECULE
24Z
   45    44     1     0     0
SMALL
bcc


@<TRIPOS>ATOM
      1 N01        -0.2280   -0.1160   -0.4630 n3        1 24Z     -0.273000
      2 N02         2.7530   -0.7080    2.5990 n         1 24Z     -0.403000
      3 N03        -3.0470   -0.4600    4.5870 n1        1 24Z     -0.106000
      4 N04         3.3170   -0.0260   -3.7340 n3        1 24Z     -0.246000
      5 N05         5.2590   -0.5810   -1.5790 no        1 24Z      0.534000
      6 C06         3.3430   -0.8740   -0.0850 c1        1 24Z     -0.253000
      7 C07         2.0620   -0.6120    0.2640 c2        1 24Z     -0.285000
      8 C08         1.0810   -0.2710   -0.7600 c2        1 24Z      0.289000
      9 C09         1.5490   -0.0760   -2.0950 c2        1 24Z     -0.416000
     10 C10         2.8730   -0.2920   -2.4920 c2        1 24Z      0.180000
     11 C11         3.7790   -0.9870   -1.4760 c3        1 24Z     -0.052000
     12 C13        -1.2270    0.2620   -1.4400 c3        1 24Z      0.080000
     13 C14        -2.5580    0.3280   -0.8920 c1        1 24Z     -0.192000
     14 C15        -2.0130   -0.5200    4.0620 c1        1 24Z     -0.177000
     15 C16        -5.3540    0.3170    1.2760 c2        1 24Z     -0.178000
     16 C17        -4.9980    0.4750   -0.0030 c2        1 24Z     -0.080000
     17 C18        -3.6770    0.3920   -0.4690 c1        1 24Z     -0.080000
     18 C19         2.4730    0.5120   -4.7820 c3        1 24Z     -0.052000
     19 C20         3.1810    0.6260   -6.1290 c3        1 24Z     -0.164000
     20 C21         2.2280    1.1630   -7.1680 c3        1 24Z     -0.233000
     21 C22         2.7480    0.8780   -8.5950 c2        1 24Z      0.333000
     22 O23         0.5390   -0.6010    2.1550 o         1 24Z     -0.507000
     23 O24         2.4790    1.7290   -9.4870 o         1 24Z     -0.573500
     24 O25         3.3890   -0.1940   -8.7920 o         1 24Z     -0.573500
     25 O26         5.5430    0.5350   -1.9160 o         1 24Z     -0.361500
     26 O27         6.0870   -1.4150   -1.3470 o         1 24Z     -0.361500
     27 HN01       -0.5270   -0.2270    0.4900 hn        1 24Z      0.285000
     28 H102        2.5620   -0.8000    3.5630 hn        1 24Z      0.235500
     29 H202        3.6820   -0.8090    2.2610 hn        1 24Z      0.235500
     30 HN04        4.2890   -0.1070   -3.9500 hn        1 24Z      0.255000
     31 H06         3.7620   -2.1000   -1.7230 h1        1 24Z      0.180000
     32 H09         0.8400    0.3060   -2.8470 ha        1 24Z      0.148000
     33 H113       -0.9600    1.2760   -1.8750 h1        1 24Z      0.114500
     34 H213       -1.2160   -0.4900   -2.2890 h1        1 24Z      0.114500
     35 H15        -1.0570   -0.5750    3.5670 ha        1 24Z      0.279000
     36 H16        -4.6360    0.1060    2.0790 ha        1 24Z      0.125000
     37 H17        -6.4030    0.3900    1.5920 ha        1 24Z      0.125000
     38 H18        -5.7500    0.6860   -0.7870 ha        1 24Z      0.138000
     39 H119        2.1030    1.5300   -4.4630 h1        1 24Z      0.090000
     40 H219        1.5750   -0.1630   -4.8940 h1        1 24Z      0.090000
     41 H120        4.0700    1.3030   -6.0450 hc        1 24Z      0.104000
     42 H220        3.5500   -0.3800   -6.4720 hc        1 24Z      0.104000
     43 H121        1.2280    0.6680   -7.0770 hc        1 24Z      0.065500
     44 H221        2.0820    2.2630   -7.0410 hc        1 24Z      0.065500
     45 C12         1.7190   -0.6410    1.7050 c2        1 24Z      0.396000
@<TRIPOS>BOND
     1    1    8 1   
     2    1   12 1   
     3    1   27 1   
     4    2   28 1   
     5    2   29 1   
     6    2   45 1   
     7    3   14 1   
     8    4   10 1   
     9    4   18 1   
    10    4   30 1   
    11    5   11 1   
    12    5   25 1   
    13    5   26 1   
    14    6    7 1   
    15    6   11 1   
    16    7    8 1   
    17    7   45 1   
    18    8    9 1   
    19    9   10 1   
    20    9   32 1   
    21   10   11 1   
    22   11   31 1   
    23   12   13 1   
    24   12   33 1   
    25   12   34 1   
    26   13   17 1   
    27   14   35 1   
    28   15   16 1   
    29   15   36 1   
    30   15   37 1   
    31   16   17 1   
    32   16   38 1   
    33   18   19 1   
    34   18   39 1   
    35   18   40 1   
    36   19   20 1   
    37   19   41 1   
    38   19   42 1   
    39   20   21 1   
    40   20   43 1   
    41   20   44 1   
    42   21   23 1   
    43   21   24 1   
    44   22   45 1   
@<TRIPOS>SUBSTRUCTURE
     1 24Z         1 TEMP              0 ****  ****    0 ROOT
