@<TRIPOS>MOLECULE
250
   36    36     1     0     0
SMALL
bcc


@<TRIPOS>ATOM
      1 O1          0.7750    0.1820    0.3180 o         1 250     -0.750867
      2 S1          2.0170    0.7610    0.6920 s6        1 250      1.430800
      3 O2          1.9290    1.6620    1.7800 o         1 250     -0.750867
      4 O3          3.0830   -0.1580    0.7850 o         1 250     -0.750867
      5 C1          2.4210    1.7940   -0.7000 c3        1 250     -0.342600
      6 C2          1.2400    2.6340   -1.1370 c3        1 250      0.194100
      7 O4          0.3940    1.9070   -2.0240 oh        1 250     -0.642800
      8 C3          1.6730    3.8860   -1.9270 c3        1 250      0.171800
      9 N1          1.7390    5.1000   -1.1240 n3        1 250     -0.728600
     10 C7          2.6130    4.9930    0.0350 c3        1 250      0.163800
     11 C6          2.6480    6.2880    0.8680 c3        1 250      0.168800
     12 N2          2.9350    7.4790    0.0760 n3        1 250     -0.742600
     13 C5          2.1010    7.5670   -1.1150 c3        1 250      0.168800
     14 C4          2.0710    6.2620   -1.9340 c3        1 250      0.163800
     15 C8          2.8850    8.7000    0.8670 c3        1 250      0.129800
     16 C9          4.1380    8.9110    1.7280 c3        1 250      0.134400
     17 O5          5.2800    9.2030    0.9500 oh        1 250     -0.613800
     18 H11         3.2750    2.4540   -0.4210 h1        1 250      0.076700
     19 H12         2.7610    1.1570   -1.5500 h1        1 250      0.076700
     20 H2          0.6310    2.9240   -0.2300 h1        1 250      0.054700
     21 HO4         0.1520    1.0930   -1.5520 ho        1 250      0.442000
     22 H31         0.9090    4.0680   -2.7360 h1        1 250      0.033200
     23 H32         2.6590    3.6670   -2.4300 h1        1 250      0.033200
     24 H71         2.2250    4.1650    0.6990 h1        1 250      0.045200
     25 H72         3.6700    4.7300   -0.2650 h1        1 250      0.045200
     26 H61         1.6680    6.3870    1.4210 h1        1 250      0.031700
     27 H62         3.4660    6.1790    1.6330 h1        1 250      0.031700
     28 H51         2.5260    8.3750   -1.7730 h1        1 250      0.031700
     29 H52         1.0400    7.8530   -0.8570 h1        1 250      0.031700
     30 H41         1.2780    6.3750   -2.7250 h1        1 250      0.045200
     31 H42         3.0650    6.1430   -2.4580 h1        1 250      0.045200
     32 H81         1.9880    8.7230    1.5530 h1        1 250      0.035700
     33 H82         2.8050    9.5790    0.1670 h1        1 250      0.035700
     34 H91         4.3370    8.0220    2.3840 h1        1 250      0.041200
     35 H92         3.9910    9.8210    2.3700 h1        1 250      0.041200
     36 HO5         5.3960    8.4750    0.3270 ho        1 250      0.416000
@<TRIPOS>BOND
     1    1    2 1   
     2    2    3 1   
     3    2    4 1   
     4    2    5 1   
     5    5    6 1   
     6    5   18 1   
     7    5   19 1   
     8    6    7 1   
     9    6    8 1   
    10    6   20 1   
    11    7   21 1   
    12    8    9 1   
    13    8   22 1   
    14    8   23 1   
    15    9   10 1   
    16    9   14 1   
    17   10   11 1   
    18   10   24 1   
    19   10   25 1   
    20   11   12 1   
    21   11   26 1   
    22   11   27 1   
    23   12   13 1   
    24   12   15 1   
    25   13   14 1   
    26   13   28 1   
    27   13   29 1   
    28   14   30 1   
    29   14   31 1   
    30   15   16 1   
    31   15   32 1   
    32   15   33 1   
    33   16   17 1   
    34   16   34 1   
    35   16   35 1   
    36   17   36 1   
@<TRIPOS>SUBSTRUCTURE
     1 250         1 TEMP              0 ****  ****    0 ROOT
