@<TRIPOS>MOLECULE
250
   36    36     1     0     0
SMALL
bcc


@<TRIPOS>ATOM
      1 O1          0.7020    0.2100    0.3520 o         1 250     -0.750867
      2 S1          1.9740    0.7600    0.6640 s6        1 250      1.430800
      3 O2          1.9650    1.6480    1.7660 o         1 250     -0.750867
      4 O3          3.0240   -0.1820    0.6880 o         1 250     -0.750867
      5 C1          2.3230    1.8020   -0.7360 c3        1 250     -0.342600
      6 C2          1.1380    2.6710   -1.0980 c3        1 250      0.194100
      7 O4          0.2300    1.9720   -1.9460 oh        1 250     -0.642800
      8 C3          1.5540    3.9240   -1.8970 c3        1 250      0.171800
      9 N1          1.6890    5.1260   -1.0850 n3        1 250     -0.728600
     10 C7          2.6230    4.9860    0.0220 c3        1 250      0.163800
     11 C6          2.7310    6.2690    0.8670 c3        1 250      0.168800
     12 N2          2.9990    7.4640    0.0740 n3        1 250     -0.742600
     13 C5          2.1030    7.5840   -1.0680 c3        1 250      0.168800
     14 C4          2.0010    6.2900   -1.8990 c3        1 250      0.163800
     15 C8          3.0190    8.6760    0.8800 c3        1 250      0.129800
     16 C9          4.3210    8.8510    1.6730 c3        1 250      0.134400
     17 O5          5.4240    9.1300    0.8360 oh        1 250     -0.613800
     18 H11         2.6030    1.1680   -1.6110 h1        1 250      0.076700
     19 H12         3.2050    2.4400   -0.4970 h1        1 250      0.076700
     20 H2          0.5860    2.9620   -0.1560 h1        1 250      0.054700
     21 HO4        -0.0030    1.1570   -1.4700 ho        1 250      0.442000
     22 H31         2.5060    3.6900   -2.4560 h1        1 250      0.033200
     23 H32         0.7510    4.1300   -2.6610 h1        1 250      0.033200
     24 H71         2.2550    4.1590    0.6980 h1        1 250      0.045200
     25 H72         3.6560    4.7060   -0.3380 h1        1 250      0.045200
     26 H61         3.5870    6.1350    1.5850 h1        1 250      0.031700
     27 H62         1.7850    6.3820    1.4740 h1        1 250      0.031700
     28 H51         2.5080    8.3920   -1.7400 h1        1 250      0.031700
     29 H52         1.0630    7.8890   -0.7490 h1        1 250      0.031700
     30 H41         2.9610    6.1580   -2.4790 h1        1 250      0.045200
     31 H42         1.1680    6.4290   -2.6440 h1        1 250      0.045200
     32 H81         2.9180    9.5660    0.1950 h1        1 250      0.035700
     33 H82         2.1610    8.7090    1.6140 h1        1 250      0.035700
     34 H91         4.2290    9.7560    2.3320 h1        1 250      0.041200
     35 H92         4.5370    7.9500    2.3070 h1        1 250      0.041200
     36 HO5         5.4900    8.4080    0.1990 ho        1 250      0.416000
@<TRIPOS>BOND
     1    1    2 1   
     2    2    3 1   
     3    2    4 1   
     4    2    5 1   
     5    5    6 1   
     6    5   18 1   
     7    5   19 1   
     8    6    7 1   
     9    6    8 1   
    10    6   20 1   
    11    7   21 1   
    12    8    9 1   
    13    8   22 1   
    14    8   23 1   
    15    9   10 1   
    16    9   14 1   
    17   10   11 1   
    18   10   24 1   
    19   10   25 1   
    20   11   12 1   
    21   11   26 1   
    22   11   27 1   
    23   12   13 1   
    24   12   15 1   
    25   13   14 1   
    26   13   28 1   
    27   13   29 1   
    28   14   30 1   
    29   14   31 1   
    30   15   16 1   
    31   15   32 1   
    32   15   33 1   
    33   16   17 1   
    34   16   34 1   
    35   16   35 1   
    36   17   36 1   
@<TRIPOS>SUBSTRUCTURE
     1 250         1 TEMP              0 ****  ****    0 ROOT
