@<TRIPOS>MOLECULE
250
   36    36     1     0     0
SMALL
bcc


@<TRIPOS>ATOM
      1 O1          4.0290    0.2470    0.7720 o         1 250     -0.750867
      2 S1          3.1620    1.1250    0.0690 s6        1 250      1.430800
      3 O2          2.2560    1.8280    0.8980 o         1 250     -0.750867
      4 O3          3.8050    1.9270   -0.8980 o         1 250     -0.750867
      5 C1          2.1300    0.0170   -0.8670 c3        1 250     -0.342600
      6 C2          1.6070   -1.1180   -0.0130 c3        1 250      0.194100
      7 O4          2.5500   -2.1840    0.0570 oh        1 250     -0.642800
      8 C3          0.3270   -1.7490   -0.5990 c3        1 250      0.171800
      9 N1         -0.9060   -1.2520   -0.0020 n3        1 250     -0.728600
     10 C7         -1.0580    0.1930   -0.0810 c3        1 250      0.163800
     11 C6         -2.3630    0.6850    0.5710 c3        1 250      0.168800
     12 N2         -3.5500   -0.0150    0.0920 n3        1 250     -0.742600
     13 C5         -3.3870   -1.4630    0.1190 c3        1 250      0.168800
     14 C4         -2.0730   -1.9390   -0.5320 c3        1 250      0.163800
     15 C8         -4.7620    0.4090    0.7780 c3        1 250      0.129800
     16 C9         -5.2960    1.7570    0.2780 c3        1 250      0.134400
     17 O5         -5.8080    1.6770   -1.0370 oh        1 250     -0.613800
     18 H11         1.2780    0.5950   -1.2950 h1        1 250      0.076700
     19 H12         2.7100   -0.3980   -1.7240 h1        1 250      0.076700
     20 H2          1.4230   -0.7420    1.0370 h1        1 250      0.054700
     21 HO4         3.3750   -1.7870    0.3830 ho        1 250      0.442000
     22 H31         0.3360   -1.6010   -1.7180 h1        1 250      0.033200
     23 H32         0.3650   -2.8580   -0.4010 h1        1 250      0.033200
     24 H71        -0.1950    0.6740    0.4680 h1        1 250      0.045200
     25 H72        -1.0320    0.5550   -1.1510 h1        1 250      0.045200
     26 H61        -2.2590    0.6010    1.6920 h1        1 250      0.031700
     27 H62        -2.4820    1.7750    0.3170 h1        1 250      0.031700
     28 H51        -3.4330   -1.8660    1.1720 h1        1 250      0.031700
     29 H52        -4.2400   -1.9150   -0.4610 h1        1 250      0.031700
     30 H41        -2.1630   -1.8200   -1.6520 h1        1 250      0.045200
     31 H42        -1.9630   -3.0370   -0.3120 h1        1 250      0.045200
     32 H81        -5.5650   -0.3610    0.5980 h1        1 250      0.035700
     33 H82        -4.6100    0.4910    1.8940 h1        1 250      0.035700
     34 H91        -6.1770    2.0570    0.9070 h1        1 250      0.041200
     35 H92        -4.5090    2.5550    0.3350 h1        1 250      0.041200
     36 HO5        -5.0980    1.3440   -1.6010 ho        1 250      0.416000
@<TRIPOS>BOND
     1    1    2 1   
     2    2    3 1   
     3    2    4 1   
     4    2    5 1   
     5    5    6 1   
     6    5   18 1   
     7    5   19 1   
     8    6    7 1   
     9    6    8 1   
    10    6   20 1   
    11    7   21 1   
    12    8    9 1   
    13    8   22 1   
    14    8   23 1   
    15    9   10 1   
    16    9   14 1   
    17   10   11 1   
    18   10   24 1   
    19   10   25 1   
    20   11   12 1   
    21   11   26 1   
    22   11   27 1   
    23   12   13 1   
    24   12   15 1   
    25   13   14 1   
    26   13   28 1   
    27   13   29 1   
    28   14   30 1   
    29   14   31 1   
    30   15   16 1   
    31   15   32 1   
    32   15   33 1   
    33   16   17 1   
    34   16   34 1   
    35   16   35 1   
    36   17   36 1   
@<TRIPOS>SUBSTRUCTURE
     1 250         1 TEMP              0 ****  ****    0 ROOT
