@<TRIPOS>MOLECULE
250
   36    36     1     0     0
SMALL
bcc


@<TRIPOS>ATOM
      1 O1          0.7500    0.2260    0.4280 o         1 250     -0.750867
      2 S1          2.0170    0.7900    0.7370 s6        1 250      1.430800
      3 O2          1.9970    1.6910    1.8290 o         1 250     -0.750867
      4 O3          3.0750   -0.1420    0.7740 o         1 250     -0.750867
      5 C1          2.3600    1.8200   -0.6740 c3        1 250     -0.342600
      6 C2          1.1690    2.6750   -1.0480 c3        1 250      0.194100
      7 O4          0.2690    1.9580   -1.8900 oh        1 250     -0.642800
      8 C3          1.5750    3.9220   -1.8590 c3        1 250      0.171800
      9 N1          1.6980    5.1340   -1.0600 n3        1 250     -0.728600
     10 C7          2.6300    5.0150    0.0510 c3        1 250      0.163800
     11 C6          2.7240    6.3080    0.8820 c3        1 250      0.168800
     12 N2          2.9840    7.4970    0.0770 n3        1 250     -0.742600
     13 C5          2.0900    7.5960   -1.0690 c3        1 250      0.168800
     14 C4          2.0010    6.2930   -1.8860 c3        1 250      0.163800
     15 C8          2.9900    8.7170    0.8700 c3        1 250      0.129800
     16 C9          4.2880    8.9120    1.6640 c3        1 250      0.134400
     17 O5          5.3920    9.1920    0.8280 oh        1 250     -0.613800
     18 H11         3.2360    2.4690   -0.4400 h1        1 250      0.076700
     19 H12         2.6480    1.1790   -1.5400 h1        1 250      0.076700
     20 H2          0.6120    2.9710   -0.1110 h1        1 250      0.054700
     21 HO4         0.0420    1.1470   -1.4070 ho        1 250      0.442000
     22 H31         0.7720    4.1140   -2.6270 h1        1 250      0.033200
     23 H32         2.5310    3.6910   -2.4140 h1        1 250      0.033200
     24 H71         2.2670    4.1920    0.7350 h1        1 250      0.045200
     25 H72         3.6660    4.7400   -0.3040 h1        1 250      0.045200
     26 H61         3.5790    6.1890    1.6030 h1        1 250      0.031700
     27 H62         1.7760    6.4190    1.4850 h1        1 250      0.031700
     28 H51         1.0470    7.8950   -0.7560 h1        1 250      0.031700
     29 H52         2.4900    8.4000   -1.7480 h1        1 250      0.031700
     30 H41         2.9650    6.1620   -2.4620 h1        1 250      0.045200
     31 H42         1.1690    6.4160   -2.6350 h1        1 250      0.045200
     32 H81         2.1310    8.7510    1.6010 h1        1 250      0.035700
     33 H82         2.8840    9.5980    0.1750 h1        1 250      0.035700
     34 H91         4.5110    8.0210    2.3090 h1        1 250      0.041200
     35 H92         4.1860    9.8230    2.3130 h1        1 250      0.041200
     36 HO5         5.4660    8.4630    0.1980 ho        1 250      0.416000
@<TRIPOS>BOND
     1    1    2 1   
     2    2    3 1   
     3    2    4 1   
     4    2    5 1   
     5    5    6 1   
     6    5   18 1   
     7    5   19 1   
     8    6    7 1   
     9    6    8 1   
    10    6   20 1   
    11    7   21 1   
    12    8    9 1   
    13    8   22 1   
    14    8   23 1   
    15    9   10 1   
    16    9   14 1   
    17   10   11 1   
    18   10   24 1   
    19   10   25 1   
    20   11   12 1   
    21   11   26 1   
    22   11   27 1   
    23   12   13 1   
    24   12   15 1   
    25   13   14 1   
    26   13   28 1   
    27   13   29 1   
    28   14   30 1   
    29   14   31 1   
    30   15   16 1   
    31   15   32 1   
    32   15   33 1   
    33   16   17 1   
    34   16   34 1   
    35   16   35 1   
    36   17   36 1   
@<TRIPOS>SUBSTRUCTURE
     1 250         1 TEMP              0 ****  ****    0 ROOT
