@<TRIPOS>MOLECULE
251
   42    31     1     0     0
SMALL
bcc


@<TRIPOS>ATOM
      1 C1         -4.0760    2.7960   -0.2760 c1        1 251     -0.126125
      2 C2         -2.6930    2.7340   -0.2800 c1        1 251     -0.111000
      3 C3         -2.0470    1.6950   -0.9330 c1        1 251     -0.031000
      4 C4         -2.7850    0.7190   -1.5800 c1        1 251     -0.126125
      5 C5         -4.1690    0.7810   -1.5760 c1        1 251     -0.126125
      6 C6         -4.8150    1.8190   -0.9240 c1        1 251     -0.126125
      7 C12        -0.6620    1.6580   -0.9760 c1        1 251     -0.022000
      8 C13         0.1390    2.3420   -1.8660 c1        1 251     -0.181000
      9 C14         1.4340    2.0570   -1.5690 c1        1 251     -0.158000
     10 C15         1.4440    1.1940   -0.4920 c2        1 251     -0.070000
     11 N16         0.1510    0.9530   -0.1320 n2        1 251     -0.126000
     12 C17         2.5640    0.6330    0.0850 c1        1 251     -0.032000
     13 C18         3.0390   -0.5870   -0.3700 c1        1 251     -0.126125
     14 C19         4.2120   -1.1120    0.1490 c1        1 251     -0.126125
     15 C20         4.9110   -0.4150    1.1240 c1        1 251     -0.126125
     16 C21         4.4360    0.8050    1.5790 c1        1 251     -0.126125
     17 C22         3.2630    1.3290    1.0590 c1        1 251     -0.121000
     18 C28        -0.2860    0.0850    0.9410 c2        1 251     -0.051000
     19 C29        -0.4850   -1.3320    0.4020 c1        1 251      0.289000
     20 N32        -0.2850   -2.4640    1.2660 n2        1 251     -0.359000
     21 O33        -0.7500   -1.5030   -0.7690 o         1 251     -0.360000
     22 C34        -0.7930   -3.7470    0.8920 c1        1 251      0.178000
     23 N35        -1.6640   -3.8470   -0.0780 n1        1 251     -0.316000
     24 N36        -0.3510   -4.9180    1.5770 n2        1 251     -0.320000
     25 H1         -4.5320    3.5300    0.1860 ha        1 251      0.138500
     26 H2         -2.1700    3.4250    0.1780 ha        1 251      0.139000
     27 H4         -2.3320   -0.0100   -2.0390 ha        1 251      0.138500
     28 H5         -4.6900    0.0920   -2.0330 ha        1 251      0.138500
     29 H6         -5.7890    1.8630   -0.9210 ha        1 251      0.138500
     30 H13        -0.1710    2.9290   -2.5860 DU        1 251      0.169667
     31 H14         2.2210    2.4030   -2.0370 DU        1 251      0.169667
     32 H18         2.5470   -1.0770   -1.0560 ha        1 251      0.138500
     33 H19         4.5470   -1.9710   -0.1710 ha        1 251      0.138500
     34 H20         5.7360   -0.7840    1.4890 ha        1 251      0.138500
     35 H21         4.9280    1.2950    2.2650 ha        1 251      0.138500
     36 H22         2.9290    2.1880    1.3790 ha        1 251      0.139000
     37 H281        0.3910    0.0730    1.6480 ha        1 251      0.139000
     38 H282       -1.1330    0.4180    1.3070 ha        1 251      0.139000
     39 HN32        0.1490   -2.3600    2.0620 hn        1 251      0.254000
     40 HN35       -1.9460   -3.0990   -0.5160 DU        1 251      0.169667
     41 H361       -0.3110   -5.7220    1.1350 hn        1 251      0.186000
     42 H362       -0.1060   -4.8670    2.4590 hn        1 251      0.186000
@<TRIPOS>BOND
     1    1    6 1   
     2    1   25 1   
     3    2    3 1   
     4    2   26 1   
     5    4    5 1   
     6    4   27 1   
     7    5   28 1   
     8    6   29 1   
     9    7    8 1   
    10    7   11 1   
    11    8    9 1   
    12    9   10 1   
    13   10   11 1   
    14   10   12 1   
    15   12   17 1   
    16   13   14 1   
    17   13   32 1   
    18   14   33 1   
    19   15   16 1   
    20   15   34 1   
    21   16   35 1   
    22   17   36 1   
    23   18   19 1   
    24   18   37 1   
    25   18   38 1   
    26   19   21 1   
    27   20   22 1   
    28   20   39 1   
    29   22   23 1   
    30   24   41 1   
    31   24   42 1   
@<TRIPOS>SUBSTRUCTURE
     1 251         1 TEMP              0 ****  ****    0 ROOT
