@<TRIPOS>MOLECULE
251
   44    46     1     0     0
SMALL
bcc


@<TRIPOS>ATOM
      1 C1          0.3520   -1.4900    1.3400 ca        1 251     -0.111500
      2 C2          1.7120   -1.1850    1.4030 ca        1 251     -0.141750
      3 C3          2.1300    0.0660    1.8770 ca        1 251     -0.089000
      4 C4          1.1680    1.0090    2.2850 ca        1 251     -0.141750
      5 C5         -0.1890    0.6970    2.2140 ca        1 251     -0.111500
      6 C6         -0.5990   -0.5540    1.7480 ca        1 251     -0.093500
      7 C12         3.5340    0.4410    1.8720 cc        1 251     -0.090800
      8 C13         4.1460    1.4930    1.1880 cd        1 251     -0.116500
      9 C14         5.5680    1.3980    1.4050 cd        1 251     -0.116500
     10 C15         5.8090    0.2870    2.2140 cc        1 251     -0.090800
     11 N16         4.5600   -0.3410    2.4830 na        1 251     -0.120100
     12 C17         7.0830   -0.2220    2.6930 ca        1 251     -0.089000
     13 C18         7.4430   -1.5650    2.5020 ca        1 251     -0.141750
     14 C19         8.6960   -2.0150    2.9130 ca        1 251     -0.111500
     15 C20         9.5980   -1.1330    3.5110 ca        1 251     -0.093500
     16 C21         9.2470    0.2060    3.6930 ca        1 251     -0.111500
     17 C22         7.9960    0.6640    3.2840 ca        1 251     -0.141750
     18 C28         4.3300   -1.3440    3.4310 c3        1 251      0.014300
     19 C29         3.6990   -0.8970    4.7740 c         1 251      0.540100
     20 N32         2.9310    0.4420    4.7710 n4        1 251     -0.724800
     21 O33         3.6590   -1.5120    5.8230 o         1 251     -0.448100
     22 C34         2.6360    1.0260    6.1180 c2        1 251      0.616100
     23 N35         3.0360    2.1280    6.6200 n2        1 251     -0.618100
     24 N36         1.7630    0.1710    6.9970 n4        1 251     -0.816600
     25 H1          0.0280   -2.4650    0.9340 ha        1 251      0.165000
     26 H2          2.4540   -1.9070    1.0240 ha        1 251      0.142250
     27 H4          1.4800    2.0320    2.5450 ha        1 251      0.142250
     28 H5         -0.9430    1.4550    2.4860 ha        1 251      0.165000
     29 H6         -1.6740   -0.7880    1.6680 ha        1 251      0.170500
     30 H13         3.6430    2.2400    0.5700 ha        1 251      0.198500
     31 H14         6.3250    2.0560    0.9760 ha        1 251      0.198500
     32 H18         6.7610   -2.2540    1.9810 ha        1 251      0.142250
     33 H19         8.9820   -3.0660    2.7460 ha        1 251      0.165000
     34 H20        10.5930   -1.4900    3.8240 ha        1 251      0.170500
     35 H21         9.9660    0.9070    4.1460 ha        1 251      0.165000
     36 H22         7.7350    1.7270    3.4010 ha        1 251      0.142250
     37 H281        3.5830   -2.1090    3.0420 h1        1 251      0.158200
     38 H282        5.3050   -1.8580    3.7180 h1        1 251      0.158200
     39 HN32        3.4940    1.1310    4.2350 hn        1 251      0.504800
     40 HN35        3.6310    2.7840    6.1490 hn        1 251      0.531400
     41 H361        1.5730    0.6680    7.8910 hn        1 251      0.507800
     42 H362        0.8650   -0.0250    6.5360 hn        1 251      0.507800
     43 H322        2.0540    0.3170    4.2110 hn        1 251      0.504800
     44 H363        2.2550   -0.7190    7.2130 hn        1 251      0.507800
@<TRIPOS>BOND
     1    1    2 ar  
     2    1    6 ar  
     3    1   25 1   
     4    2    3 ar  
     5    2   26 1   
     6    3    4 ar  
     7    3    7 1   
     8    4    5 ar  
     9    4   27 1   
    10    5    6 ar  
    11    5   28 1   
    12    6   29 1   
    13    7    8 2   
    14    7   11 1   
    15    8    9 1   
    16    8   30 1   
    17    9   10 2   
    18    9   31 1   
    19   10   11 1   
    20   10   12 1   
    21   11   18 1   
    22   12   13 ar  
    23   12   17 ar  
    24   13   14 ar  
    25   13   32 1   
    26   14   15 ar  
    27   14   33 1   
    28   15   16 ar  
    29   15   34 1   
    30   16   17 ar  
    31   16   35 1   
    32   17   36 1   
    33   18   19 1   
    34   18   37 1   
    35   18   38 1   
    36   19   20 1   
    37   19   21 2   
    38   20   22 1   
    39   20   39 1   
    40   20   43 1   
    41   22   23 2   
    42   22   24 1   
    43   23   40 1   
    44   24   41 1   
    45   24   42 1   
    46   24   44 1   
@<TRIPOS>SUBSTRUCTURE
     1 251         1 TEMP              0 ****  ****    0 ROOT
