@<TRIPOS>MOLECULE
251
   44    46     1     0     0
SMALL
bcc


@<TRIPOS>ATOM
      1 C1          0.3290   -1.5480    1.4270 ca        1 251     -0.111500
      2 C2          1.6910   -1.2490    1.4680 ca        1 251     -0.141750
      3 C3          2.1200    0.0180    1.8870 ca        1 251     -0.089000
      4 C4          1.1670    0.9830    2.2630 ca        1 251     -0.141750
      5 C5         -0.1930    0.6760    2.2150 ca        1 251     -0.111500
      6 C6         -0.6140   -0.5900    1.8040 ca        1 251     -0.093500
      7 C12         3.5260    0.3840    1.8560 cc        1 251     -0.090800
      8 C13         4.1390    1.4030    1.1240 cd        1 251     -0.116500
      9 C14         5.5620    1.3080    1.3350 cd        1 251     -0.116500
     10 C15         5.8030    0.2300    2.1870 cc        1 251     -0.090800
     11 N16         4.5520   -0.3780    2.4910 na        1 251     -0.120100
     12 C17         7.0770   -0.2670    2.6770 ca        1 251     -0.089000
     13 C18         7.4270   -1.6190    2.5380 ca        1 251     -0.141750
     14 C19         8.6810   -2.0600    2.9580 ca        1 251     -0.111500
     15 C20         9.5930   -1.1590    3.5120 ca        1 251     -0.093500
     16 C21         9.2510    0.1880    3.6420 ca        1 251     -0.111500
     17 C22         8.0000    0.6370    3.2240 ca        1 251     -0.141750
     18 C28         4.3230   -1.3400    3.4820 c3        1 251      0.014300
     19 C29         3.7060   -0.8330    4.8090 c         1 251      0.540100
     20 N32         2.9450    0.5090    4.7570 n4        1 251     -0.724800
     21 O33         3.6710   -1.4040    5.8830 o         1 251     -0.448100
     22 C34         2.6640    1.1500    6.0800 c2        1 251      0.616100
     23 N35         3.0740    2.2700    6.5320 n2        1 251     -0.618100
     24 N36         1.7930    0.3370    7.0010 n4        1 251     -0.816600
     25 H1         -0.0040   -2.5370    1.0650 ha        1 251      0.165000
     26 H2          2.4260   -1.9910    1.1130 ha        1 251      0.142250
     27 H4          1.4870    2.0140    2.4780 ha        1 251      0.142250
     28 H5         -0.9400    1.4490    2.4610 ha        1 251      0.165000
     29 H6         -1.6910   -0.8210    1.7420 ha        1 251      0.170500
     30 H13         3.6360    2.1270    0.4800 ha        1 251      0.198500
     31 H14         6.3200    1.9430    0.8730 ha        1 251      0.198500
     32 H18         6.7370   -2.3250    2.0510 ha        1 251      0.142250
     33 H19         8.9600   -3.1190    2.8320 ha        1 251      0.165000
     34 H20        10.5880   -1.5100    3.8330 ha        1 251      0.170500
     35 H21         9.9790    0.9030    4.0600 ha        1 251      0.165000
     36 H22         7.7470    1.7050    3.2990 ha        1 251      0.142250
     37 H281        3.5690   -2.1160    3.1300 h1        1 251      0.158200
     38 H282        5.2980   -1.8480    3.7820 h1        1 251      0.158200
     39 HN32        3.5070    1.1710    4.1870 hn        1 251      0.504800
     40 HN35        3.6690    2.9020    6.0300 hn        1 251      0.531400
     41 H361        0.8910    0.1280    6.5560 hn        1 251      0.507800
     42 H362        2.2820   -0.5450    7.2510 hn        1 251      0.507800
     43 H322        2.0630    0.3650    4.2090 hn        1 251      0.504800
     44 H363        1.6140    0.8730    7.8750 hn        1 251      0.507800
@<TRIPOS>BOND
     1    1    2 ar  
     2    1    6 ar  
     3    1   25 1   
     4    2    3 ar  
     5    2   26 1   
     6    3    4 ar  
     7    3    7 1   
     8    4    5 ar  
     9    4   27 1   
    10    5    6 ar  
    11    5   28 1   
    12    6   29 1   
    13    7    8 2   
    14    7   11 1   
    15    8    9 1   
    16    8   30 1   
    17    9   10 2   
    18    9   31 1   
    19   10   11 1   
    20   10   12 1   
    21   11   18 1   
    22   12   13 ar  
    23   12   17 ar  
    24   13   14 ar  
    25   13   32 1   
    26   14   15 ar  
    27   14   33 1   
    28   15   16 ar  
    29   15   34 1   
    30   16   17 ar  
    31   16   35 1   
    32   17   36 1   
    33   18   19 1   
    34   18   37 1   
    35   18   38 1   
    36   19   20 1   
    37   19   21 2   
    38   20   22 1   
    39   20   39 1   
    40   20   43 1   
    41   22   23 2   
    42   22   24 1   
    43   23   40 1   
    44   24   41 1   
    45   24   42 1   
    46   24   44 1   
@<TRIPOS>SUBSTRUCTURE
     1 251         1 TEMP              0 ****  ****    0 ROOT
