@<TRIPOS>MOLECULE
251
   44    46     1     0     0
SMALL
bcc


@<TRIPOS>ATOM
      1 C1          0.1370   -0.9260    0.2660 ca        1 251     -0.111750
      2 C2          1.4690   -0.8030    0.6540 ca        1 251     -0.141750
      3 C3          1.9560    0.4310    1.1100 ca        1 251     -0.089000
      4 C4          1.0980    1.5410    1.1580 ca        1 251     -0.141750
      5 C5         -0.2340    1.4090    0.7680 ca        1 251     -0.111750
      6 C6         -0.7170    0.1770    0.3250 ca        1 251     -0.093500
      7 C12         3.3550    0.6020    1.4580 cc        1 251     -0.090800
      8 C13         4.2510    1.5710    1.0030 cd        1 251     -0.116500
      9 C14         5.5300    1.3230    1.6190 cd        1 251     -0.116500
     10 C15         5.4000    0.2080    2.4490 cc        1 251     -0.090800
     11 N16         4.0620   -0.2750    2.3290 na        1 251     -0.120100
     12 C17         6.4350   -0.4770    3.2060 ca        1 251     -0.089000
     13 C18         6.7480   -1.8190    2.9540 ca        1 251     -0.141750
     14 C19         7.8010   -2.4320    3.6340 ca        1 251     -0.111750
     15 C20         8.5480   -1.7120    4.5690 ca        1 251     -0.093500
     16 C21         8.2450   -0.3720    4.8190 ca        1 251     -0.111750
     17 C22         7.1910    0.2460    4.1460 ca        1 251     -0.141750
     18 C28         3.4910   -1.2370    3.1690 c3        1 251      0.014300
     19 C29         3.3510   -0.8560    4.6640 c         1 251      0.540100
     20 N32         4.2710    0.2680    5.1860 ny        1 251     -0.724800
     21 O33         2.6590   -1.3900    5.5110 o         1 251     -0.448100
     22 C34         3.8910    0.8600    6.5080 c2        1 251      0.616100
     23 N35         3.5440    2.0570    6.7810 n2        1 251     -0.618100
     24 N36         3.9050   -0.1100    7.6600 nz        1 251     -0.816600
     25 H1         -0.2380   -1.8930   -0.1080 ha        1 251      0.165000
     26 H2          2.1480   -1.6640    0.5510 ha        1 251      0.142250
     27 H4          1.4830    2.5210    1.4770 ha        1 251      0.142250
     28 H5         -0.9020    2.2850    0.7950 ha        1 251      0.165000
     29 H6         -1.7680    0.0780    0.0060 ha        1 251      0.170500
     30 H13         4.0330    2.3540    0.2750 ha        1 251      0.198500
     31 H14         6.4450    1.8920    1.4410 ha        1 251      0.198500
     32 H18         6.2020   -2.3770    2.1750 ha        1 251      0.142250
     33 H19         8.0650   -3.4790    3.4070 ha        1 251      0.165000
     34 H20         9.3990   -2.1910    5.0820 ha        1 251      0.170500
     35 H21         8.8690    0.2100    5.5180 ha        1 251      0.165000
     36 H22         7.0300    1.3290    4.2630 ha        1 251      0.142250
     37 H281        2.4350   -1.4940    2.8280 h1        1 251      0.158200
     38 H282        4.1310   -2.1770    3.2060 h1        1 251      0.158200
     39 HN32        5.2550   -0.0930    5.2000 hn        1 251      0.504800
     40 HN35        3.4800    2.7970    6.1090 hn        1 251      0.531400
     41 H361        3.1890   -0.8460    7.5010 hn        1 251      0.507800
     42 H362        4.8340   -0.5380    7.7620 hn        1 251      0.507800
     43 H322        4.2770    1.0290    4.4790 hn        1 251      0.504800
     44 H363        3.6730    0.3910    8.5410 hn        1 251      0.507800
@<TRIPOS>BOND
     1    1    2 ar  
     2    1    6 ar  
     3    1   25 1   
     4    2    3 ar  
     5    2   26 1   
     6    3    4 ar  
     7    3    7 1   
     8    4    5 ar  
     9    4   27 1   
    10    5    6 ar  
    11    5   28 1   
    12    6   29 1   
    13    7    8 2   
    14    7   11 1   
    15    8    9 1   
    16    8   30 1   
    17    9   10 2   
    18    9   31 1   
    19   10   11 1   
    20   10   12 1   
    21   11   18 1   
    22   12   13 ar  
    23   12   17 ar  
    24   13   14 ar  
    25   13   32 1   
    26   14   15 ar  
    27   14   33 1   
    28   15   16 ar  
    29   15   34 1   
    30   16   17 ar  
    31   16   35 1   
    32   17   36 1   
    33   18   19 1   
    34   18   37 1   
    35   18   38 1   
    36   19   20 1   
    37   19   21 2   
    38   20   22 1   
    39   20   39 1   
    40   20   43 1   
    41   22   23 2   
    42   22   24 1   
    43   23   40 1   
    44   24   41 1   
    45   24   42 1   
    46   24   44 1   
@<TRIPOS>SUBSTRUCTURE
     1 251         1 TEMP              0 ****  ****    0 ROOT
