@<TRIPOS>MOLECULE
251
   42    44     1     0     0
SMALL
bcc


@<TRIPOS>ATOM
      1 C1          4.7780    1.9530    0.3170 ca        1 251     -0.131250
      2 C2          3.4280    2.2740    0.1970 ca        1 251     -0.119500
      3 C3          2.5140    1.3130   -0.2630 ca        1 251     -0.026500
      4 C4          2.9730    0.0350   -0.6080 ca        1 251     -0.119500
      5 C5          4.3250   -0.2790   -0.4840 ca        1 251     -0.131250
      6 C6          5.2290    0.6760   -0.0200 ca        1 251     -0.125000
      7 C12         1.1160    1.6820   -0.4130 cc        1 251     -0.057800
      8 C13         0.6140    2.8370   -1.0360 cd        1 251     -0.172000
      9 C14        -0.8110    2.7980   -0.9360 cd        1 251     -0.172000
     10 C15        -1.1570    1.6190   -0.2520 cc        1 251     -0.057800
     11 N16         0.0280    0.9270    0.0610 na        1 251     -0.046100
     12 C17        -2.4980    1.1750    0.0890 ca        1 251     -0.026500
     13 C18        -3.3950    2.0920    0.6590 ca        1 251     -0.119500
     14 C19        -4.6970    1.7000    0.9640 ca        1 251     -0.131250
     15 C20        -5.1160    0.3950    0.7030 ca        1 251     -0.125000
     16 C21        -4.2310   -0.5180    0.1300 ca        1 251     -0.131250
     17 C22        -2.9270   -0.1320   -0.1780 ca        1 251     -0.119500
     18 C28         0.1190   -0.2210    0.9020 c3        1 251     -0.027700
     19 C29         0.0470   -1.5840    0.1780 c         1 251      0.644100
     20 N32        -0.1100   -2.6750    1.0220 n         1 251     -0.503400
     21 O33         0.1140   -1.7050   -1.0570 o         1 251     -0.590100
     22 C34        -0.0370   -4.0460    0.5940 c2        1 251      0.647800
     23 N35         0.5180   -4.8880    1.4310 n2        1 251     -0.872100
     24 N36        -0.6750   -4.3870   -0.6340 nh        1 251     -0.920800
     25 H1          5.4900    2.7100    0.6780 ha        1 251      0.134250
     26 H2          3.0710    3.2810    0.4580 ha        1 251      0.143500
     27 H4          2.2630   -0.7130   -0.9990 ha        1 251      0.143500
     28 H5          4.6800   -1.2830   -0.7610 ha        1 251      0.134250
     29 H6          6.2950    0.4260    0.0760 ha        1 251      0.133000
     30 H13         1.2080    3.6090   -1.5160 ha        1 251      0.157000
     31 H14        -1.5090    3.5340   -1.3250 ha        1 251      0.157000
     32 H18        -3.0630    3.1220    0.8610 ha        1 251      0.143500
     33 H19        -5.3950    2.4230    1.4100 ha        1 251      0.134250
     34 H20        -6.1440    0.0880    0.9450 ha        1 251      0.133000
     35 H21        -4.5610   -1.5450   -0.0850 ha        1 251      0.134250
     36 H22        -2.2360   -0.8480   -0.6510 ha        1 251      0.143500
     37 H281        1.1120   -0.1940    1.4420 h1        1 251      0.092700
     38 H282       -0.7230   -0.1750    1.6550 h1        1 251      0.092700
     39 HN32       -0.0220   -2.5290    2.0050 hn        1 251      0.338500
     40 HN35        0.5090   -5.8440    1.1530 hn        1 251      0.405400
     41 H361       -0.9280   -3.6200   -1.2230 hn        1 251      0.407300
     42 H362       -0.2000   -5.1060   -1.1350 hn        1 251      0.407300
@<TRIPOS>BOND
     1    1    2 ar  
     2    1    6 ar  
     3    1   25 1   
     4    2    3 ar  
     5    2   26 1   
     6    3    4 ar  
     7    3    7 1   
     8    4    5 ar  
     9    4   27 1   
    10    5    6 ar  
    11    5   28 1   
    12    6   29 1   
    13    7    8 2   
    14    7   11 1   
    15    8    9 1   
    16    8   30 1   
    17    9   10 2   
    18    9   31 1   
    19   10   11 1   
    20   10   12 1   
    21   11   18 1   
    22   12   13 ar  
    23   12   17 ar  
    24   13   14 ar  
    25   13   32 1   
    26   14   15 ar  
    27   14   33 1   
    28   15   16 ar  
    29   15   34 1   
    30   16   17 ar  
    31   16   35 1   
    32   17   36 1   
    33   18   19 1   
    34   18   37 1   
    35   18   38 1   
    36   19   20 1   
    37   19   21 2   
    38   20   22 1   
    39   20   39 1   
    40   22   23 2   
    41   22   24 1   
    42   23   40 1   
    43   24   41 1   
    44   24   42 1   
@<TRIPOS>SUBSTRUCTURE
     1 251         1 TEMP              0 ****  ****    0 ROOT
