@<TRIPOS>MOLECULE
252
   36    35     1     0     0
SMALL
bcc


@<TRIPOS>ATOM
      1 CAA         0.0200    0.0090   -0.1490 c3        1 252     -0.085100
      2 CAI         1.5230    0.0760   -0.0540 c3        1 252     -0.082400
      3 CAJ         2.0040   -0.0350    1.3780 c3        1 252     -0.080400
      4 CAK         3.5150    0.0320    1.4710 c3        1 252     -0.077400
      5 CAL         3.9940   -0.0790    2.9060 c3        1 252     -0.083400
      6 CAM         5.5070   -0.0130    3.0070 c3        1 252     -0.041400
      7 CAN         5.9600   -0.1260    4.4430 c3        1 252     -0.149400
      8 CAO         7.4830   -0.0610    4.5720 c3        1 252     -0.035400
      9 CAP         7.9610   -0.1710    5.9960 c3        1 252     -0.202600
     10 P1P         7.6610    1.5300    6.7070 p5        1 252      1.252700
     11 OAE         8.5040    1.6710    7.9650 o         1 252     -0.987500
     12 OAF         8.1110    2.5440    5.6520 o         1 252     -0.987500
     13 OAB         6.1710    1.7360    6.9630 o         1 252     -0.987500
     14 P1R         7.8380   -1.9970    6.3740 p5        1 252      1.252700
     15 OAG         8.3770   -2.7460    5.1530 o         1 252     -0.987500
     16 OAH         8.7030   -2.2860    7.5920 o         1 252     -0.987500
     17 OAC         6.3790   -2.3940    6.5740 o         1 252     -0.987500
     18 OAD         9.4090   -0.0970    5.9790 oh        1 252     -0.671800
     19 HAA1       -0.3150    0.0930   -1.2120 hc        1 252      0.013367
     20 HAA2       -0.4460    0.8400    0.4330 hc        1 252      0.013367
     21 HAA3       -0.3560   -0.9580    0.2640 hc        1 252      0.013367
     22 HAI1        1.9740   -0.7510   -0.6630 hc        1 252      0.026700
     23 HAI2        1.8840    1.0430   -0.4940 hc        1 252      0.026700
     24 HAJ1        1.6470   -1.0020    1.8190 hc        1 252      0.034700
     25 HAJ2        1.5570    0.7920    1.9890 hc        1 252      0.034700
     26 HAK1        3.9630   -0.7960    0.8610 hc        1 252      0.019700
     27 HAK2        3.8730    0.9990    1.0310 hc        1 252      0.019700
     28 HAL1        3.5500    0.7490    3.5170 hc        1 252      0.040700
     29 HAL2        3.6400   -1.0470    3.3470 hc        1 252      0.040700
     30 HAM1        5.8630    0.9560    2.5660 hc        1 252     -0.000300
     31 HAM2        5.9530   -0.8410    2.3960 hc        1 252     -0.000300
     32 HAN1        5.5550    0.7110    5.0850 hc        1 252      0.108700
     33 HAN2        5.6470   -1.1040    4.9140 hc        1 252      0.108700
     34 HAO1        7.8410    0.9140    4.1370 hc        1 252      0.011700
     35 HAO2        7.9320   -0.8970    3.9660 hc        1 252      0.011700
     36 HOAD        9.6080   -0.1760    6.9230 ho        1 252      0.404000
@<TRIPOS>BOND
     1    1    2 1   
     2    1   19 1   
     3    1   20 1   
     4    1   21 1   
     5    2    3 1   
     6    2   22 1   
     7    2   23 1   
     8    3    4 1   
     9    3   24 1   
    10    3   25 1   
    11    4    5 1   
    12    4   26 1   
    13    4   27 1   
    14    5    6 1   
    15    5   28 1   
    16    5   29 1   
    17    6    7 1   
    18    6   30 1   
    19    6   31 1   
    20    7    8 1   
    21    7   32 1   
    22    7   33 1   
    23    8    9 1   
    24    8   34 1   
    25    8   35 1   
    26    9   10 1   
    27    9   14 1   
    28    9   18 1   
    29   10   11 1   
    30   10   12 1   
    31   10   13 1   
    32   14   15 1   
    33   14   16 1   
    34   14   17 1   
    35   18   36 1   
@<TRIPOS>SUBSTRUCTURE
     1 252         1 TEMP              0 ****  ****    0 ROOT
