@<TRIPOS>MOLECULE
252
   36    35     1     0     0
SMALL
bcc


@<TRIPOS>ATOM
      1 CAA         8.0150   -0.1010   -0.6970 c3        1 252     -0.085100
      2 CAI         6.8680   -0.1350    0.2800 c3        1 252     -0.082400
      3 CAJ         5.5290    0.0110   -0.4140 c3        1 252     -0.080400
      4 CAK         4.3780   -0.0230    0.5700 c3        1 252     -0.077400
      5 CAL         3.0380    0.1190   -0.1280 c3        1 252     -0.082400
      6 CAM         1.8790    0.0810    0.8520 c3        1 252     -0.043400
      7 CAN         0.5550    0.2000    0.1290 c3        1 252     -0.153400
      8 CAO        -0.6210    0.1290    1.0980 c3        1 252     -0.045400
      9 CAP        -2.0130    0.0320    0.4980 c3        1 252     -0.158600
     10 P1P        -2.4390    1.7490    0.0120 p5        1 252      1.253200
     11 OAE        -3.6850    1.8690   -0.8480 o         1 252     -0.983667
     12 OAF        -2.6730    2.4180    1.3770 o         1 252     -0.983667
     13 OAB        -1.2460    2.4070   -0.6820 o         1 252     -0.983667
     14 P1R        -2.0550   -1.7940   -0.1380 p5        1 252      1.253200
     15 OAG        -1.5070   -2.6410    1.0090 o         1 252     -0.983667
     16 OAH        -3.4450   -2.2570   -0.5270 o         1 252     -0.983667
     17 OAC        -1.0950   -1.8800   -1.3220 o         1 252     -0.983667
     18 OAD        -2.9220   -0.2110    1.5670 oh        1 252     -0.644800
     19 HAA1        8.9920   -0.2110   -0.1670 hc        1 252      0.013033
     20 HAA2        7.9220   -0.9300   -1.4390 hc        1 252      0.013033
     21 HAA3        8.0250    0.8660   -1.2560 hc        1 252      0.013033
     22 HAI1        6.8870   -1.1020    0.8490 hc        1 252      0.027700
     23 HAI2        6.9900    0.6900    1.0310 hc        1 252      0.027700
     24 HAJ1        5.5060    0.9780   -0.9820 hc        1 252      0.033700
     25 HAJ2        5.4030   -0.8150   -1.1620 hc        1 252      0.033700
     26 HAK1        4.4010   -0.9900    1.1380 hc        1 252      0.019200
     27 HAK2        4.5020    0.8040    1.3170 hc        1 252      0.019200
     28 HAL1        3.0120    1.0850   -0.6940 hc        1 252      0.039200
     29 HAL2        2.9100   -0.7100   -0.8720 hc        1 252      0.039200
     30 HAM1        1.9150   -0.8810    1.4280 hc        1 252     -0.002300
     31 HAM2        1.9990    0.9170    1.5920 hc        1 252     -0.002300
     32 HAN1        0.4830    1.1710   -0.4340 hc        1 252      0.115200
     33 HAN2        0.3990   -0.6530   -0.6010 hc        1 252      0.115200
     34 HAO1       -0.4720   -0.7710    1.7610 hc        1 252     -0.007800
     35 HAO2       -0.5860    1.0460    1.7560 hc        1 252     -0.007800
     36 HOAD       -3.0070    0.6110    2.0800 ho        1 252      0.359000
@<TRIPOS>BOND
     1    1    2 1   
     2    1   19 1   
     3    1   20 1   
     4    1   21 1   
     5    2    3 1   
     6    2   22 1   
     7    2   23 1   
     8    3    4 1   
     9    3   24 1   
    10    3   25 1   
    11    4    5 1   
    12    4   26 1   
    13    4   27 1   
    14    5    6 1   
    15    5   28 1   
    16    5   29 1   
    17    6    7 1   
    18    6   30 1   
    19    6   31 1   
    20    7    8 1   
    21    7   32 1   
    22    7   33 1   
    23    8    9 1   
    24    8   34 1   
    25    8   35 1   
    26    9   10 1   
    27    9   14 1   
    28    9   18 1   
    29   10   11 1   
    30   10   12 1   
    31   10   13 1   
    32   14   15 1   
    33   14   16 1   
    34   14   17 1   
    35   18   36 1   
@<TRIPOS>SUBSTRUCTURE
     1 252         1 TEMP              0 ****  ****    0 ROOT
