@<TRIPOS>MOLECULE
252
   36    35     1     0     0
SMALL
bcc


@<TRIPOS>ATOM
      1 CAA         0.0250    0.0110   -0.1560 c3        1 252     -0.085100
      2 CAI         1.5280    0.0730   -0.0590 c3        1 252     -0.082400
      3 CAJ         2.0070   -0.0340    1.3740 c3        1 252     -0.080400
      4 CAK         3.5180    0.0290    1.4690 c3        1 252     -0.077400
      5 CAL         3.9940   -0.0790    2.9040 c3        1 252     -0.083400
      6 CAM         5.5080   -0.0160    3.0070 c3        1 252     -0.041400
      7 CAN         5.9580   -0.1250    4.4450 c3        1 252     -0.149400
      8 CAO         7.4810   -0.0640    4.5750 c3        1 252     -0.035400
      9 CAP         7.9570   -0.1710    6.0000 c3        1 252     -0.202600
     10 P1P         7.6600    1.5340    6.7050 p5        1 252      1.252700
     11 OAE         8.5020    1.6770    7.9640 o         1 252     -0.987500
     12 OAF         8.1140    2.5430    5.6480 o         1 252     -0.987500
     13 OAB         6.1710    1.7440    6.9590 o         1 252     -0.987500
     14 P1R         7.8300   -1.9950    6.3840 p5        1 252      1.252700
     15 OAG         8.3680   -2.7490    5.1670 o         1 252     -0.987500
     16 OAH         8.6920   -2.2820    7.6040 o         1 252     -0.987500
     17 OAC         6.3690   -2.3870    6.5830 o         1 252     -0.987500
     18 OAD         9.4060   -0.1000    5.9850 oh        1 252     -0.671800
     19 HAA1       -0.3090    0.0920   -1.2190 hc        1 252      0.013367
     20 HAA2       -0.4390    0.8470    0.4220 hc        1 252      0.013367
     21 HAA3       -0.3550   -0.9530    0.2610 hc        1 252      0.013367
     22 HAI1        1.9770   -0.7580   -0.6640 hc        1 252      0.026700
     23 HAI2        1.8930    1.0370   -0.5020 hc        1 252      0.026700
     24 HAJ1        1.6460   -0.9980    1.8190 hc        1 252      0.034700
     25 HAJ2        1.5610    0.7980    1.9810 hc        1 252      0.034700
     26 HAK1        3.9640   -0.8030    0.8630 hc        1 252      0.019700
     27 HAK2        3.8800    0.9930    1.0250 hc        1 252      0.019700
     28 HAL1        3.5530    0.7530    3.5120 hc        1 252      0.040700
     29 HAL2        3.6380   -1.0440    3.3490 hc        1 252      0.040700
     30 HAM1        5.8670    0.9500    2.5630 hc        1 252     -0.000300
     31 HAM2        5.9520   -0.8480    2.4000 hc        1 252     -0.000300
     32 HAN1        5.5550    0.7150    5.0830 hc        1 252      0.108700
     33 HAN2        5.6420   -1.1010    4.9180 hc        1 252      0.108700
     34 HAO1        7.8420    0.9090    4.1370 hc        1 252      0.011700
     35 HAO2        7.9290   -0.9030    3.9730 hc        1 252      0.011700
     36 HOAD        9.6030   -0.1760    6.9300 ho        1 252      0.404000
@<TRIPOS>BOND
     1    1    2 1   
     2    1   19 1   
     3    1   20 1   
     4    1   21 1   
     5    2    3 1   
     6    2   22 1   
     7    2   23 1   
     8    3    4 1   
     9    3   24 1   
    10    3   25 1   
    11    4    5 1   
    12    4   26 1   
    13    4   27 1   
    14    5    6 1   
    15    5   28 1   
    16    5   29 1   
    17    6    7 1   
    18    6   30 1   
    19    6   31 1   
    20    7    8 1   
    21    7   32 1   
    22    7   33 1   
    23    8    9 1   
    24    8   34 1   
    25    8   35 1   
    26    9   10 1   
    27    9   14 1   
    28    9   18 1   
    29   10   11 1   
    30   10   12 1   
    31   10   13 1   
    32   14   15 1   
    33   14   16 1   
    34   14   17 1   
    35   18   36 1   
@<TRIPOS>SUBSTRUCTURE
     1 252         1 TEMP              0 ****  ****    0 ROOT
