@<TRIPOS>MOLECULE
253
   43    46     1     0     0
SMALL
bcc


@<TRIPOS>ATOM
      1 C1          0.1240    0.1160   -0.1640 c3        1 253      0.107700
      2 O2          1.5430    0.1090   -0.0410 os        1 253     -0.300900
      3 C3          2.0370    0.0250    1.2420 ca        1 253      0.129100
      4 C23         3.4700    0.0350    1.3370 ca        1 253      0.109100
      5 O24         4.1240    0.1960    0.1340 os        1 253     -0.300900
      6 C25         5.5460    0.2270    0.1960 c3        1 253      0.108700
      7 C22         4.0810   -0.0950    2.5670 ca        1 253     -0.176000
      8 C21         3.3160   -0.2600    3.7470 ca        1 253     -0.138300
      9 C11         3.9090   -0.4610    5.0460 ca        1 253      0.087000
     10 C12         5.2570   -0.9060    5.2690 ca        1 253     -0.209300
     11 C19         5.8140   -0.7520    6.5790 ca        1 253      0.491600
     12 N20         5.0520   -0.3100    7.6450 nb        1 253     -0.756000
     13 C17         7.1900   -1.0730    6.8060 ca        1 253     -0.205600
     14 C18         7.8270   -0.8280    8.1230 c3        1 253     -0.040800
     15 C15         7.9470   -1.6550    5.7740 ca        1 253      0.165600
     16 N16         9.2670   -2.0600    5.9730 nv        1 253     -0.825200
     17 C14         7.3240   -1.9350    4.5190 ca        1 253     -0.198000
     18 C13         6.0210   -1.5750    4.2890 ca        1 253     -0.070000
     19 C8          3.1000   -0.2100    6.1680 ca        1 253     -0.317600
     20 C9          3.7390   -0.1210    7.4780 ca        1 253      0.679200
     21 N1          2.9410    0.1390    8.6020 nv        1 253     -0.925500
     22 C7          1.6840   -0.0670    5.9710 ca        1 253      0.445200
     23 N6          1.0940   -0.0780    4.7980 nb        1 253     -0.668000
     24 C5          1.8970   -0.1360    3.6660 ca        1 253      0.412600
     25 C4          1.2720   -0.0400    2.3860 ca        1 253     -0.241300
     26 H11        -0.0360    0.1760   -1.2700 h1        1 253      0.048367
     27 H12        -0.3110    1.0090    0.3480 h1        1 253      0.048367
     28 H13A       -0.3130   -0.8250    0.2490 h1        1 253      0.048367
     29 H251        5.8470    0.3420   -0.8760 h1        1 253      0.045700
     30 H252        5.9450   -0.7280    0.6180 h1        1 253      0.045700
     31 H253        5.8960    1.0990    0.8000 h1        1 253      0.045700
     32 H22         5.1760   -0.0140    2.6480 ha        1 253      0.153000
     33 H181        8.7110   -0.1490    8.0040 hc        1 253      0.045033
     34 H182        8.1790   -1.7930    8.5680 hc        1 253      0.045033
     35 H183        7.1380   -0.3490    8.8600 hc        1 253      0.045033
     36 H161        9.8040   -2.1610    5.1420 hn        1 253      0.397300
     37 H162        9.7490   -1.6020    6.7130 hn        1 253      0.397300
     38 H14         7.8900   -2.4660    3.7390 ha        1 253      0.134000
     39 H13         5.5480   -1.8630    3.3360 ha        1 253      0.141000
     40 HN11        2.2030    0.7850    8.4360 hn        1 253      0.405800
     41 HN12        3.4330    0.3040    9.4540 hn        1 253      0.405800
     42 H7          1.0020    0.0190    6.8380 h4        1 253      0.024100
     43 H4          0.1730   -0.0050    2.3370 ha        1 253      0.160000
@<TRIPOS>BOND
     1    1    2 1   
     2    1   26 1   
     3    1   27 1   
     4    1   28 1   
     5    2    3 1   
     6    3    4 ar  
     7    3   25 ar  
     8    4    5 1   
     9    4    7 ar  
    10    5    6 1   
    11    6   29 1   
    12    6   30 1   
    13    6   31 1   
    14    7    8 ar  
    15    7   32 1   
    16    8    9 ar  
    17    8   24 ar  
    18    9   10 ar  
    19    9   19 ar  
    20   10   11 ar  
    21   10   18 ar  
    22   11   12 ar  
    23   11   13 ar  
    24   12   20 ar  
    25   13   14 1   
    26   13   15 ar  
    27   14   33 1   
    28   14   34 1   
    29   14   35 1   
    30   15   16 1   
    31   15   17 ar  
    32   16   36 1   
    33   16   37 1   
    34   17   18 ar  
    35   17   38 1   
    36   18   39 1   
    37   19   20 ar  
    38   19   22 ar  
    39   20   21 1   
    40   21   40 1   
    41   21   41 1   
    42   22   23 ar  
    43   22   42 1   
    44   23   24 ar  
    45   24   25 ar  
    46   25   43 1   
@<TRIPOS>SUBSTRUCTURE
     1 253         1 TEMP              0 ****  ****    0 ROOT
