@<TRIPOS>MOLECULE
253
   43    46     1     0     0
SMALL
bcc


@<TRIPOS>ATOM
      1 C1          6.0310    0.3460   -0.3790 c3        1 253      0.107700
      2 O2          5.0470   -0.6400   -0.0810 os        1 253     -0.300900
      3 C3          3.7420   -0.2000   -0.0510 ca        1 253      0.129100
      4 C23         2.7740   -1.2110    0.2670 ca        1 253      0.109100
      5 O24         3.3090   -2.4480    0.5570 os        1 253     -0.300900
      6 C25         2.3760   -3.4690    0.8920 c3        1 253      0.108700
      7 C22         1.4300   -0.9010    0.2770 ca        1 253     -0.176000
      8 C21         0.9810    0.4040   -0.0420 ca        1 253     -0.138300
      9 C11        -0.4140    0.7610   -0.1040 ca        1 253      0.087000
     10 C12        -1.4930   -0.1780   -0.2490 ca        1 253     -0.209300
     11 C19        -2.8240    0.2700    0.0280 ca        1 253      0.491600
     12 N20        -3.1020    1.5970    0.3010 nb        1 253     -0.756000
     13 C17        -3.9050   -0.6670    0.0110 ca        1 253     -0.205600
     14 C18        -5.2790   -0.2590    0.3940 c3        1 253     -0.040800
     15 C15        -3.6700   -1.9910   -0.4010 ca        1 253      0.165600
     16 N16        -4.7080   -2.9180   -0.5130 nh        1 253     -0.825200
     17 C14        -2.3580   -2.3750   -0.8150 ca        1 253     -0.198000
     18 C13        -1.3150   -1.4880   -0.7440 ca        1 253     -0.070000
     19 C8         -0.7320    2.1280   -0.0270 ca        1 253     -0.317600
     20 C9         -2.1240    2.5040    0.2040 ca        1 253      0.679200
     21 N1         -2.4500    3.8660    0.2930 nh        1 253     -0.925500
     22 C7          0.3250    3.0860   -0.1910 ca        1 253      0.445200
     23 N6          1.5930    2.7740   -0.3340 nb        1 253     -0.668000
     24 C5          1.9490    1.4350   -0.2260 ca        1 253      0.412600
     25 C4          3.3350    1.0980   -0.2720 ca        1 253     -0.241300
     26 H11         5.8550    0.7880   -1.3900 h1        1 253      0.048367
     27 H12         6.0380    1.1450    0.4030 h1        1 253      0.048367
     28 H13A        6.9880   -0.2340   -0.3600 h1        1 253      0.048367
     29 H251        3.0250   -4.3650    1.0630 h1        1 253      0.045700
     30 H252        1.8160   -3.2040    1.8220 h1        1 253      0.045700
     31 H253        1.6670   -3.6510    0.0470 h1        1 253      0.045700
     32 H22         0.6940   -1.6570    0.5910 ha        1 253      0.153000
     33 H181       -5.9780   -0.3940   -0.4710 hc        1 253      0.045033
     34 H182       -5.6460   -0.8890    1.2460 hc        1 253      0.045033
     35 H183       -5.3450    0.8070    0.7180 hc        1 253      0.045033
     36 H161       -5.5120   -2.7310    0.0420 hn        1 253      0.397300
     37 H162       -4.4210   -3.8700   -0.5010 hn        1 253      0.397300
     38 H14        -2.1900   -3.3860   -1.2170 ha        1 253      0.134000
     39 H13        -0.3290   -1.7910   -1.1320 ha        1 253      0.141000
     40 HN11       -3.3880    4.0710    0.5640 hn        1 253      0.405800
     41 HN12       -1.7690    4.4170    0.7650 hn        1 253      0.405800
     42 H7          0.0990    4.1670   -0.2490 h4        1 253      0.024100
     43 H4          4.0670    1.8960   -0.4730 ha        1 253      0.160000
@<TRIPOS>BOND
     1    1    2 1   
     2    1   26 1   
     3    1   27 1   
     4    1   28 1   
     5    2    3 1   
     6    3    4 ar  
     7    3   25 ar  
     8    4    5 1   
     9    4    7 ar  
    10    5    6 1   
    11    6   29 1   
    12    6   30 1   
    13    6   31 1   
    14    7    8 ar  
    15    7   32 1   
    16    8    9 ar  
    17    8   24 ar  
    18    9   10 ar  
    19    9   19 ar  
    20   10   11 ar  
    21   10   18 ar  
    22   11   12 ar  
    23   11   13 ar  
    24   12   20 ar  
    25   13   14 1   
    26   13   15 ar  
    27   14   33 1   
    28   14   34 1   
    29   14   35 1   
    30   15   16 1   
    31   15   17 ar  
    32   16   36 1   
    33   16   37 1   
    34   17   18 ar  
    35   17   38 1   
    36   18   39 1   
    37   19   20 ar  
    38   19   22 ar  
    39   20   21 1   
    40   21   40 1   
    41   21   41 1   
    42   22   23 ar  
    43   22   42 1   
    44   23   24 ar  
    45   24   25 ar  
    46   25   43 1   
@<TRIPOS>SUBSTRUCTURE
     1 253         1 TEMP              0 ****  ****    0 ROOT
