@<TRIPOS>MOLECULE
253
   45    48     1     0     0
SMALL
bcc


@<TRIPOS>ATOM
      1 C1          0.0880    0.0130   -0.1570 c3        1 253      0.098700
      2 O2          1.5140    0.0110   -0.0180 os        1 253     -0.272900
      3 C3          2.0120   -0.0170    1.2480 ca        1 253      0.185100
      4 C23         3.4580    0.0200    1.3250 ca        1 253      0.169100
      5 O24         4.0750    0.1600    0.1150 os        1 253     -0.269900
      6 C25         5.4920    0.3290    0.1220 c3        1 253      0.102700
      7 C22         4.0890   -0.0770    2.5480 ca        1 253     -0.224000
      8 C21         3.3440   -0.2150    3.7460 ca        1 253     -0.127300
      9 C11         3.9370   -0.4040    5.0320 ca        1 253      0.067000
     10 C12         5.2860   -0.8650    5.2640 ca        1 253     -0.063300
     11 C19         5.8500   -0.7220    6.5700 ca        1 253      0.402600
     12 N20         5.0880   -0.2940    7.6460 nb        1 253     -0.653000
     13 C17         7.2270   -1.0600    6.8050 ca        1 253     -0.034600
     14 C18         7.8800   -0.8170    8.1140 c3        1 253     -0.099800
     15 C15         7.9410   -1.6530    5.7600 ca        1 253     -0.063400
     16 N16         9.3440   -2.0250    5.9540 n4        1 253     -0.703000
     17 C14         7.3380   -1.9310    4.5070 ca        1 253     -0.098000
     18 C13         6.0390   -1.5420    4.2760 ca        1 253     -0.081000
     19 C8          3.1310   -0.1460    6.1720 ca        1 253     -0.291600
     20 C9          3.7980   -0.0770    7.4450 ca        1 253      0.548200
     21 N1          2.9910    0.3060    8.6310 n4        1 253     -0.832300
     22 C7          1.7200    0.0290    5.9870 ca        1 253      0.393200
     23 N6          1.1290    0.0080    4.8150 nb        1 253     -0.575000
     24 C5          1.9110   -0.0910    3.6780 ca        1 253      0.437600
     25 C4          1.2660   -0.0470    2.4090 ca        1 253     -0.250300
     26 H11        -0.3460   -0.9160    0.2840 h1        1 253      0.070700
     27 H12        -0.3460    0.9270    0.3130 h1        1 253      0.070700
     28 H13A       -0.0480    0.0300   -1.2700 h1        1 253      0.070700
     29 H251        5.7780    1.2400    0.7000 h1        1 253      0.059700
     30 H252        5.9910   -0.5810    0.5360 h1        1 253      0.059700
     31 H253        5.7320    0.4550   -0.9670 h1        1 253      0.059700
     32 H22         5.1830    0.0310    2.6000 ha        1 253      0.148000
     33 H181        7.2510   -0.2080    8.8100 hc        1 253      0.083033
     34 H182        8.0920   -1.7910    8.6280 hc        1 253      0.083033
     35 H183        8.8400   -0.2550    7.9810 hc        1 253      0.083033
     36 H161        9.9270   -1.1770    5.9700 hn        1 253      0.473133
     37 H162        9.4530   -2.5200    6.8500 hn        1 253      0.473133
     38 H14         7.8930   -2.4670    3.7160 ha        1 253      0.174000
     39 H13         5.5610   -1.8140    3.3160 ha        1 253      0.195000
     40 HN11        2.2850   -0.4230    8.7960 hn        1 253      0.482800
     41 HN12        2.5220    1.2000    8.4310 hn        1 253      0.482800
     42 H7          1.0370    0.1680    6.8460 h4        1 253      0.021100
     43 H4          0.1630   -0.0160    2.3700 ha        1 253      0.190000
     44 H163        9.6570   -2.6360    5.1900 hn        1 253      0.473133
     45 H131        3.5770    0.4090    9.4720 hn        1 253      0.482800
@<TRIPOS>BOND
     1    1    2 1   
     2    1   26 1   
     3    1   27 1   
     4    1   28 1   
     5    2    3 1   
     6    3    4 ar  
     7    3   25 ar  
     8    4    5 1   
     9    4    7 ar  
    10    5    6 1   
    11    6   29 1   
    12    6   30 1   
    13    6   31 1   
    14    7    8 ar  
    15    7   32 1   
    16    8    9 ar  
    17    8   24 ar  
    18    9   10 ar  
    19    9   19 ar  
    20   10   11 ar  
    21   10   18 ar  
    22   11   12 ar  
    23   11   13 ar  
    24   12   20 ar  
    25   13   14 1   
    26   13   15 ar  
    27   14   33 1   
    28   14   34 1   
    29   14   35 1   
    30   15   16 1   
    31   15   17 ar  
    32   16   36 1   
    33   16   37 1   
    34   16   44 1   
    35   17   18 ar  
    36   17   38 1   
    37   18   39 1   
    38   19   20 ar  
    39   19   22 ar  
    40   20   21 1   
    41   21   40 1   
    42   21   41 1   
    43   21   45 1   
    44   22   23 ar  
    45   22   42 1   
    46   23   24 ar  
    47   24   25 ar  
    48   25   43 1   
@<TRIPOS>SUBSTRUCTURE
     1 253         1 TEMP              0 ****  ****    0 ROOT
