@<TRIPOS>MOLECULE
253
   43    46     1     0     0
SMALL
bcc


@<TRIPOS>ATOM
      1 C1          0.1220    0.1250   -0.1610 c3        1 253      0.107700
      2 O2          1.5420    0.1150   -0.0390 os        1 253     -0.300900
      3 C3          2.0370    0.0310    1.2440 ca        1 253      0.129100
      4 C23         3.4690    0.0390    1.3370 ca        1 253      0.109100
      5 O24         4.1230    0.1960    0.1340 os        1 253     -0.300900
      6 C25         5.5450    0.2250    0.1950 c3        1 253      0.108700
      7 C22         4.0810   -0.0920    2.5670 ca        1 253     -0.176000
      8 C21         3.3160   -0.2540    3.7480 ca        1 253     -0.138300
      9 C11         3.9100   -0.4540    5.0460 ca        1 253      0.087000
     10 C12         5.2570   -0.9030    5.2690 ca        1 253     -0.209300
     11 C19         5.8140   -0.7490    6.5780 ca        1 253      0.491600
     12 N20         5.0550   -0.3040    7.6440 nb        1 253     -0.756000
     13 C17         7.1900   -1.0720    6.8050 ca        1 253     -0.205600
     14 C18         7.8290   -0.8270    8.1210 c3        1 253     -0.040800
     15 C15         7.9450   -1.6570    5.7720 ca        1 253      0.165600
     16 N16         9.2650   -2.0660    5.9720 nh        1 253     -0.825200
     17 C14         7.3210   -1.9370    4.5180 ca        1 253     -0.198000
     18 C13         6.0190   -1.5740    4.2890 ca        1 253     -0.070000
     19 C8          3.1020   -0.2010    6.1680 ca        1 253     -0.317600
     20 C9          3.7420   -0.1120    7.4780 ca        1 253      0.679200
     21 N1          2.9460    0.1510    8.6030 nh        1 253     -0.925500
     22 C7          1.6870   -0.0540    5.9720 ca        1 253      0.445200
     23 N6          1.0950   -0.0650    4.8000 nb        1 253     -0.668000
     24 C5          1.8970   -0.1270    3.6680 ca        1 253      0.412600
     25 C4          1.2720   -0.0300    2.3880 ca        1 253     -0.241300
     26 H11        -0.3110    1.0190    0.3500 h1        1 253      0.048367
     27 H12        -0.3160   -0.8150    0.2530 h1        1 253      0.048367
     28 H13A       -0.0390    0.1840   -1.2680 h1        1 253      0.048367
     29 H251        5.9420   -0.7300    0.6170 h1        1 253      0.045700
     30 H252        5.8970    1.0970    0.7980 h1        1 253      0.045700
     31 H253        5.8460    0.3390   -0.8780 h1        1 253      0.045700
     32 H22         5.1760   -0.0130    2.6470 ha        1 253      0.153000
     33 H181        8.7150   -0.1510    8.0010 hc        1 253      0.045033
     34 H182        7.1420   -0.3460    8.8580 hc        1 253      0.045033
     35 H183        8.1790   -1.7940    8.5670 hc        1 253      0.045033
     36 H161        9.7480   -1.6070    6.7110 hn        1 253      0.397300
     37 H162        9.8010   -2.1680    5.1400 hn        1 253      0.397300
     38 H14         7.8850   -2.4710    3.7380 ha        1 253      0.134000
     39 H13         5.5440   -1.8620    3.3370 ha        1 253      0.141000
     40 HN11        2.2090    0.7990    8.4360 hn        1 253      0.405800
     41 HN12        3.4390    0.3150    9.4540 hn        1 253      0.405800
     42 H7          1.0060    0.0340    6.8400 h4        1 253      0.024100
     43 H4          0.1720    0.0070    2.3390 ha        1 253      0.160000
@<TRIPOS>BOND
     1    1    2 1   
     2    1   26 1   
     3    1   27 1   
     4    1   28 1   
     5    2    3 1   
     6    3    4 ar  
     7    3   25 ar  
     8    4    5 1   
     9    4    7 ar  
    10    5    6 1   
    11    6   29 1   
    12    6   30 1   
    13    6   31 1   
    14    7    8 ar  
    15    7   32 1   
    16    8    9 ar  
    17    8   24 ar  
    18    9   10 ar  
    19    9   19 ar  
    20   10   11 ar  
    21   10   18 ar  
    22   11   12 ar  
    23   11   13 ar  
    24   12   20 ar  
    25   13   14 1   
    26   13   15 ar  
    27   14   33 1   
    28   14   34 1   
    29   14   35 1   
    30   15   16 1   
    31   15   17 ar  
    32   16   36 1   
    33   16   37 1   
    34   17   18 ar  
    35   17   38 1   
    36   18   39 1   
    37   19   20 ar  
    38   19   22 ar  
    39   20   21 1   
    40   21   40 1   
    41   21   41 1   
    42   22   23 ar  
    43   22   42 1   
    44   23   24 ar  
    45   24   25 ar  
    46   25   43 1   
@<TRIPOS>SUBSTRUCTURE
     1 253         1 TEMP              0 ****  ****    0 ROOT
