@<TRIPOS>MOLECULE
254
   56    59     1     0     0
SMALL
bcc


@<TRIPOS>ATOM
      1 C1          0.1760   -0.3920    0.5520 c         1 254      0.907200
      2 C2          1.6870   -0.2750    0.3920 ca        1 254     -0.112600
      3 C3          2.5140   -0.3220    1.5450 ca        1 254     -0.084000
      4 C4          3.8790   -0.2150    1.4380 ca        1 254     -0.166000
      5 C5          4.4910   -0.0550    0.1650 ca        1 254     -0.056000
      6 C10         3.6690   -0.0120   -0.9940 ca        1 254     -0.032000
      7 C11         2.2610   -0.1240   -0.8510 ca        1 254     -0.118000
      8 C15        10.4160    1.5500    1.2720 ca        1 254     -0.073300
      9 C16        11.7040    1.0400    1.8610 c3        1 254     -0.002700
     10 C17        12.4190    2.1300    2.6610 c3        1 254     -0.068400
     11 C18        11.4760    2.9020    3.5480 c3        1 254     -0.069400
     12 C19        10.3990    3.6370    2.7490 c3        1 254     -0.004700
     13 C20         9.8220    2.7580    1.6720 ca        1 254     -0.057300
     14 C23        12.6540    0.5900    0.7520 c3        1 254     -0.085100
     15 C24        11.4060   -0.1540    2.7630 c3        1 254     -0.085100
     16 C25         9.3070    4.0580    3.7320 c3        1 254     -0.084600
     17 C26        10.9910    4.8910    2.1110 c3        1 254     -0.084600
     18 O1         -0.5340   -0.3440   -0.4910 o         1 254     -0.825800
     19 O2         -0.2800   -0.5300    1.7220 o         1 254     -0.825800
     20 C6          5.8960    0.0690    0.0220 ca        1 254     -0.082000
     21 C7          6.4750    0.2240   -1.2230 ca        1 254     -0.192900
     22 C8          5.6500    0.2540   -2.3800 ca        1 254     -0.125000
     23 C9          4.2880    0.1440   -2.2640 ca        1 254     -0.120000
     24 C13         8.6000    1.1810   -0.3160 ca        1 254     -0.120900
     25 C14         9.7880    0.7690    0.2890 ca        1 254     -0.102000
     26 C21         8.6380    3.1740    1.0420 ca        1 254     -0.137000
     27 C22         8.0280    2.4030    0.0610 ca        1 254     -0.101000
     28 C12         7.9370    0.3560   -1.3550 ce        1 254      0.481500
     29 N1          8.7070   -0.1620   -2.2860 n2        1 254     -0.474200
     30 O3          8.1330   -0.8880   -3.2190 oh        1 254     -0.342500
     31 H3          2.0120   -0.4460    2.5190 ha        1 254      0.158000
     32 H4          4.5210   -0.2510    2.3290 ha        1 254      0.111000
     33 H11         1.6120   -0.0910   -1.7410 ha        1 254      0.155000
     34 H171       12.9270    2.8340    1.9490 hc        1 254      0.039200
     35 H172       13.2190    1.6550    3.2890 hc        1 254      0.039200
     36 H181       12.0560    3.6500    4.1510 hc        1 254      0.040700
     37 H182       10.9810    2.2010    4.2710 hc        1 254      0.040700
     38 H231       13.6710    0.4040    1.1770 hc        1 254      0.036033
     39 H232       12.7320    1.3760   -0.0360 hc        1 254      0.036033
     40 H233       12.2970   -0.3560    0.2790 hc        1 254      0.036033
     41 H241       12.3580   -0.5750    3.1680 hc        1 254      0.036033
     42 H242       10.8800   -0.9510    2.1840 hc        1 254      0.036033
     43 H243       10.7560    0.1500    3.6170 hc        1 254      0.036033
     44 H251        8.6110    4.7950    3.2650 hc        1 254      0.035700
     45 H252        9.7700    4.5360    4.6290 hc        1 254      0.035700
     46 H253        8.7180    3.1700    4.0620 hc        1 254      0.035700
     47 H261       11.8290    4.6240    1.4250 hc        1 254      0.035700
     48 H262       11.3770    5.5770    2.9020 hc        1 254      0.035700
     49 H263       10.2080    5.4270    1.5220 hc        1 254      0.035700
     50 H6          6.5220    0.0420    0.9280 ha        1 254      0.126000
     51 H8          6.1210    0.3600   -3.3680 ha        1 254      0.129000
     52 H9          3.6450    0.1710   -3.1570 ha        1 254      0.128000
     53 H14        10.2380   -0.1920   -0.0060 ha        1 254      0.140000
     54 H21         8.1770    4.1310    1.3300 ha        1 254      0.132000
     55 H22         7.0910    2.7370   -0.4100 ha        1 254      0.152000
     56 HO3         8.8790   -1.2000   -3.7690 ho        1 254      0.423000
@<TRIPOS>BOND
     1    1    2 1   
     2    1   18 1   
     3    1   19 1   
     4    2    3 ar  
     5    2    7 ar  
     6    3    4 ar  
     7    3   31 1   
     8    4    5 ar  
     9    4   32 1   
    10    5    6 ar  
    11    5   20 ar  
    12    6    7 ar  
    13    6   23 ar  
    14    7   33 1   
    15    8    9 1   
    16    8   13 ar  
    17    8   25 ar  
    18    9   10 1   
    19    9   14 1   
    20    9   15 1   
    21   10   11 1   
    22   10   34 1   
    23   10   35 1   
    24   11   12 1   
    25   11   36 1   
    26   11   37 1   
    27   12   13 1   
    28   12   16 1   
    29   12   17 1   
    30   13   26 ar  
    31   14   38 1   
    32   14   39 1   
    33   14   40 1   
    34   15   41 1   
    35   15   42 1   
    36   15   43 1   
    37   16   44 1   
    38   16   45 1   
    39   16   46 1   
    40   17   47 1   
    41   17   48 1   
    42   17   49 1   
    43   20   21 ar  
    44   20   50 1   
    45   21   22 ar  
    46   21   28 1   
    47   22   23 ar  
    48   22   51 1   
    49   23   52 1   
    50   24   25 ar  
    51   24   27 ar  
    52   24   28 1   
    53   25   53 1   
    54   26   27 ar  
    55   26   54 1   
    56   27   55 1   
    57   28   29 2   
    58   29   30 1   
    59   30   56 1   
@<TRIPOS>SUBSTRUCTURE
     1 254         1 TEMP              0 ****  ****    0 ROOT
