@<TRIPOS>MOLECULE
254
   56    59     1     0     0
SMALL
bcc


@<TRIPOS>ATOM
      1 C1          0.1770   -0.3940    0.5490 c         1 254      0.907200
      2 C2          1.6880   -0.2740    0.3870 ca        1 254     -0.112600
      3 C3          2.5180   -0.3330    1.5370 ca        1 254     -0.084000
      4 C4          3.8820   -0.2240    1.4280 ca        1 254     -0.166000
      5 C5          4.4910   -0.0470    0.1550 ca        1 254     -0.056000
      6 C10         3.6660    0.0090   -1.0000 ca        1 254     -0.032000
      7 C11         2.2590   -0.1070   -0.8560 ca        1 254     -0.118000
      8 C15        10.4160    1.5480    1.2700 ca        1 254     -0.073300
      9 C16        11.7060    1.0300    1.8500 c3        1 254     -0.002700
     10 C17        12.4220    2.1100    2.6630 c3        1 254     -0.068400
     11 C18        11.4810    2.8700    3.5610 c3        1 254     -0.069400
     12 C19        10.4020    3.6150    2.7740 c3        1 254     -0.004700
     13 C20         9.8230    2.7490    1.6870 ca        1 254     -0.057300
     14 C23        12.6540    0.5940    0.7340 c3        1 254     -0.085100
     15 C24        11.4100   -0.1760    2.7380 c3        1 254     -0.085100
     16 C25         9.3110    4.0230    3.7650 c3        1 254     -0.084600
     17 C26        10.9910    4.8770    2.1510 c3        1 254     -0.084600
     18 O1         -0.5350   -0.3340   -0.4910 o         1 254     -0.825800
     19 O2         -0.2760   -0.5460    1.7180 o         1 254     -0.825800
     20 C6          5.8960    0.0800    0.0110 ca        1 254     -0.082000
     21 C7          6.4710    0.2510   -1.2330 ca        1 254     -0.192900
     22 C8          5.6440    0.2940   -2.3880 ca        1 254     -0.125000
     23 C9          4.2820    0.1810   -2.2700 ca        1 254     -0.120000
     24 C13         8.5980    1.1980   -0.3200 ca        1 254     -0.120900
     25 C14         9.7860    0.7790    0.2790 ca        1 254     -0.102000
     26 C21         8.6370    3.1740    1.0640 ca        1 254     -0.137000
     27 C22         8.0260    2.4150    0.0750 ca        1 254     -0.101000
     28 C12         7.9330    0.3860   -1.3680 ce        1 254      0.481500
     29 N1          8.7010   -0.1190   -2.3070 n2        1 254     -0.474200
     30 O3          8.1260   -0.8330   -3.2480 oh        1 254     -0.342500
     31 H3          2.0180   -0.4700    2.5110 ha        1 254      0.158000
     32 H4          4.5270   -0.2690    2.3170 ha        1 254      0.111000
     33 H11         1.6070   -0.0630   -1.7440 ha        1 254      0.155000
     34 H171       12.9280    2.8230    1.9580 hc        1 254      0.039200
     35 H172       13.2230    1.6280    3.2830 hc        1 254      0.039200
     36 H181       12.0620    3.6100    4.1720 hc        1 254      0.040700
     37 H182       10.9870    2.1590    4.2760 hc        1 254      0.040700
     38 H231       13.6710    0.4040    1.1540 hc        1 254      0.036033
     39 H232       12.2960   -0.3460    0.2500 hc        1 254      0.036033
     40 H233       12.7290    1.3900   -0.0450 hc        1 254      0.036033
     41 H241       12.3630   -0.6010    3.1350 hc        1 254      0.036033
     42 H242       10.8830   -0.9650    2.1490 hc        1 254      0.036033
     43 H243       10.7610    0.1180    3.5960 hc        1 254      0.036033
     44 H251        8.6140    4.7650    3.3080 hc        1 254      0.035700
     45 H252        9.7760    4.4900    4.6660 hc        1 254      0.035700
     46 H253        8.7230    3.1300    4.0840 hc        1 254      0.035700
     47 H261       10.2070    5.4210    1.5700 hc        1 254      0.035700
     48 H262       11.8290    4.6200    1.4600 hc        1 254      0.035700
     49 H263       11.3790    5.5530    2.9500 hc        1 254      0.035700
     50 H6          6.5240    0.0420    0.9150 ha        1 254      0.126000
     51 H8          6.1120    0.4140   -3.3760 ha        1 254      0.129000
     52 H9          3.6370    0.2180   -3.1620 ha        1 254      0.128000
     53 H14        10.2370   -0.1780   -0.0300 ha        1 254      0.140000
     54 H21         8.1760    4.1270    1.3650 ha        1 254      0.132000
     55 H22         7.0870    2.7550   -0.3900 ha        1 254      0.152000
     56 HO3         8.8710   -1.1380   -3.8030 ho        1 254      0.423000
@<TRIPOS>BOND
     1    1    2 1   
     2    1   18 1   
     3    1   19 1   
     4    2    3 ar  
     5    2    7 ar  
     6    3    4 ar  
     7    3   31 1   
     8    4    5 ar  
     9    4   32 1   
    10    5    6 ar  
    11    5   20 ar  
    12    6    7 ar  
    13    6   23 ar  
    14    7   33 1   
    15    8    9 1   
    16    8   13 ar  
    17    8   25 ar  
    18    9   10 1   
    19    9   14 1   
    20    9   15 1   
    21   10   11 1   
    22   10   34 1   
    23   10   35 1   
    24   11   12 1   
    25   11   36 1   
    26   11   37 1   
    27   12   13 1   
    28   12   16 1   
    29   12   17 1   
    30   13   26 ar  
    31   14   38 1   
    32   14   39 1   
    33   14   40 1   
    34   15   41 1   
    35   15   42 1   
    36   15   43 1   
    37   16   44 1   
    38   16   45 1   
    39   16   46 1   
    40   17   47 1   
    41   17   48 1   
    42   17   49 1   
    43   20   21 ar  
    44   20   50 1   
    45   21   22 ar  
    46   21   28 1   
    47   22   23 ar  
    48   22   51 1   
    49   23   52 1   
    50   24   25 ar  
    51   24   27 ar  
    52   24   28 1   
    53   25   53 1   
    54   26   27 ar  
    55   26   54 1   
    56   27   55 1   
    57   28   29 2   
    58   29   30 1   
    59   30   56 1   
@<TRIPOS>SUBSTRUCTURE
     1 254         1 TEMP              0 ****  ****    0 ROOT
