@<TRIPOS>MOLECULE
254
   56    59     1     0     0
SMALL
bcc


@<TRIPOS>ATOM
      1 C1          1.4690   -0.7810    6.7220 c         1 254      0.907200
      2 C2          0.9270   -0.6640    5.3020 ca        1 254     -0.112600
      3 C3          1.5310   -1.4190    4.2630 ca        1 254     -0.084000
      4 C4          1.0720   -1.3340    2.9720 ca        1 254     -0.166000
      5 C5         -0.0210   -0.4840    2.6510 ca        1 254     -0.056000
      6 C10        -0.6330    0.2720    3.6870 ca        1 254     -0.032000
      7 C11        -0.1360    0.1630    5.0120 ca        1 254     -0.118000
      8 C15        -0.1730   -0.1240   -3.5740 ca        1 254     -0.073300
      9 C16        -0.4070   -0.9450   -4.8140 c3        1 254     -0.002700
     10 C17         0.5800   -0.5720   -5.9210 c3        1 254     -0.068400
     11 C18         1.9900   -0.4260   -5.4060 c3        1 254     -0.069400
     12 C19         2.1160    0.6890   -4.3670 c3        1 254     -0.004700
     13 C20         0.9850    0.6420   -3.3750 ca        1 254     -0.057300
     14 C23        -1.8150   -0.7000   -5.3570 c3        1 254     -0.085100
     15 C24        -0.2670   -2.4260   -4.4720 c3        1 254     -0.085100
     16 C25         3.4560    0.5010   -3.6550 c3        1 254     -0.084600
     17 C26         2.1200    2.0470   -5.0620 c3        1 254     -0.084600
     18 O1          0.9130   -0.0950    7.6240 o         1 254     -0.825800
     19 O2          2.4450   -1.5590    6.9140 o         1 254     -0.825800
     20 C6         -0.5120   -0.3670    1.3250 ca        1 254     -0.082000
     21 C7         -1.5750    0.4640    1.0310 ca        1 254     -0.192900
     22 C8         -2.1920    1.2090    2.0720 ca        1 254     -0.125000
     23 C9         -1.7290    1.1160    3.3600 ca        1 254     -0.120000
     24 C13        -1.0270    0.6010   -1.4060 ca        1 254     -0.120900
     25 C14        -1.1620   -0.1450   -2.5770 ca        1 254     -0.102000
     26 C21         1.1020    1.4060   -2.2030 ca        1 254     -0.137000
     27 C22         0.1160    1.3910   -1.2260 ca        1 254     -0.101000
     28 C12        -2.0720    0.5800   -0.3520 ce        1 254      0.481500
     29 N1         -3.3200    0.6750   -0.7500 n2        1 254     -0.474200
     30 O3         -4.2580    0.6660    0.1720 oh        1 254     -0.342500
     31 H3          2.3780   -2.0690    4.5410 ha        1 254      0.158000
     32 H4          1.5380   -1.9170    2.1660 ha        1 254      0.111000
     33 H11        -0.6010    0.7440    5.8250 ha        1 254      0.155000
     34 H171        0.2520    0.3910   -6.3950 hc        1 254      0.039200
     35 H172        0.5520   -1.3630   -6.7160 hc        1 254      0.039200
     36 H181        2.6800   -0.2070   -6.2630 hc        1 254      0.040700
     37 H182        2.3230   -1.3950   -4.9470 hc        1 254      0.040700
     38 H231       -2.5840   -1.1670   -4.6970 hc        1 254      0.036033
     39 H232       -2.0200    0.3940   -5.4250 hc        1 254      0.036033
     40 H233       -1.9110   -1.1490   -6.3750 hc        1 254      0.036033
     41 H241       -0.9830   -2.7010   -3.6610 hc        1 254      0.036033
     42 H242       -0.4870   -3.0490   -5.3720 hc        1 254      0.036033
     43 H243        0.7680   -2.6520   -4.1220 hc        1 254      0.036033
     44 H251        3.7180    1.4030   -3.0540 hc        1 254      0.035700
     45 H252        3.4130   -0.3820   -2.9740 hc        1 254      0.035700
     46 H253        4.2640    0.3360   -4.4080 hc        1 254      0.035700
     47 H261        2.2060    2.8640   -4.3060 hc        1 254      0.035700
     48 H262        2.9850    2.1150   -5.7650 hc        1 254      0.035700
     49 H263        1.1760    2.1960   -5.6380 hc        1 254      0.035700
     50 H6         -0.0250   -0.9510    0.5300 ha        1 254      0.126000
     51 H8         -3.0500    1.8540    1.8310 ha        1 254      0.129000
     52 H9         -2.2020    1.6930    4.1690 ha        1 254      0.128000
     53 H14        -2.0600   -0.7670   -2.7190 ha        1 254      0.140000
     54 H21         1.9960    2.0300   -2.0480 ha        1 254      0.132000
     55 H22         0.2320    1.9840   -0.3050 ha        1 254      0.152000
     56 HO3        -5.0920    0.7030   -0.3380 ho        1 254      0.423000
@<TRIPOS>BOND
     1    1    2 1   
     2    1   18 1   
     3    1   19 1   
     4    2    3 ar  
     5    2    7 ar  
     6    3    4 ar  
     7    3   31 1   
     8    4    5 ar  
     9    4   32 1   
    10    5    6 ar  
    11    5   20 ar  
    12    6    7 ar  
    13    6   23 ar  
    14    7   33 1   
    15    8    9 1   
    16    8   13 ar  
    17    8   25 ar  
    18    9   10 1   
    19    9   14 1   
    20    9   15 1   
    21   10   11 1   
    22   10   34 1   
    23   10   35 1   
    24   11   12 1   
    25   11   36 1   
    26   11   37 1   
    27   12   13 1   
    28   12   16 1   
    29   12   17 1   
    30   13   26 ar  
    31   14   38 1   
    32   14   39 1   
    33   14   40 1   
    34   15   41 1   
    35   15   42 1   
    36   15   43 1   
    37   16   44 1   
    38   16   45 1   
    39   16   46 1   
    40   17   47 1   
    41   17   48 1   
    42   17   49 1   
    43   20   21 ar  
    44   20   50 1   
    45   21   22 ar  
    46   21   28 1   
    47   22   23 ar  
    48   22   51 1   
    49   23   52 1   
    50   24   25 ar  
    51   24   27 ar  
    52   24   28 1   
    53   25   53 1   
    54   26   27 ar  
    55   26   54 1   
    56   27   55 1   
    57   28   29 2   
    58   29   30 1   
    59   30   56 1   
@<TRIPOS>SUBSTRUCTURE
     1 254         1 TEMP              0 ****  ****    0 ROOT
