@<TRIPOS>MOLECULE
254
   56    59     1     0     0
SMALL
bcc


@<TRIPOS>ATOM
      1 C1          0.1760   -0.3940    0.5490 c         1 254      0.907200
      2 C2          1.6870   -0.2740    0.3870 ca        1 254     -0.112600
      3 C3          2.5170   -0.3320    1.5380 ca        1 254     -0.084000
      4 C4          3.8810   -0.2230    1.4290 ca        1 254     -0.166000
      5 C5          4.4900   -0.0490    0.1570 ca        1 254     -0.056000
      6 C10         3.6660    0.0060   -1.0000 ca        1 254     -0.032000
      7 C11         2.2590   -0.1100   -0.8550 ca        1 254     -0.118000
      8 C15        10.4160    1.5480    1.2700 ca        1 254     -0.073300
      9 C16        11.7070    1.0330    1.8500 c3        1 254     -0.002700
     10 C17        12.4230    2.1140    2.6610 c3        1 254     -0.068400
     11 C18        11.4810    2.8750    3.5590 c3        1 254     -0.069400
     12 C19        10.4000    3.6170    2.7720 c3        1 254     -0.004700
     13 C20         9.8220    2.7500    1.6860 ca        1 254     -0.057300
     14 C23        12.6550    0.5970    0.7330 c3        1 254     -0.085100
     15 C24        11.4130   -0.1720    2.7390 c3        1 254     -0.085100
     16 C25         9.3100    4.0250    3.7630 c3        1 254     -0.084600
     17 C26        10.9880    4.8800    2.1470 c3        1 254     -0.084600
     18 O1         -0.5350   -0.3360   -0.4920 o         1 254     -0.825800
     19 O2         -0.2780   -0.5440    1.7190 o         1 254     -0.825800
     20 C6          5.8950    0.0780    0.0130 ca        1 254     -0.082000
     21 C7          6.4710    0.2470   -1.2310 ca        1 254     -0.192900
     22 C8          5.6440    0.2890   -2.3860 ca        1 254     -0.125000
     23 C9          4.2820    0.1750   -2.2690 ca        1 254     -0.120000
     24 C13         8.5980    1.1960   -0.3180 ca        1 254     -0.120900
     25 C14         9.7870    0.7780    0.2800 ca        1 254     -0.102000
     26 C21         8.6360    3.1720    1.0630 ca        1 254     -0.137000
     27 C22         8.0250    2.4120    0.0750 ca        1 254     -0.101000
     28 C12         7.9330    0.3810   -1.3650 ce        1 254      0.481500
     29 N1          8.7010   -0.1250   -2.3040 n2        1 254     -0.474200
     30 O3          8.1260   -0.8410   -3.2440 oh        1 254     -0.342500
     31 H3          2.0170   -0.4670    2.5120 ha        1 254      0.158000
     32 H4          4.5250   -0.2670    2.3190 ha        1 254      0.111000
     33 H11         1.6080   -0.0680   -1.7440 ha        1 254      0.155000
     34 H171       12.9270    2.8270    1.9560 hc        1 254      0.039200
     35 H172       13.2250    1.6340    3.2810 hc        1 254      0.039200
     36 H181       12.0610    3.6160    4.1690 hc        1 254      0.040700
     37 H182       10.9890    2.1640    4.2740 hc        1 254      0.040700
     38 H231       12.2970   -0.3440    0.2500 hc        1 254      0.036033
     39 H232       13.6730    0.4080    1.1530 hc        1 254      0.036033
     40 H233       12.7290    1.3920   -0.0460 hc        1 254      0.036033
     41 H241       10.8860   -0.9630    2.1510 hc        1 254      0.036033
     42 H242       10.7650    0.1210    3.5970 hc        1 254      0.036033
     43 H243       12.3670   -0.5960    3.1360 hc        1 254      0.036033
     44 H251        8.7240    3.1320    4.0830 hc        1 254      0.035700
     45 H252        8.6120    4.7660    3.3060 hc        1 254      0.035700
     46 H253        9.7750    4.4930    4.6640 hc        1 254      0.035700
     47 H261       11.3750    5.5570    2.9460 hc        1 254      0.035700
     48 H262       10.2040    5.4220    1.5660 hc        1 254      0.035700
     49 H263       11.8260    4.6230    1.4560 hc        1 254      0.035700
     50 H6          6.5230    0.0410    0.9170 ha        1 254      0.126000
     51 H8          6.1130    0.4060   -3.3740 ha        1 254      0.129000
     52 H9          3.6380    0.2110   -3.1610 ha        1 254      0.128000
     53 H14        10.2380   -0.1790   -0.0280 ha        1 254      0.140000
     54 H21         8.1740    4.1250    1.3640 ha        1 254      0.132000
     55 H22         7.0860    2.7510   -0.3900 ha        1 254      0.152000
     56 HO3         8.8720   -1.1460   -3.7980 ho        1 254      0.423000
@<TRIPOS>BOND
     1    1    2 1   
     2    1   18 1   
     3    1   19 1   
     4    2    3 ar  
     5    2    7 ar  
     6    3    4 ar  
     7    3   31 1   
     8    4    5 ar  
     9    4   32 1   
    10    5    6 ar  
    11    5   20 ar  
    12    6    7 ar  
    13    6   23 ar  
    14    7   33 1   
    15    8    9 1   
    16    8   13 ar  
    17    8   25 ar  
    18    9   10 1   
    19    9   14 1   
    20    9   15 1   
    21   10   11 1   
    22   10   34 1   
    23   10   35 1   
    24   11   12 1   
    25   11   36 1   
    26   11   37 1   
    27   12   13 1   
    28   12   16 1   
    29   12   17 1   
    30   13   26 ar  
    31   14   38 1   
    32   14   39 1   
    33   14   40 1   
    34   15   41 1   
    35   15   42 1   
    36   15   43 1   
    37   16   44 1   
    38   16   45 1   
    39   16   46 1   
    40   17   47 1   
    41   17   48 1   
    42   17   49 1   
    43   20   21 ar  
    44   20   50 1   
    45   21   22 ar  
    46   21   28 1   
    47   22   23 ar  
    48   22   51 1   
    49   23   52 1   
    50   24   25 ar  
    51   24   27 ar  
    52   24   28 1   
    53   25   53 1   
    54   26   27 ar  
    55   26   54 1   
    56   27   55 1   
    57   28   29 2   
    58   29   30 1   
    59   30   56 1   
@<TRIPOS>SUBSTRUCTURE
     1 254         1 TEMP              0 ****  ****    0 ROOT
