@<TRIPOS>MOLECULE
255
   56    59     1     0     0
SMALL
bcc


@<TRIPOS>ATOM
      1 O25         1.5190    0.6380    0.8120 o         1 255     -0.581300
      2 S31         2.7910    0.7210    0.2750 sy        1 255      1.497200
      3 O26         3.9030    0.3770    1.0170 o         1 255     -0.581300
      4 N24         2.6910   -0.6540   -1.0560 n4        1 255     -0.701900
      5 C30         3.0330   -2.0700   -0.6350 c3        1 255      0.158200
      6 C01         4.5490   -2.2300   -0.4880 c3        1 255     -0.130767
      7 C02         2.3520   -2.4010    0.6960 c3        1 255     -0.130767
      8 C03         2.5370   -3.0550   -1.7010 c3        1 255     -0.130767
      9 C20         3.0120    1.9280   -0.7430 ca        1 255     -0.584500
     10 C13         1.9190    2.6560   -1.2720 ca        1 255      0.017500
     11 C11         2.1060    3.7420   -2.1030 ca        1 255     -0.165000
     12 C17         3.4070    4.1710   -2.4460 cp        1 255      0.152000
     13 C10         4.5070    3.4620   -1.9140 ca        1 255     -0.165000
     14 C12         4.3100    2.3750   -1.0860 ca        1 255      0.017500
     15 C18         3.6070    5.3060   -3.3200 cp        1 255     -0.262300
     16 C15         2.6420    5.6120   -4.3440 ca        1 255      0.440200
     17 N22         2.7530    6.6150   -5.1860 nb        1 255     -0.645000
     18 C28         3.8540    7.4510   -5.0830 ca        1 255      0.430600
     19 C14         3.9890    8.5320   -6.0050 ca        1 255     -0.180300
     20 C06         5.0770    9.3660   -5.9250 ca        1 255     -0.078000
     21 C09         6.0610    9.1900   -4.9340 ca        1 255     -0.163000
     22 C27         5.9700    8.1550   -4.0070 ca        1 255      0.159600
     23 C29         4.8590    7.2480   -4.0820 ca        1 255     -0.144300
     24 C16         4.7120    6.1360   -3.2100 ca        1 255      0.029000
     25 N23         7.0000    7.9470   -3.0500 nh        1 255     -0.715300
     26 C19         6.7710    8.2780   -1.6850 ca        1 255      0.601200
     27 N21         5.4920    8.4030   -1.2100 nb        1 255     -0.710000
     28 C07         5.3400    8.6550    0.1000 ca        1 255      0.423200
     29 C04         6.4020    8.7990    1.0090 ca        1 255     -0.270300
     30 C05         7.7030    8.6700    0.5210 ca        1 255     -0.062000
     31 C08         7.9060    8.4110   -0.8310 ca        1 255     -0.280300
     32 HN24        1.7310   -0.6760   -1.3990 hn        1 255      0.439300
     33 H011        4.9570   -1.5600    0.3080 hc        1 255      0.074256
     34 H012        5.0720   -2.0260   -1.4530 hc        1 255      0.074256
     35 H013        4.7610   -3.2880   -0.1930 hc        1 255      0.074256
     36 H021        1.2480   -2.2360    0.6470 hc        1 255      0.074256
     37 H022        2.5350   -3.4800    0.9260 hc        1 255      0.074256
     38 H023        2.7800   -1.7930    1.5310 hc        1 255      0.074256
     39 H031        3.0040   -2.8460   -2.6940 hc        1 255      0.074256
     40 H032        1.4250   -3.0180   -1.8000 hc        1 255      0.074256
     41 H033        2.8240   -4.0910   -1.3930 hc        1 255      0.074256
     42 H13         0.8910    2.3550   -0.9910 ha        1 255      0.162500
     43 H11         1.2320    4.2980   -2.4810 ha        1 255      0.172000
     44 H10         5.5330    3.7810   -2.1650 ha        1 255      0.172000
     45 H12         5.1860    1.8450   -0.6650 ha        1 255      0.162500
     46 H15         1.7510    4.9700   -4.4710 h4        1 255      0.023100
     47 H14         3.2140    8.6850   -6.7740 ha        1 255      0.166000
     48 H06         5.1880   10.2000   -6.6370 ha        1 255      0.153000
     49 H09         6.9060    9.8980   -4.9070 ha        1 255      0.147000
     50 H16         5.4750    5.9470   -2.4360 ha        1 255      0.158000
     51 HN23        7.8830    8.3060   -3.3650 hn        1 255      0.415800
     52 H07         4.2910    8.7580    0.4340 h4        1 255      0.027100
     53 H04         6.2070    9.0140    2.0670 ha        1 255      0.154000
     54 H05         8.5660    8.7780    1.1960 ha        1 255      0.149000
     55 H08         8.9260    8.3120   -1.2290 ha        1 255      0.149000
     56 H242        3.2890   -0.4210   -1.8440 hn        1 255      0.439300
@<TRIPOS>BOND
     1    1    2 2   
     2    2    3 2   
     3    2    4 1   
     4    2    9 1   
     5    4    5 1   
     6    4   32 1   
     7    4   56 1   
     8    5    6 1   
     9    5    7 1   
    10    5    8 1   
    11    6   33 1   
    12    6   34 1   
    13    6   35 1   
    14    7   36 1   
    15    7   37 1   
    16    7   38 1   
    17    8   39 1   
    18    8   40 1   
    19    8   41 1   
    20    9   10 ar  
    21    9   14 ar  
    22   10   11 ar  
    23   10   42 1   
    24   11   12 ar  
    25   11   43 1   
    26   12   13 ar  
    27   12   15 1   
    28   13   14 ar  
    29   13   44 1   
    30   14   45 1   
    31   15   16 ar  
    32   15   24 ar  
    33   16   17 ar  
    34   16   46 1   
    35   17   18 ar  
    36   18   19 ar  
    37   18   23 ar  
    38   19   20 ar  
    39   19   47 1   
    40   20   21 ar  
    41   20   48 1   
    42   21   22 ar  
    43   21   49 1   
    44   22   23 ar  
    45   22   25 1   
    46   23   24 ar  
    47   24   50 1   
    48   25   26 1   
    49   25   51 1   
    50   26   27 ar  
    51   26   31 ar  
    52   27   28 ar  
    53   28   29 ar  
    54   28   52 1   
    55   29   30 ar  
    56   29   53 1   
    57   30   31 ar  
    58   30   54 1   
    59   31   55 1   
@<TRIPOS>SUBSTRUCTURE
     1 255         1 TEMP              0 ****  ****    0 ROOT
