@<TRIPOS>MOLECULE
255
   57    60     1     0     0
SMALL
bcc


@<TRIPOS>ATOM
      1 O25         0.5900    0.0080   -0.7420 o         1 255     -0.563800
      2 S31         1.8320    0.4600   -0.3420 sy        1 255      1.475200
      3 O26         2.2130    0.5220    0.9830 o         1 255     -0.563800
      4 N24         2.9600   -0.8390   -1.0970 n4        1 255     -0.717900
      5 C30         3.1620   -2.1190   -0.2910 c3        1 255      0.160200
      6 C01         4.1570   -1.8730    0.8450 c3        1 255     -0.136100
      7 C02         1.8250   -2.5900    0.2860 c3        1 255     -0.136100
      8 C03         3.7200   -3.2110   -1.2120 c3        1 255     -0.136100
      9 C20         2.3610    1.7280   -1.2120 ca        1 255     -0.516500
     10 C13         1.8190    2.0140   -2.4820 ca        1 255      0.013000
     11 C11         2.1480    3.1760   -3.1630 ca        1 255     -0.142500
     12 C17         3.0290    4.1120   -2.5890 cp        1 255      0.079000
     13 C10         3.6020    3.8250   -1.3380 ca        1 255     -0.142500
     14 C12         3.2720    2.6550   -0.6670 ca        1 255      0.013000
     15 C18         3.3000    5.3720   -3.2720 cp        1 255     -0.161300
     16 C15         2.2330    6.0080   -4.0040 ca        1 255      0.444200
     17 N22         2.3670    7.1450   -4.6530 nb        1 255     -0.609000
     18 C28         3.5970    7.7740   -4.6440 ca        1 255      0.415600
     19 C14         3.7330    9.0080   -5.3600 ca        1 255     -0.091300
     20 C06         4.9360    9.6680   -5.3780 ca        1 255     -0.115000
     21 C09         6.0550    9.1490   -4.6960 ca        1 255     -0.063000
     22 C27         5.9530    7.9530   -3.9980 ca        1 255     -0.040400
     23 C29         4.7200    7.2280   -3.9410 ca        1 255     -0.127300
     24 C16         4.5290    6.0000   -3.2420 ca        1 255     -0.074000
     25 N23         7.1530    7.4380   -3.3220 n4        1 255     -0.612100
     26 C19         7.3130    7.9790   -1.9460 ca        1 255      0.449200
     27 N21         6.7700    7.2460   -0.9310 nb        1 255     -0.671000
     28 C07         6.9200    7.7320    0.3080 ca        1 255      0.432200
     29 C04         7.5940    8.9390    0.6010 ca        1 255     -0.178300
     30 C05         8.1400    9.6690   -0.4510 ca        1 255     -0.062000
     31 C08         8.0030    9.1940   -1.7640 ca        1 255     -0.192300
     32 HN24        3.8850   -0.4600   -1.2840 hn        1 255      0.444800
     33 H011        5.1560   -1.5680    0.4500 hc        1 255      0.079589
     34 H012        4.2850   -2.8320    1.4090 hc        1 255      0.079589
     35 H013        3.7840   -1.1010    1.5620 hc        1 255      0.079589
     36 H021        1.0440   -2.6960   -0.5060 hc        1 255      0.079589
     37 H022        1.9800   -3.5930    0.7570 hc        1 255      0.079589
     38 H023        1.4580   -1.8930    1.0810 hc        1 255      0.079589
     39 H031        4.6910   -2.9010   -1.6680 hc        1 255      0.079589
     40 H032        3.9010   -4.1320   -0.6020 hc        1 255      0.079589
     41 H033        2.9940   -3.4700   -2.0200 hc        1 255      0.079589
     42 H13         1.0890    1.3130   -2.9320 ha        1 255      0.172500
     43 H11         1.7070    3.3680   -4.1560 ha        1 255      0.171000
     44 H10         4.2930    4.5460   -0.8700 ha        1 255      0.171000
     45 H12         3.7060    2.4630    0.3330 ha        1 255      0.172500
     46 H15         1.2240    5.5490   -4.0280 h4        1 255      0.055100
     47 H14         2.8540    9.4170   -5.8960 ha        1 255      0.196000
     48 H06         5.0460   10.6190   -5.9290 ha        1 255      0.185000
     49 H09         7.0000    9.7170   -4.7390 ha        1 255      0.160000
     50 H16         5.3480    5.5430   -2.6660 ha        1 255      0.142000
     51 HN23        7.1090    6.4100   -3.2930 hn        1 255      0.467300
     52 H07         6.4740    7.1180    1.1170 h4        1 255      0.059100
     53 H04         7.6810    9.2850    1.6440 ha        1 255      0.191000
     54 H05         8.6770   10.6160   -0.2660 ha        1 255      0.188000
     55 H08         8.4280    9.7630   -2.6040 ha        1 255      0.169000
     56 H242        2.5630   -1.1270   -1.9920 hn        1 255      0.444800
     57 H232        7.9840    7.7160   -3.8630 hn        1 255      0.467300
@<TRIPOS>BOND
     1    1    2 2   
     2    2    3 2   
     3    2    4 1   
     4    2    9 1   
     5    4    5 1   
     6    4   32 1   
     7    4   56 1   
     8    5    6 1   
     9    5    7 1   
    10    5    8 1   
    11    6   33 1   
    12    6   34 1   
    13    6   35 1   
    14    7   36 1   
    15    7   37 1   
    16    7   38 1   
    17    8   39 1   
    18    8   40 1   
    19    8   41 1   
    20    9   10 ar  
    21    9   14 ar  
    22   10   11 ar  
    23   10   42 1   
    24   11   12 ar  
    25   11   43 1   
    26   12   13 ar  
    27   12   15 1   
    28   13   14 ar  
    29   13   44 1   
    30   14   45 1   
    31   15   16 ar  
    32   15   24 ar  
    33   16   17 ar  
    34   16   46 1   
    35   17   18 ar  
    36   18   19 ar  
    37   18   23 ar  
    38   19   20 ar  
    39   19   47 1   
    40   20   21 ar  
    41   20   48 1   
    42   21   22 ar  
    43   21   49 1   
    44   22   23 ar  
    45   22   25 1   
    46   23   24 ar  
    47   24   50 1   
    48   25   26 1   
    49   25   51 1   
    50   25   57 1   
    51   26   27 ar  
    52   26   31 ar  
    53   27   28 ar  
    54   28   29 ar  
    55   28   52 1   
    56   29   30 ar  
    57   29   53 1   
    58   30   31 ar  
    59   30   54 1   
    60   31   55 1   
@<TRIPOS>SUBSTRUCTURE
     1 255         1 TEMP              0 ****  ****    0 ROOT
