@<TRIPOS>MOLECULE
255
   56    59     1     0     0
SMALL
bcc


@<TRIPOS>ATOM
      1 O25         1.1580    0.1570    0.4900 o         1 255     -0.579800
      2 S31         2.4800    0.3210    0.1220 sy        1 255      1.495200
      3 O26         3.5090    0.0200    0.9920 o         1 255     -0.579800
      4 N24         2.6280   -1.0160   -1.2380 ny        1 255     -0.703900
      5 C30         2.9850   -2.4240   -0.8040 c3        1 255      0.158200
      6 C01         4.4760   -2.5150   -0.4650 c3        1 255     -0.131433
      7 C02         2.1560   -2.8220    0.4220 c3        1 255     -0.131433
      8 C03         2.6800   -3.4040   -1.9440 c3        1 255     -0.131433
      9 C20         2.7590    1.5710   -0.8320 ca        1 255     -0.578500
     10 C13         1.7020    2.2470   -1.4870 ca        1 255      0.018000
     11 C11         1.9300    3.3690   -2.2600 ca        1 255     -0.163500
     12 C17         3.2350    3.8850   -2.4140 cp        1 255      0.145000
     13 C10         4.2960    3.2270   -1.7560 ca        1 255     -0.163500
     14 C12         4.0610    2.1030   -0.9880 ca        1 255      0.018000
     15 C18         3.4730    5.0580   -3.2270 cp        1 255     -0.253300
     16 C15         2.6480    5.3140   -4.3800 ca        1 255      0.435200
     17 N22         2.7740    6.3660   -5.1550 nb        1 255     -0.638000
     18 C28         3.7540    7.3010   -4.8560 ca        1 255      0.436600
     19 C14         3.8590    8.4670   -5.6670 ca        1 255     -0.195300
     20 C06         4.8210    9.4080   -5.3870 ca        1 255     -0.068000
     21 C09         5.7270    9.2410   -4.3250 ca        1 255     -0.122000
     22 C27         5.6690    8.1150   -3.5020 ca        1 255      0.183600
     23 C29         4.6520    7.1230   -3.7490 ca        1 255     -0.193300
     24 C16         4.4720    5.9730   -2.9380 ca        1 255     -0.010000
     25 N23         6.6440    7.9140   -2.5100 nu        1 255     -0.736300
     26 C19         6.9450    8.8840   -1.5250 ca        1 255      0.622200
     27 N21         6.2600   10.0700   -1.4860 nb        1 255     -0.705000
     28 C07         6.6260   10.9650   -0.5550 ca        1 255      0.431200
     29 C04         7.6540   10.7600    0.3820 ca        1 255     -0.268300
     30 C05         8.3420    9.5480    0.3430 ca        1 255     -0.061000
     31 C08         7.9980    8.5910   -0.6080 ca        1 255     -0.284300
     32 HN24        1.7250   -1.0760   -1.7060 hn        1 255      0.439800
     33 H011        4.7450   -1.8460    0.3900 hc        1 255      0.074589
     34 H012        5.1070   -2.2630   -1.3500 hc        1 255      0.074589
     35 H013        4.7020   -3.5690   -0.1640 hc        1 255      0.074589
     36 H021        1.0610   -2.7060    0.2340 hc        1 255      0.074589
     37 H022        2.4450   -2.2180    1.3180 hc        1 255      0.074589
     38 H023        2.3600   -3.8980    0.6510 hc        1 255      0.074589
     39 H031        1.5900   -3.4180   -2.1850 hc        1 255      0.074589
     40 H032        3.2590   -3.1470   -2.8640 hc        1 255      0.074589
     41 H033        2.9780   -4.4330   -1.6220 hc        1 255      0.074589
     42 H13         0.6670    1.8790   -1.3530 ha        1 255      0.163000
     43 H11         1.0800    3.8830   -2.7420 ha        1 255      0.170500
     44 H10         5.3240    3.6100   -1.8630 ha        1 255      0.170500
     45 H12         4.9050    1.6120   -0.4670 ha        1 255      0.163000
     46 H15         1.8600    4.5910   -4.6640 h4        1 255      0.024100
     47 H14         3.1630    8.6040   -6.5100 ha        1 255      0.165000
     48 H06         4.9010   10.3160   -6.0080 ha        1 255      0.154000
     49 H09         6.4880   10.0210   -4.1560 ha        1 255      0.167000
     50 H16         5.1000    5.8130   -2.0470 ha        1 255      0.132000
     51 HN23        6.7550    6.9780   -2.1900 hn        1 255      0.418800
     52 H07         6.0480   11.9080   -0.5660 h4        1 255      0.032100
     53 H04         7.9020   11.5360    1.1170 ha        1 255      0.155000
     54 H05         9.1570    9.3450    1.0560 ha        1 255      0.146000
     55 H08         8.5410    7.6380   -0.6560 ha        1 255      0.143000
     56 H242        3.3130   -0.7330   -1.9340 hn        1 255      0.439800
@<TRIPOS>BOND
     1    1    2 2   
     2    2    3 2   
     3    2    4 1   
     4    2    9 1   
     5    4    5 1   
     6    4   32 1   
     7    4   56 1   
     8    5    6 1   
     9    5    7 1   
    10    5    8 1   
    11    6   33 1   
    12    6   34 1   
    13    6   35 1   
    14    7   36 1   
    15    7   37 1   
    16    7   38 1   
    17    8   39 1   
    18    8   40 1   
    19    8   41 1   
    20    9   10 ar  
    21    9   14 ar  
    22   10   11 ar  
    23   10   42 1   
    24   11   12 ar  
    25   11   43 1   
    26   12   13 ar  
    27   12   15 1   
    28   13   14 ar  
    29   13   44 1   
    30   14   45 1   
    31   15   16 ar  
    32   15   24 ar  
    33   16   17 ar  
    34   16   46 1   
    35   17   18 ar  
    36   18   19 ar  
    37   18   23 ar  
    38   19   20 ar  
    39   19   47 1   
    40   20   21 ar  
    41   20   48 1   
    42   21   22 ar  
    43   21   49 1   
    44   22   23 ar  
    45   22   25 1   
    46   23   24 ar  
    47   24   50 1   
    48   25   26 1   
    49   25   51 1   
    50   26   27 ar  
    51   26   31 ar  
    52   27   28 ar  
    53   28   29 ar  
    54   28   52 1   
    55   29   30 ar  
    56   29   53 1   
    57   30   31 ar  
    58   30   54 1   
    59   31   55 1   
@<TRIPOS>SUBSTRUCTURE
     1 255         1 TEMP              0 ****  ****    0 ROOT
