@<TRIPOS>MOLECULE
255
   55    58     1     0     0
SMALL
bcc


@<TRIPOS>ATOM
      1 O25         5.7630   -1.3450    0.7400 o         1 255     -0.656800
      2 S31         4.9500   -0.2030    0.5610 sy        1 255      1.517200
      3 O26         5.0700    0.8210    1.5260 o         1 255     -0.656800
      4 N24         5.1780    0.3650   -0.9330 n3        1 255     -0.919100
      5 C30         5.3380    1.7580   -1.3320 c3        1 255      0.263200
      6 C01         4.1800    2.6390   -0.8290 c3        1 255     -0.116433
      7 C02         6.6490    2.3540   -0.7820 c3        1 255     -0.116433
      8 C03         5.3790    1.8820   -2.8660 c3        1 255     -0.116433
      9 C20         3.3390   -0.7270    0.5210 ca        1 255     -0.372500
     10 C13         3.0310   -2.0660    0.2530 ca        1 255     -0.016500
     11 C11         1.7140   -2.5140    0.2490 ca        1 255     -0.150500
     12 C17         0.6650   -1.6210    0.5180 cp        1 255      0.031000
     13 C10         0.9670   -0.2790    0.7950 ca        1 255     -0.150500
     14 C12         2.2880    0.1540    0.7960 ca        1 255     -0.016500
     15 C18        -0.7170   -2.0830    0.5120 cp        1 255     -0.176300
     16 C15        -1.0470   -3.3680    1.0670 ca        1 255      0.428200
     17 N22        -2.2680   -3.8560    1.1220 nb        1 255     -0.652000
     18 C28        -3.3060   -3.0980    0.6050 ca        1 255      0.412600
     19 C14        -4.6370   -3.6100    0.6860 ca        1 255     -0.182300
     20 C06        -5.6830   -2.8770    0.1830 ca        1 255     -0.103000
     21 C09        -5.4750   -1.6300   -0.4370 ca        1 255     -0.113000
     22 C27        -4.1960   -1.0920   -0.5420 ca        1 255      0.153600
     23 C29        -3.0810   -1.8190    0.0050 ca        1 255     -0.170300
     24 C16        -1.7450   -1.3250   -0.0090 ca        1 255     -0.068000
     25 N23        -3.9900    0.1110   -1.2540 nh        1 255     -0.729300
     26 C19        -4.5980    1.3260   -0.8800 ca        1 255      0.637200
     27 N21        -5.5890    1.3470    0.0680 nb        1 255     -0.707000
     28 C07        -6.1710    2.5280    0.3280 ca        1 255      0.432200
     29 C04        -5.8300    3.7390   -0.2960 ca        1 255     -0.287300
     30 C05        -4.8170    3.7160   -1.2560 ca        1 255     -0.060000
     31 C08        -4.1860    2.5150   -1.5590 ca        1 255     -0.298300
     32 HN24        5.2880   -0.2630   -1.6940 hn        1 255      0.445800
     33 H011        4.1730    2.6800    0.2880 hc        1 255      0.048144
     34 H012        4.3210    3.6760   -1.2180 hc        1 255      0.048144
     35 H013        3.1980    2.2530   -1.1910 hc        1 255      0.048144
     36 H021        7.5310    1.7830   -1.1570 hc        1 255      0.048144
     37 H022        6.7370    3.4130   -1.1230 hc        1 255      0.048144
     38 H023        6.6490    2.3370    0.3360 hc        1 255      0.048144
     39 H031        4.4300    1.5100   -3.3190 hc        1 255      0.048144
     40 H032        5.5100    2.9560   -3.1400 hc        1 255      0.048144
     41 H033        6.2350    1.3030   -3.2880 hc        1 255      0.048144
     42 H13         3.8520   -2.7800    0.0590 ha        1 255      0.155000
     43 H11         1.4940   -3.5700    0.0300 ha        1 255      0.143500
     44 H10         0.1560    0.4270    1.0290 ha        1 255      0.143500
     45 H12         2.5190    1.2090    1.0320 ha        1 255      0.155000
     46 H15        -0.2440   -3.9980    1.4950 h4        1 255      0.030100
     47 H14        -4.8080   -4.5900    1.1580 ha        1 255      0.154000
     48 H06        -6.7120   -3.2640    0.2520 ha        1 255      0.140000
     49 H09        -6.3490   -1.0890   -0.8350 ha        1 255      0.156000
     50 H16        -1.5150   -0.3330   -0.4260 ha        1 255      0.132000
     51 HN23       -3.0710    0.2270   -1.6270 hn        1 255      0.421800
     52 H07        -6.9640    2.4920    1.0990 h4        1 255      0.024100
     53 H04        -6.3480    4.6690   -0.0330 ha        1 255      0.147000
     54 H05        -4.5170    4.6400   -1.7720 ha        1 255      0.139000
     55 H08        -3.3910    2.4830   -2.3160 ha        1 255      0.141000
@<TRIPOS>BOND
     1    1    2 2   
     2    2    3 2   
     3    2    4 1   
     4    2    9 1   
     5    4    5 1   
     6    4   32 1   
     7    5    6 1   
     8    5    7 1   
     9    5    8 1   
    10    6   33 1   
    11    6   34 1   
    12    6   35 1   
    13    7   36 1   
    14    7   37 1   
    15    7   38 1   
    16    8   39 1   
    17    8   40 1   
    18    8   41 1   
    19    9   10 ar  
    20    9   14 ar  
    21   10   11 ar  
    22   10   42 1   
    23   11   12 ar  
    24   11   43 1   
    25   12   13 ar  
    26   12   15 1   
    27   13   14 ar  
    28   13   44 1   
    29   14   45 1   
    30   15   16 ar  
    31   15   24 ar  
    32   16   17 ar  
    33   16   46 1   
    34   17   18 ar  
    35   18   19 ar  
    36   18   23 ar  
    37   19   20 ar  
    38   19   47 1   
    39   20   21 ar  
    40   20   48 1   
    41   21   22 ar  
    42   21   49 1   
    43   22   23 ar  
    44   22   25 1   
    45   23   24 ar  
    46   24   50 1   
    47   25   26 1   
    48   25   51 1   
    49   26   27 ar  
    50   26   31 ar  
    51   27   28 ar  
    52   28   29 ar  
    53   28   52 1   
    54   29   30 ar  
    55   29   53 1   
    56   30   31 ar  
    57   30   54 1   
    58   31   55 1   
@<TRIPOS>SUBSTRUCTURE
     1 255         1 TEMP              0 ****  ****    0 ROOT
