@<TRIPOS>MOLECULE
255
   55    45     1     0     0
SMALL
bcc


@<TRIPOS>ATOM
      1 O25        -1.8090   -3.6490    2.4590 o         1 255     -0.944500
      2 S31        -0.4660   -3.9190    2.0260 ss        1 255      2.873000
      3 O26         0.1770   -4.2090    3.2770 o         1 255     -0.944500
      4 N24        -0.4140   -5.2150    1.0140 n2        1 255     -0.899000
      5 C30        -0.8830   -6.4820    1.4570 c3        1 255      0.099000
      6 C01         0.1690   -7.1330    2.3290 c3        1 255     -0.236333
      7 C02        -2.1560   -6.2990    2.2540 c3        1 255     -0.236333
      8 C03        -1.1610   -7.3640    0.2590 c3        1 255     -0.236333
      9 C20         0.2580   -2.4980    1.2430 c1        1 255     -0.395000
     10 C13        -0.1170   -2.1520   -0.0470 c1        1 255     -0.084500
     11 C11         0.3820   -0.9960   -0.6280 c1        1 255     -0.084500
     12 C17         1.2550   -0.1850    0.0810 c1        1 255     -0.395000
     13 C10         1.6300   -0.5300    1.3710 c1        1 255     -0.111167
     14 C12         1.1310   -1.6870    1.9520 c1        1 255     -0.111167
     15 C18         1.7500    0.9780   -0.4990 c1        1 255     -0.115000
     16 C15         2.9160    0.8110   -1.2410 c1        1 255     -0.038000
     17 N22         3.4280    1.8570   -1.9540 n1        1 255     -0.127000
     18 C28         2.7890    3.0860   -1.9410 c1        1 255      0.019000
     19 C14         3.3380    4.1730   -2.6480 c1        1 255     -0.111167
     20 C06         2.7160    5.4140   -2.6060 c1        1 255     -0.111167
     21 C09         1.5510    5.5840   -1.8650 c1        1 255     -0.114000
     22 C27         1.0090    4.5130   -1.1670 c1        1 255      0.075000
     23 C29         1.6380    3.2540   -1.2090 c1        1 255     -0.106000
     24 C16         1.1170    2.1910   -0.4830 c2        1 255     -0.064000
     25 N23        -0.0580    4.8710   -0.3060 n3        1 255     -0.252000
     26 C19        -1.1650    5.5970   -0.8120 c2        1 255      0.117000
     27 N21        -1.9140    5.0760   -1.8250 n2        1 255     -0.183000
     28 C07        -3.0310    5.7290   -2.2540 c1        1 255     -0.033000
     29 C04        -3.4060    6.9240   -1.6610 c1        1 255     -0.111167
     30 C05        -2.6570    7.4470   -0.6480 c1        1 255     -0.111167
     31 C08        -1.5390    6.7920   -0.2190 c1        1 255     -0.231000
     32 HN24       -0.0720   -5.1240    0.1730 hn        1 255      0.241000
     33 H011        1.0340   -7.1070    1.8710 hc        1 255      0.088444
     34 H012        0.2340   -6.6480    3.1790 hc        1 255      0.088444
     35 H013       -0.0810   -8.0650    2.5030 hc        1 255      0.088444
     36 H021       -2.6940   -7.1170    2.2040 hc        1 255      0.088444
     37 H022       -1.9320   -6.1120    3.1900 hc        1 255      0.088444
     38 H023       -2.6680   -5.5490    1.8840 hc        1 255      0.088444
     39 H031       -1.5170   -8.2250    0.5630 hc        1 255      0.088444
     40 H032       -0.3290   -7.5110   -0.2380 hc        1 255      0.088444
     41 H033       -1.8170   -6.9260   -0.3240 hc        1 255      0.088444
     42 H13        -0.7310   -2.7230   -0.5460 ha        1 255      0.150000
     43 H11         0.1190   -0.7530   -1.5350 ha        1 255      0.150000
     44 H10         2.2450    0.0410    1.8700 ha        1 255      0.147333
     45 H12         1.3950   -1.9300    2.8600 ha        1 255      0.147333
     46 H15         3.3770   -0.0490   -1.2370 ha        1 255      0.164000
     47 H14         4.1550    4.0540   -3.1680 ha        1 255      0.147333
     48 H06         3.0970    6.1670   -3.0960 ha        1 255      0.147333
     49 H09         1.1140    6.4580   -1.8350 ha        1 255      0.157000
     50 H16         0.3260    2.3220    0.0730 ha        1 255      0.134000
     51 HN23       -0.0430    4.6140    0.5680 hn        1 255      0.219000
     52 H07        -3.5660    5.3550   -2.9790 ha        1 255      0.161000
     53 H04        -4.2050    7.3920   -1.9690 ha        1 255      0.147333
     54 H05        -2.9200    8.2900   -0.2290 ha        1 255      0.147333
     55 H08        -1.0020    7.1660    0.5060 ha        1 255      0.143000
@<TRIPOS>BOND
     1    1    2 1   
     2    2    3 1   
     3    4    5 1   
     4    4   32 1   
     5    5    6 1   
     6    5    7 1   
     7    5    8 1   
     8    6   33 1   
     9    6   34 1   
    10    6   35 1   
    11    7   36 1   
    12    7   37 1   
    13    7   38 1   
    14    8   39 1   
    15    8   40 1   
    16    8   41 1   
    17    9   10 1   
    18   10   42 1   
    19   11   12 1   
    20   11   43 1   
    21   13   14 1   
    22   13   44 1   
    23   14   45 1   
    24   15   24 1   
    25   16   17 1   
    26   16   46 1   
    27   18   23 1   
    28   19   20 1   
    29   19   47 1   
    30   20   48 1   
    31   21   22 1   
    32   21   49 1   
    33   22   25 1   
    34   23   24 1   
    35   24   50 1   
    36   25   26 1   
    37   25   51 1   
    38   26   27 1   
    39   26   31 1   
    40   27   28 1   
    41   28   52 1   
    42   29   30 1   
    43   29   53 1   
    44   30   54 1   
    45   31   55 1   
@<TRIPOS>SUBSTRUCTURE
     1 255         1 TEMP              0 ****  ****    0 ROOT
