@<TRIPOS>MOLECULE
256
   20    20     1     0     0
SMALL
bcc


@<TRIPOS>ATOM
      1 C1         -3.7140    0.1700    0.2480 ca        1 256     -0.194000
      2 C2         -3.2410    0.1930   -1.0610 ca        1 256     -0.156500
      3 C3         -1.8810    0.0230   -1.3220 ca        1 256     -0.121000
      4 C4         -0.9660   -0.1690   -0.2750 ca        1 256      0.058700
      5 C5         -1.4570   -0.1890    1.0460 ca        1 256     -0.121000
      6 C6         -2.8130   -0.0210    1.2990 ca        1 256     -0.156500
      7 C7          0.4700   -0.3640   -0.5440 c3        1 256     -0.336600
      8 C8          0.9280   -1.7220    0.0590 c         1 256      0.960600
      9 O9          1.2890   -2.6210   -0.7550 o         1 256     -0.856300
     10 S10         1.4750    1.0750   -0.1310 s6        1 256      1.411800
     11 O12         1.0360    1.6140    1.1080 o         1 256     -0.758867
     12 O13         0.8870   -1.9030    1.3100 o         1 256     -0.856300
     13 O14         2.8410    0.7020   -0.1290 o         1 256     -0.758867
     14 O15         1.1990    1.9730   -1.2150 o         1 256     -0.758867
     15 H1         -4.7840    0.3030    0.4530 ha        1 256      0.080000
     16 H2         -3.9410    0.3460   -1.8940 ha        1 256      0.087000
     17 H3         -1.5150    0.0480   -2.3580 ha        1 256      0.154000
     18 H5         -0.7240   -0.3490    1.8590 ha        1 256      0.154000
     19 H6         -3.1810   -0.0380    2.3340 ha        1 256      0.087000
     20 H7          0.6180   -0.4830   -1.6540 h1        1 256      0.080700
@<TRIPOS>BOND
     1    1    2 ar  
     2    1    6 ar  
     3    1   15 1   
     4    2    3 ar  
     5    2   16 1   
     6    3    4 ar  
     7    3   17 1   
     8    4    5 ar  
     9    4    7 1   
    10    5    6 ar  
    11    5   18 1   
    12    6   19 1   
    13    7    8 1   
    14    7   10 1   
    15    7   20 1   
    16    8    9 1   
    17    8   12 1   
    18   10   11 1   
    19   10   13 1   
    20   10   14 1   
@<TRIPOS>SUBSTRUCTURE
     1 256         1 TEMP              0 ****  ****    0 ROOT
