@<TRIPOS>MOLECULE
256
   20    20     1     0     0
SMALL
bcc


@<TRIPOS>ATOM
      1 C1         -0.0010   -0.0750   -0.0400 ca        1 256     -0.194000
      2 C2          1.3760    0.1200    0.0230 ca        1 256     -0.156500
      3 C3          2.0250    0.1620    1.2570 ca        1 256     -0.121000
      4 C4          1.3070    0.0130    2.4540 ca        1 256      0.058700
      5 C5         -0.0870   -0.1820    2.3770 ca        1 256     -0.121000
      6 C6         -0.7280   -0.2250    1.1440 ca        1 256     -0.156500
      7 C7          1.9880    0.0420    3.7610 c3        1 256     -0.336600
      8 C8          1.7030   -1.2850    4.5200 c         1 256      0.960600
      9 O9          2.6860   -2.0560    4.7220 o         1 256     -0.856300
     10 S10         1.7070    1.5660    4.6790 s6        1 256      1.411800
     11 O12         0.3400    1.9360    4.5670 o         1 256     -0.758867
     12 O13         0.5220   -1.5720    4.8670 o         1 256     -0.856300
     13 O14         2.1320    1.3870    6.0190 o         1 256     -0.758867
     14 O15         2.5550    2.5040    4.0030 o         1 256     -0.758867
     15 H1         -0.5120   -0.1080   -1.0100 ha        1 256      0.080000
     16 H2          1.9550    0.2420   -0.9020 ha        1 256      0.087000
     17 H3          3.1120    0.3210    1.2990 ha        1 256      0.154000
     18 H5         -0.6370   -0.3050    3.3290 ha        1 256      0.154000
     19 H6         -1.8150   -0.3770    1.1000 ha        1 256      0.087000
     20 H7          3.1020    0.0350    3.5890 h1        1 256      0.080700
@<TRIPOS>BOND
     1    1    2 ar  
     2    1    6 ar  
     3    1   15 1   
     4    2    3 ar  
     5    2   16 1   
     6    3    4 ar  
     7    3   17 1   
     8    4    5 ar  
     9    4    7 1   
    10    5    6 ar  
    11    5   18 1   
    12    6   19 1   
    13    7    8 1   
    14    7   10 1   
    15    7   20 1   
    16    8    9 1   
    17    8   12 1   
    18   10   11 1   
    19   10   13 1   
    20   10   14 1   
@<TRIPOS>SUBSTRUCTURE
     1 256         1 TEMP              0 ****  ****    0 ROOT
