@<TRIPOS>MOLECULE
256
   20    16     1     0     0
SMALL
bcc


@<TRIPOS>ATOM
      1 C1         -1.7140    0.1420   -2.2780 c1        1 256     -0.092250
      2 C2         -0.3290    0.1150   -2.3140 c1        1 256     -0.092250
      3 C3          0.3960    0.1100   -1.1330 c1        1 256     -0.092250
      4 C4         -0.2640    0.1320    0.0850 c1        1 256      0.092900
      5 C5         -1.6500    0.1600    0.1220 c1        1 256     -0.092500
      6 C6         -2.3740    0.1650   -1.0590 c1        1 256     -0.092250
      7 C7          0.5270    0.1740    1.3740 c3        1 256     -0.405300
      8 C8          1.5250    1.3090    1.3160 c         1 256      0.960600
      9 O9          1.3390    2.3470    2.0050 o         1 256     -0.856300
     10 S10         1.3890   -1.3610    1.5880 s4        1 256      1.631500
     11 O12         2.3370   -1.5930    0.4350 os        1 256     -1.076000
     12 O13         2.5360    1.2210    0.5720 o         1 256     -0.856300
     13 O14         0.4260   -2.5130    1.7450 o         1 256     -0.692900
     14 O15         2.1150   -1.4020    2.9110 o         1 256     -0.692900
     15 H1         -2.2240    0.1460   -3.1090 ha        1 256      0.053250
     16 H2          0.1370    0.0890   -3.1720 ha        1 256      0.053250
     17 H3          1.3720    0.0900   -1.1590 ha        1 256      0.053250
     18 H5         -2.1150    0.1750    0.9800 ha        1 256      0.061500
     19 H6         -3.3500    0.1840   -1.0330 ha        1 256      0.053250
     20 H7         -0.0810    0.3130    2.1250 h1        1 256      0.080700
@<TRIPOS>BOND
     1    1    6 3   
     2    1   15 1   
     3    2    3 3   
     4    2   16 1   
     5    3   17 1   
     6    4    5 3   
     7    4    7 1   
     8    5   18 1   
     9    6   19 1   
    10    7    8 1   
    11    7   10 1   
    12    7   20 1   
    13    8    9 1   
    14    8   12 1   
    15   10   13 1   
    16   10   14 1   
@<TRIPOS>SUBSTRUCTURE
     1 256         1 TEMP              0 ****  ****    0 ROOT
