@<TRIPOS>MOLECULE
258
   19    19     1     0     0
SMALL
bcc


@<TRIPOS>ATOM
      1 CAE        -1.7030   -1.2040    0.4210 ca        1 258     -0.178000
      2 CAC        -3.0570   -1.1780    0.1110 ca        1 258     -0.097500
      3 CAB        -3.6580   -0.0050   -0.3520 ca        1 258     -0.162000
      4 CAD        -2.8970    1.1510   -0.5060 ca        1 258     -0.097500
      5 CAF        -1.5350    1.1520   -0.1990 ca        1 258     -0.178000
      6 CAJ        -0.9430   -0.0290    0.2630 ca        1 258      0.125100
      7 OAI         0.3880   -0.1530    0.6190 os        1 258     -0.330900
      8 CAH         1.2200    0.9750    0.3270 c3        1 258      0.120400
      9 CAG         2.6350    0.5560    0.6790 c3        1 258      0.027000
     10 CLAA        3.4730   -0.1830   -0.6710 cl        1 258     -0.181400
     11 HAE        -1.2150   -2.1190    0.7850 ha        1 258      0.142500
     12 HAC        -3.6590   -2.0910    0.2320 ha        1 258      0.133000
     13 HAB        -4.7290    0.0040   -0.5960 ha        1 258      0.133000
     14 HAD        -3.3680    2.0760   -0.8710 ha        1 258      0.133000
     15 HAF        -0.9500    2.0720   -0.3240 ha        1 258      0.142500
     16 HAH1        1.1200    1.2590   -0.7530 h1        1 258      0.053700
     17 HAH2        0.9050    1.8370    0.9760 h1        1 258      0.053700
     18 HAG1        3.2310    1.4530    0.9720 h1        1 258      0.080700
     19 HAG2        2.6290   -0.1940    1.5060 h1        1 258      0.080700
@<TRIPOS>BOND
     1    1    2 ar  
     2    1    6 ar  
     3    1   11 1   
     4    2    3 ar  
     5    2   12 1   
     6    3    4 ar  
     7    3   13 1   
     8    4    5 ar  
     9    4   14 1   
    10    5    6 ar  
    11    5   15 1   
    12    6    7 1   
    13    7    8 1   
    14    8    9 1   
    15    8   16 1   
    16    8   17 1   
    17    9   10 1   
    18    9   18 1   
    19    9   19 1   
@<TRIPOS>SUBSTRUCTURE
     1 258         1 TEMP              0 ****  ****    0 ROOT
