@<TRIPOS>MOLECULE
258
   19    19     1     0     0
SMALL
bcc


@<TRIPOS>ATOM
      1 CAE        -0.0380    0.0930    0.0450 ca        1 258     -0.178000
      2 CAC         1.3500    0.0480   -0.0090 ca        1 258     -0.097500
      3 CAB         2.1050   -0.0180    1.1650 ca        1 258     -0.162000
      4 CAD         1.4660   -0.0390    2.4010 ca        1 258     -0.097500
      5 CAF         0.0740    0.0080    2.4830 ca        1 258     -0.178000
      6 CAJ        -0.6740    0.0730    1.3020 ca        1 258      0.125100
      7 OAI        -2.0530    0.1440    1.2480 os        1 258     -0.330900
      8 CAH        -2.7360   -0.0300    2.4950 c3        1 258      0.120400
      9 CAG        -4.2170   -0.0460    2.1650 c3        1 258      0.027000
     10 ClAA       -4.8110   -1.6580    1.8200 cl        1 258     -0.181400
     11 HAE        -0.6460    0.1440   -0.8680 ha        1 258      0.142500
     12 HAC         1.8560    0.0630   -0.9870 ha        1 258      0.133000
     13 HAB         3.2030   -0.0560    1.1100 ha        1 258      0.133000
     14 HAD         2.0590   -0.0910    3.3270 ha        1 258      0.133000
     15 HAF        -0.4140   -0.0060    3.4660 ha        1 258      0.142500
     16 HAH1       -2.5050    0.8450    3.1610 h1        1 258      0.053700
     17 HAH2       -2.4030   -0.9800    2.9880 h1        1 258      0.053700
     18 HAG1       -4.4260    0.5760    1.2610 h1        1 258      0.080700
     19 HAG2       -4.8020    0.3290    3.0380 h1        1 258      0.080700
@<TRIPOS>BOND
     1    1    2 ar  
     2    1    6 ar  
     3    1   11 1   
     4    2    3 ar  
     5    2   12 1   
     6    3    4 ar  
     7    3   13 1   
     8    4    5 ar  
     9    4   14 1   
    10    5    6 ar  
    11    5   15 1   
    12    6    7 1   
    13    7    8 1   
    14    8    9 1   
    15    8   16 1   
    16    8   17 1   
    17    9   10 1   
    18    9   18 1   
    19    9   19 1   
@<TRIPOS>SUBSTRUCTURE
     1 258         1 TEMP              0 ****  ****    0 ROOT
