@<TRIPOS>MOLECULE
258
   19    16     1     0     0
SMALL
bcc


@<TRIPOS>ATOM
      1 CAE         0.9510    0.4980   -1.1790 c1        1 258     -0.147500
      2 CAC         2.3360    0.4650   -1.1470 c1        1 258     -0.070000
      3 CAB         3.0000    0.4150    0.0690 c1        1 258     -0.070000
      4 CAD         2.2790    0.3980    1.2520 c1        1 258     -0.070000
      5 CAF         0.8940    0.4310    1.2200 c1        1 258     -0.070000
      6 CAJ         0.2300    0.4810    0.0040 c1        1 258      0.101600
      7 OAI        -1.1750    0.4930   -0.0290 os        1 258     -0.310400
      8 CAH        -1.7560   -0.7900   -0.0300 c3        1 258      0.119400
      9 CAG        -3.2620   -0.6610    0.0380 c3        1 258     -0.005000
     10 CLAA       -3.7910    0.5710   -1.0770 cl        1 258     -0.180400
     11 HAE         0.4840    0.5320   -2.0350 ha        1 258      0.080500
     12 HAC         2.8450    0.4760   -1.9800 ha        1 258      0.080250
     13 HAB         3.9760    0.3920    0.0920 ha        1 258      0.080250
     14 HAD         2.7460    0.3640    2.1090 ha        1 258      0.080250
     15 HAF         0.3860    0.4200    2.0540 ha        1 258      0.080250
     16 HAH1       -1.5060   -1.2610   -0.8520 h1        1 258      0.071200
     17 HAH2       -1.4360   -1.2940    0.7460 h1        1 258      0.071200
     18 HAG1       -3.5270   -0.4140    0.9470 h1        1 258      0.078700
     19 HAG2       -3.6740   -1.5160   -0.2010 h1        1 258      0.078700
@<TRIPOS>BOND
     1    1    6 3   
     2    1   11 1   
     3    2    3 3   
     4    2   12 1   
     5    3   13 1   
     6    4    5 3   
     7    4   14 1   
     8    5   15 1   
     9    6    7 1   
    10    7    8 1   
    11    8    9 1   
    12    8   16 1   
    13    8   17 1   
    14    9   10 1   
    15    9   18 1   
    16    9   19 1   
@<TRIPOS>SUBSTRUCTURE
     1 258         1 TEMP              0 ****  ****    0 ROOT
