@<TRIPOS>MOLECULE
258
   19    19     1     0     0
SMALL
bcc


@<TRIPOS>ATOM
      1 CAE        -0.0360    0.0850    0.0450 ca        1 258     -0.178000
      2 CAC         1.3510    0.0360   -0.0090 ca        1 258     -0.097500
      3 CAB         2.1060   -0.0280    1.1660 ca        1 258     -0.162000
      4 CAD         1.4660   -0.0430    2.4020 ca        1 258     -0.097500
      5 CAF         0.0730    0.0070    2.4830 ca        1 258     -0.178000
      6 CAJ        -0.6730    0.0710    1.3010 ca        1 258      0.125100
      7 OAI        -2.0530    0.1440    1.2460 os        1 258     -0.330900
      8 CAH        -2.7370   -0.0220    2.4940 c3        1 258      0.120400
      9 CAG        -4.2170   -0.0350    2.1630 c3        1 258      0.027000
     10 CLAA       -4.8170   -1.6460    1.8260 cl        1 258     -0.181400
     11 HAE        -0.6440    0.1340   -0.8690 ha        1 258      0.142500
     12 HAC         1.8580    0.0470   -0.9860 ha        1 258      0.133000
     13 HAB         3.2030   -0.0680    1.1120 ha        1 258      0.133000
     14 HAD         2.0580   -0.0940    3.3280 ha        1 258      0.133000
     15 HAF        -0.4150   -0.0030    3.4660 ha        1 258      0.142500
     16 HAH1       -2.5020    0.8540    3.1570 h1        1 258      0.053700
     17 HAH2       -2.4070   -0.9710    2.9910 h1        1 258      0.053700
     18 HAG1       -4.4240    0.5840    1.2560 h1        1 258      0.080700
     19 HAG2       -4.8010    0.3460    3.0350 h1        1 258      0.080700
@<TRIPOS>BOND
     1    1    2 ar  
     2    1    6 ar  
     3    1   11 1   
     4    2    3 ar  
     5    2   12 1   
     6    3    4 ar  
     7    3   13 1   
     8    4    5 ar  
     9    4   14 1   
    10    5    6 ar  
    11    5   15 1   
    12    6    7 1   
    13    7    8 1   
    14    8    9 1   
    15    8   16 1   
    16    8   17 1   
    17    9   10 1   
    18    9   18 1   
    19    9   19 1   
@<TRIPOS>SUBSTRUCTURE
     1 258         1 TEMP              0 ****  ****    0 ROOT
