@<TRIPOS>MOLECULE
259
   18    18     1     0     0
SMALL
bcc


@<TRIPOS>ATOM
      1 CAA         0.0650    0.0010   -0.0810 c3        1 259     -0.082000
      2 SAH         1.8030    0.0000    0.0990 ss        1 259     -0.116000
      3 CAI         2.1050   -0.0000    1.7550 ca        1 259      0.027900
      4 CAD         3.4620   -0.0010    2.1240 ca        1 259     -0.153000
      5 CAF         3.8390   -0.0020    3.4580 ca        1 259     -0.045500
      6 CAJ         2.8440   -0.0010    4.4540 ca        1 259     -0.197200
      7 NAK         3.2360   -0.0010    5.8840 no        1 259      0.316200
      8 OAC         4.4040   -0.0020    6.1700 o         1 259     -0.212000
      9 OAB         2.3750   -0.0010    6.7240 o         1 259     -0.212000
     10 CAG         1.4850   -0.0000    4.1030 ca        1 259     -0.045500
     11 CAE         1.1280    0.0000    2.7590 ca        1 259     -0.153000
     12 HAA1       -0.4130    0.9050    0.3590 h1        1 259      0.076700
     13 HAA2       -0.1140    0.0010   -1.1840 h1        1 259      0.076700
     14 HAA3       -0.4140   -0.9030    0.3590 h1        1 259      0.076700
     15 HAD         4.2370   -0.0010    1.3390 ha        1 259      0.150500
     16 HAF         4.9060   -0.0020    3.7400 ha        1 259      0.171000
     17 HAG         0.7080    0.0000    4.8870 ha        1 259      0.171000
     18 HAE         0.0600    0.0010    2.4930 ha        1 259      0.150500
@<TRIPOS>BOND
     1    1    2 1   
     2    1   12 1   
     3    1   13 1   
     4    1   14 1   
     5    2    3 1   
     6    3    4 ar  
     7    3   11 ar  
     8    4    5 ar  
     9    4   15 1   
    10    5    6 ar  
    11    5   16 1   
    12    6    7 1   
    13    6   10 ar  
    14    7    8 1   
    15    7    9 1   
    16   10   11 ar  
    17   10   17 1   
    18   11   18 1   
@<TRIPOS>SUBSTRUCTURE
     1 259         1 TEMP              0 ****  ****    0 ROOT
