@<TRIPOS>MOLECULE
259
   18    18     1     0     0
SMALL
bcc


@<TRIPOS>ATOM
      1 CAA         0.0620    0.0020   -0.0800 c3        1 259     -0.082000
      2 SAH         1.8000    0.0100    0.0990 ss        1 259     -0.116000
      3 CAI         2.1040    0.0040    1.7550 ca        1 259      0.027900
      4 CAD         3.4620    0.0090    2.1220 ca        1 259     -0.153000
      5 CAF         3.8400    0.0060    3.4570 ca        1 259     -0.045500
      6 CAJ         2.8460   -0.0030    4.4530 ca        1 259     -0.197200
      7 NAK         3.2380   -0.0070    5.8830 no        1 259      0.316200
      8 OAC         4.4070   -0.0020    6.1670 o         1 259     -0.212000
      9 OAB         2.3780   -0.0150    6.7240 o         1 259     -0.212000
     10 CAG         1.4860   -0.0090    4.1040 ca        1 259     -0.045500
     11 CAE         1.1280   -0.0050    2.7590 ca        1 259     -0.153000
     12 HAA1       -0.4190    0.9020    0.3650 h1        1 259      0.076700
     13 HAA2       -0.1170    0.0060   -1.1820 h1        1 259      0.076700
     14 HAA3       -0.4110   -0.9060    0.3570 h1        1 259      0.076700
     15 HAD         4.2360    0.0170    1.3380 ha        1 259      0.150500
     16 HAF         4.9070    0.0100    3.7370 ha        1 259      0.171000
     17 HAG         0.7100   -0.0160    4.8880 ha        1 259      0.171000
     18 HAE         0.0590   -0.0090    2.4940 ha        1 259      0.150500
@<TRIPOS>BOND
     1    1    2 1   
     2    1   12 1   
     3    1   13 1   
     4    1   14 1   
     5    2    3 1   
     6    3    4 ar  
     7    3   11 ar  
     8    4    5 ar  
     9    4   15 1   
    10    5    6 ar  
    11    5   16 1   
    12    6    7 1   
    13    6   10 ar  
    14    7    8 1   
    15    7    9 1   
    16   10   11 ar  
    17   10   17 1   
    18   11   18 1   
@<TRIPOS>SUBSTRUCTURE
     1 259         1 TEMP              0 ****  ****    0 ROOT
