@<TRIPOS>MOLECULE
259
   18    18     1     0     0
SMALL
bcc


@<TRIPOS>ATOM
      1 CAA         3.7400    1.1370   -0.0000 c3        1 259     -0.082000
      2 SAH         3.0040   -0.4480   -0.0000 ss        1 259     -0.116000
      3 CAI         1.3390   -0.1940   -0.0000 ca        1 259      0.027900
      4 CAD         0.5490   -1.3570   -0.0000 ca        1 259     -0.153000
      5 CAF        -0.8360   -1.2790    0.0000 ca        1 259     -0.045500
      6 CAJ        -1.4530   -0.0140    0.0000 ca        1 259     -0.197200
      7 NAK        -2.9330    0.0820    0.0010 no        1 259      0.316200
      8 OAC        -3.5830   -0.9300    0.0010 o         1 259     -0.212000
      9 OAB        -3.4470    1.1690    0.0010 o         1 259     -0.212000
     10 CAG        -0.6790    1.1570    0.0010 ca        1 259     -0.045500
     11 CAE         0.7080    1.0560    0.0000 ca        1 259     -0.153000
     12 HAA1        3.4790    1.7330   -0.9040 h1        1 259      0.076700
     13 HAA2        3.4790    1.7320    0.9040 h1        1 259      0.076700
     14 HAA3        4.8400    0.9470   -0.0010 h1        1 259      0.076700
     15 HAD         1.0380   -2.3450   -0.0010 ha        1 259      0.150500
     16 HAF        -1.4500   -2.1960   -0.0000 ha        1 259      0.171000
     17 HAG        -1.1670    2.1470    0.0010 ha        1 259      0.171000
     18 HAE         1.3080    1.9800    0.0010 ha        1 259      0.150500
@<TRIPOS>BOND
     1    1    2 1   
     2    1   12 1   
     3    1   13 1   
     4    1   14 1   
     5    2    3 1   
     6    3    4 ar  
     7    3   11 ar  
     8    4    5 ar  
     9    4   15 1   
    10    5    6 ar  
    11    5   16 1   
    12    6    7 1   
    13    6   10 ar  
    14    7    8 1   
    15    7    9 1   
    16   10   11 ar  
    17   10   17 1   
    18   11   18 1   
@<TRIPOS>SUBSTRUCTURE
     1 259         1 TEMP              0 ****  ****    0 ROOT
