@<TRIPOS>MOLECULE
259
   18    16     1     0     0
SMALL
bcc


@<TRIPOS>ATOM
      1 CAA        -2.2720    0.0430   -2.6840 c3        1 259     -0.382000
      2 SAH        -0.5000   -0.0200   -2.6470 ss        1 259      0.293000
      3 CAI         0.0560   -0.0160   -0.9630 c2        1 259     -0.199000
      4 CAD         0.3770   -1.2100   -0.3370 c2        1 259     -0.141000
      5 CAF         0.8600   -1.2040    0.9630 c1        1 259     -0.048000
      6 CAJ         1.0210   -0.0030    1.6360 c1        1 259     -0.152000
      7 NAK         1.5540    0.0070    2.9510 no        1 259      0.571000
      8 OAC         1.8660   -1.1700    3.5700 o         1 259     -0.362000
      9 OAB         1.7590    1.0700    3.5200 o         1 259     -0.362000
     10 CAG         0.7000    1.1910    1.0090 c1        1 259     -0.043000
     11 CAE         0.2180    1.1850   -0.2900 c1        1 259     -0.165000
     12 HAA1       -2.6350   -0.8420   -2.4720 h1        1 259      0.116000
     13 HAA2       -2.5700    0.3130   -3.5770 h1        1 259      0.116000
     14 HAA3       -2.5890    0.6930   -2.0230 h1        1 259      0.116000
     15 HAD         0.2640   -2.0560   -0.8110 ha        1 259      0.156000
     16 HAF         1.0860   -2.0450    1.4040 ha        1 259      0.172000
     17 HAG         0.8140    2.0370    1.4830 ha        1 259      0.170000
     18 HAE        -0.0080    2.0260   -0.7310 ha        1 259      0.145000
@<TRIPOS>BOND
     1    1    2 1   
     2    1   12 1   
     3    1   13 1   
     4    1   14 1   
     5    2    3 1   
     6    3    4 1   
     7    3   11 1   
     8    4    5 1   
     9    4   15 1   
    10    5   16 1   
    11    6    7 1   
    12    6   10 1   
    13    7    8 1   
    14    7    9 1   
    15   10   17 1   
    16   11   18 1   
@<TRIPOS>SUBSTRUCTURE
     1 259         1 TEMP              0 ****  ****    0 ROOT
