@<TRIPOS>MOLECULE
25B
   69    71     1     0     0
SMALL
bcc


@<TRIPOS>ATOM
      1 O38         0.5670    1.3870   -2.3660 o         1 25B     -0.680800
      2 S29         0.9500    0.6380   -1.2170 sy        1 25B      1.405300
      3 O37        -0.0100    0.5380   -0.2100 o         1 25B     -0.680800
      4 C29         1.6120   -0.8090   -1.6230 ca        1 25B     -0.434500
      5 C30         2.4460   -0.9450   -2.7460 ca        1 25B     -0.009500
      6 C31         2.9800   -2.1780   -3.0980 ca        1 25B     -0.147000
      7 C32         2.6890   -3.3080   -2.3280 ca        1 25B     -0.036000
      8 C33         1.8610   -3.1950   -1.2100 ca        1 25B     -0.147000
      9 C34         1.3280   -1.9570   -0.8630 ca        1 25B     -0.009500
     10 C37         2.3310    1.4780   -0.6140 c3        1 25B     -0.329600
     11 C10         2.0390    2.9150   -0.2540 c3        1 25B     -0.064400
     12 C11         2.4970    3.9420   -1.3010 c3        1 25B      0.127500
     13 C20         2.4940    5.3380   -0.6600 c3        1 25B     -0.108400
     14 C21         3.2320    6.3680   -1.4880 c3        1 25B     -0.101400
     15 C23         3.3610    7.6710   -0.7230 c3        1 25B     -0.077400
     16 C24         4.0820    8.7130   -1.5390 c3        1 25B     -0.096100
     17 N12         1.6500    3.9220   -2.5470 ny        1 25B     -0.678800
     18 C13         2.2110    3.1620   -3.7220 c         1 25B      0.591100
     19 O39         3.2340    2.5120   -3.5520 o         1 25B     -0.468100
     20 C14         1.4110    3.2720   -5.0080 c3        1 25B     -0.107700
     21 C15         1.0740    1.8530   -5.4630 c3        1 25B     -0.085400
     22 C16         0.3220    1.8780   -6.7760 c3        1 25B     -0.080400
     23 C17         1.1000    2.6250   -7.8380 c3        1 25B     -0.085400
     24 C18         1.4360    4.0280   -7.3830 c3        1 25B     -0.072400
     25 C19         2.2220    4.0180   -6.0740 c3        1 25B     -0.164700
     26 C39         2.5290    5.4430   -5.6580 c         1 25B      0.609700
     27 O41         2.0620    5.8910   -4.5930 o         1 25B     -0.618100
     28 C40         3.3730    6.2670   -6.5320 ca        1 25B     -0.199600
     29 C41         3.2990    7.6650   -6.4080 ca        1 25B     -0.064500
     30 C45         4.2560    5.7080   -7.4660 ca        1 25B     -0.064500
     31 C44         5.0470    6.5260   -8.2670 ca        1 25B     -0.137000
     32 C43         4.9570    7.9190   -8.1430 ca        1 25B      0.060400
     33 Cl22        5.9140    8.9130   -9.1200 cl        1 25B     -0.044400
     34 C42         4.0810    8.4890   -7.2120 ca        1 25B     -0.137000
     35 H30         2.6690   -0.0540   -3.3610 ha        1 25B      0.154000
     36 H31         3.6310   -2.2670   -3.9810 ha        1 25B      0.158500
     37 H32         3.1120   -4.2880   -2.6040 ha        1 25B      0.157000
     38 H33         1.6250   -4.0840   -0.6040 ha        1 25B      0.158500
     39 H34         0.6630   -1.8710    0.0170 ha        1 25B      0.154000
     40 H37         3.1810    1.4360   -1.3490 h1        1 25B      0.130700
     41 H37A        2.7240    0.9630    0.3060 h1        1 25B      0.130700
     42 H10         0.9440    3.0440   -0.0300 hc        1 25B      0.085200
     43 H10A        2.5890    3.1650    0.6950 hc        1 25B      0.085200
     44 H11         3.5560    3.6930   -1.6170 hx        1 25B      0.118700
     45 H20         3.0030    5.2480    0.3380 hc        1 25B      0.076700
     46 H20A        1.4430    5.6770   -0.4620 hc        1 25B      0.076700
     47 H21         2.6980    6.5670   -2.4560 hc        1 25B      0.054200
     48 H21A        4.2550    5.9850   -1.7450 hc        1 25B      0.054200
     49 H23         2.3400    8.0460   -0.4480 hc        1 25B      0.047700
     50 H23A        3.9190    7.4900    0.2340 hc        1 25B      0.047700
     51 H24         4.1680    9.6630   -0.9580 hc        1 25B      0.042033
     52 H24A        5.1110    8.3670   -1.8040 hc        1 25B      0.042033
     53 H24B        3.5290    8.9270   -2.4860 hc        1 25B      0.042033
     54 HN12        0.7360    3.4860   -2.3360 hn        1 25B      0.484800
     55 H14         0.4510    3.8370   -4.8350 hc        1 25B      0.095700
     56 H15         0.4530    1.3530   -4.6710 hc        1 25B      0.075200
     57 H15A        2.0240    1.2670   -5.5770 hc        1 25B      0.075200
     58 H16         0.1390    0.8230   -7.1120 hc        1 25B      0.061700
     59 H16A       -0.6800    2.3610   -6.6300 hc        1 25B      0.061700
     60 H17         0.4940    2.6790   -8.7800 hc        1 25B      0.060700
     61 H17A        2.0440    2.0680   -8.0770 hc        1 25B      0.060700
     62 H18         0.4910    4.6170   -7.2440 hc        1 25B      0.066200
     63 H18A        2.0470    4.5460   -8.1700 hc        1 25B      0.066200
     64 H19         3.1960    3.4710   -6.2280 hc        1 25B      0.095700
     65 H41         2.6130    8.1060   -5.6670 ha        1 25B      0.149000
     66 H45         4.3420    4.6150   -7.5740 ha        1 25B      0.149000
     67 H44         5.7420    6.0780   -8.9960 ha        1 25B      0.165000
     68 H42         4.0100    9.5840   -7.1120 ha        1 25B      0.165000
     69 H122        1.4900    4.8950   -2.8620 hn        1 25B      0.484800
@<TRIPOS>BOND
     1    1    2 2   
     2    2    3 2   
     3    2    4 1   
     4    2   10 1   
     5    4    5 ar  
     6    4    9 ar  
     7    5    6 ar  
     8    5   35 1   
     9    6    7 ar  
    10    6   36 1   
    11    7    8 ar  
    12    7   37 1   
    13    8    9 ar  
    14    8   38 1   
    15    9   39 1   
    16   10   11 1   
    17   10   40 1   
    18   10   41 1   
    19   11   12 1   
    20   11   42 1   
    21   11   43 1   
    22   12   13 1   
    23   12   17 1   
    24   12   44 1   
    25   13   14 1   
    26   13   45 1   
    27   13   46 1   
    28   14   15 1   
    29   14   47 1   
    30   14   48 1   
    31   15   16 1   
    32   15   49 1   
    33   15   50 1   
    34   16   51 1   
    35   16   52 1   
    36   16   53 1   
    37   17   18 1   
    38   17   54 1   
    39   17   69 1   
    40   18   19 2   
    41   18   20 1   
    42   20   21 1   
    43   20   25 1   
    44   20   55 1   
    45   21   22 1   
    46   21   56 1   
    47   21   57 1   
    48   22   23 1   
    49   22   58 1   
    50   22   59 1   
    51   23   24 1   
    52   23   60 1   
    53   23   61 1   
    54   24   25 1   
    55   24   62 1   
    56   24   63 1   
    57   25   26 1   
    58   25   64 1   
    59   26   27 2   
    60   26   28 1   
    61   28   29 ar  
    62   28   30 ar  
    63   29   34 ar  
    64   29   65 1   
    65   30   31 ar  
    66   30   66 1   
    67   31   32 ar  
    68   31   67 1   
    69   32   33 1   
    70   32   34 ar  
    71   34   68 1   
@<TRIPOS>SUBSTRUCTURE
     1 25B         1 TEMP              0 ****  ****    0 ROOT
