@<TRIPOS>MOLECULE
25B
   69    71     1     0     0
SMALL
bcc


@<TRIPOS>ATOM
      1 O38         0.5580    1.3990   -2.3620 o         1 25B     -0.680800
      2 S29         0.9370    0.6500   -1.2130 sy        1 25B      1.405300
      3 O37        -0.0250    0.5550   -0.2060 o         1 25B     -0.680800
      4 C29         1.5930   -0.8010   -1.6160 ca        1 25B     -0.434500
      5 C30         2.4260   -0.9420   -2.7390 ca        1 25B     -0.009500
      6 C31         2.9560   -2.1780   -3.0880 ca        1 25B     -0.147000
      7 C32         2.6590   -3.3060   -2.3170 ca        1 25B     -0.036000
      8 C33         1.8300   -3.1870   -1.2000 ca        1 25B     -0.147000
      9 C34         1.3030   -1.9470   -0.8550 ca        1 25B     -0.009500
     10 C37         2.3220    1.4830   -0.6100 c3        1 25B     -0.329600
     11 C10         2.0350    2.9220   -0.2510 c3        1 25B     -0.064400
     12 C11         2.4990    3.9460   -1.2990 c3        1 25B      0.127500
     13 C20         2.5010    5.3430   -0.6600 c3        1 25B     -0.108400
     14 C21         3.2440    6.3690   -1.4880 c3        1 25B     -0.101400
     15 C23         3.3790    7.6720   -0.7250 c3        1 25B     -0.077400
     16 C24         4.1040    8.7100   -1.5410 c3        1 25B     -0.096100
     17 N12         1.6530    3.9290   -2.5450 n4        1 25B     -0.678800
     18 C13         2.2110    3.1650   -3.7190 c         1 25B      0.591100
     19 O39         3.2310    2.5110   -3.5480 o         1 25B     -0.468100
     20 C14         1.4130    3.2770   -5.0050 c3        1 25B     -0.107700
     21 C15         1.0700    1.8590   -5.4600 c3        1 25B     -0.085400
     22 C16         0.3190    1.8860   -6.7730 c3        1 25B     -0.080400
     23 C17         1.1010    2.6280   -7.8350 c3        1 25B     -0.085400
     24 C18         1.4420    4.0310   -7.3820 c3        1 25B     -0.072400
     25 C19         2.2280    4.0190   -6.0720 c3        1 25B     -0.164700
     26 C39         2.5400    5.4430   -5.6570 c         1 25B      0.609700
     27 O41         2.0740    5.8930   -4.5930 o         1 25B     -0.618100
     28 C40         3.3880    6.2630   -6.5320 ca        1 25B     -0.199600
     29 C41         3.3190    7.6600   -6.4100 ca        1 25B     -0.064500
     30 C45         4.2690    5.6990   -7.4650 ca        1 25B     -0.064500
     31 C44         5.0640    6.5130   -8.2650 ca        1 25B     -0.137000
     32 C43         4.9790    7.9070   -8.1430 ca        1 25B      0.060400
     33 CL22        5.9400    8.8960   -9.1210 cl        1 25B     -0.044400
     34 C42         4.1040    8.4810   -7.2130 ca        1 25B     -0.137000
     35 H30         2.6540   -0.0530   -3.3540 ha        1 25B      0.154000
     36 H31         3.6070   -2.2710   -3.9710 ha        1 25B      0.158500
     37 H32         3.0780   -4.2880   -2.5930 ha        1 25B      0.157000
     38 H33         1.5900   -4.0750   -0.5930 ha        1 25B      0.158500
     39 H34         0.6380   -1.8570    0.0250 ha        1 25B      0.154000
     40 H37         3.1720    1.4370   -1.3430 h1        1 25B      0.130700
     41 H37A        2.7120    0.9680    0.3110 h1        1 25B      0.130700
     42 H10         2.5860    3.1710    0.6980 hc        1 25B      0.085200
     43 H10A        0.9410    3.0570   -0.0280 hc        1 25B      0.085200
     44 H11         3.5570    3.6920   -1.6140 hx        1 25B      0.118700
     45 H20         3.0090    5.2510    0.3390 hc        1 25B      0.076700
     46 H20A        1.4520    5.6870   -0.4620 hc        1 25B      0.076700
     47 H21         4.2660    5.9810   -1.7430 hc        1 25B      0.054200
     48 H21A        2.7120    6.5690   -2.4560 hc        1 25B      0.054200
     49 H23         3.9350    7.4900    0.2330 hc        1 25B      0.047700
     50 H23A        2.3590    8.0520   -0.4500 hc        1 25B      0.047700
     51 H24         3.5530    8.9260   -2.4880 hc        1 25B      0.042033
     52 H24A        5.1320    8.3600   -1.8040 hc        1 25B      0.042033
     53 H24B        4.1940    9.6600   -0.9610 hc        1 25B      0.042033
     54 HN12        0.7370    3.4970   -2.3350 hn        1 25B      0.484800
     55 H14         0.4550    3.8460   -4.8350 hc        1 25B      0.095700
     56 H15         0.4460    1.3630   -4.6680 hc        1 25B      0.075200
     57 H15A        2.0180    1.2690   -5.5730 hc        1 25B      0.075200
     58 H16         0.1330    0.8310   -7.1080 hc        1 25B      0.061700
     59 H16A       -0.6810    2.3730   -6.6280 hc        1 25B      0.061700
     60 H17         0.4960    2.6840   -8.7780 hc        1 25B      0.060700
     61 H17A        2.0430    2.0670   -8.0730 hc        1 25B      0.060700
     62 H18         2.0560    4.5450   -8.1690 hc        1 25B      0.066200
     63 H18A        0.5000    4.6230   -7.2440 hc        1 25B      0.066200
     64 H19         3.1990    3.4680   -6.2250 hc        1 25B      0.095700
     65 H41         2.6340    8.1050   -5.6690 ha        1 25B      0.149000
     66 H45         4.3510    4.6060   -7.5710 ha        1 25B      0.149000
     67 H44         5.7570    6.0620   -8.9940 ha        1 25B      0.165000
     68 H42         4.0370    9.5770   -7.1160 ha        1 25B      0.165000
     69 H122        1.4970    4.9020   -2.8610 hn        1 25B      0.484800
@<TRIPOS>BOND
     1    1    2 2   
     2    2    3 2   
     3    2    4 1   
     4    2   10 1   
     5    4    5 ar  
     6    4    9 ar  
     7    5    6 ar  
     8    5   35 1   
     9    6    7 ar  
    10    6   36 1   
    11    7    8 ar  
    12    7   37 1   
    13    8    9 ar  
    14    8   38 1   
    15    9   39 1   
    16   10   11 1   
    17   10   40 1   
    18   10   41 1   
    19   11   12 1   
    20   11   42 1   
    21   11   43 1   
    22   12   13 1   
    23   12   17 1   
    24   12   44 1   
    25   13   14 1   
    26   13   45 1   
    27   13   46 1   
    28   14   15 1   
    29   14   47 1   
    30   14   48 1   
    31   15   16 1   
    32   15   49 1   
    33   15   50 1   
    34   16   51 1   
    35   16   52 1   
    36   16   53 1   
    37   17   18 1   
    38   17   54 1   
    39   17   69 1   
    40   18   19 2   
    41   18   20 1   
    42   20   21 1   
    43   20   25 1   
    44   20   55 1   
    45   21   22 1   
    46   21   56 1   
    47   21   57 1   
    48   22   23 1   
    49   22   58 1   
    50   22   59 1   
    51   23   24 1   
    52   23   60 1   
    53   23   61 1   
    54   24   25 1   
    55   24   62 1   
    56   24   63 1   
    57   25   26 1   
    58   25   64 1   
    59   26   27 2   
    60   26   28 1   
    61   28   29 ar  
    62   28   30 ar  
    63   29   34 ar  
    64   29   65 1   
    65   30   31 ar  
    66   30   66 1   
    67   31   32 ar  
    68   31   67 1   
    69   32   33 1   
    70   32   34 ar  
    71   34   68 1   
@<TRIPOS>SUBSTRUCTURE
     1 25B         1 TEMP              0 ****  ****    0 ROOT
