@<TRIPOS>MOLECULE
25B
   68    70     1     0     0
SMALL
bcc


@<TRIPOS>ATOM
      1 O38        -5.5830    1.6220   -1.1420 o         1 25B     -0.658800
      2 S29        -5.0000    1.2620    0.0850 sy        1 25B      1.382300
      3 O37        -5.1120    2.1820    1.1400 o         1 25B     -0.658800
      4 C29        -5.5650   -0.2400    0.5660 ca        1 25B     -0.382500
      5 C30        -6.2020   -1.0910   -0.3480 ca        1 25B     -0.016000
      6 C31        -6.6900   -2.3320    0.0510 ca        1 25B     -0.155500
      7 C32        -6.5500   -2.7400    1.3780 ca        1 25B     -0.065000
      8 C33        -5.9260   -1.9010    2.3030 ca        1 25B     -0.155500
      9 C34        -5.4400   -0.6610    1.8960 ca        1 25B     -0.016000
     10 C37        -3.3550    0.8760   -0.1630 c3        1 25B     -0.320600
     11 C10        -2.5060    2.1070   -0.3760 c3        1 25B     -0.065400
     12 C11        -1.0100    1.8400   -0.1210 c3        1 25B      0.107700
     13 C20        -0.2620    3.1750   -0.2780 c3        1 25B     -0.093400
     14 C21         1.1730    3.0890    0.1940 c3        1 25B     -0.083400
     15 C23         1.8390    4.4490    0.1580 c3        1 25B     -0.080400
     16 C24         3.2320    4.3960    0.7300 c3        1 25B     -0.094100
     17 N12        -0.4670    0.8000   -0.9680 n         1 25B     -0.559900
     18 C13        -0.3530   -0.5060   -0.5540 c         1 25B      0.654100
     19 O39        -0.7710   -0.8790    0.5630 o         1 25B     -0.629100
     20 C14         0.2880   -1.4960   -1.5320 c3        1 25B     -0.119700
     21 C15        -0.4520   -2.8230   -1.4260 c3        1 25B     -0.072400
     22 C16         0.1850   -3.8880   -2.2910 c3        1 25B     -0.079400
     23 C17         1.6490   -4.0600   -1.9470 c3        1 25B     -0.077400
     24 C18         2.3920   -2.7480   -2.0760 c3        1 25B     -0.072400
     25 C19         1.7720   -1.6660   -1.1970 c3        1 25B     -0.151700
     26 C39         2.5440   -0.3800   -1.4110 c         1 25B      0.586700
     27 O41         2.1640    0.4650   -2.2350 o         1 25B     -0.552100
     28 C40         3.7740   -0.1610   -0.6180 ca        1 25B     -0.176600
     29 C41         4.3950    1.0960   -0.6970 ca        1 25B     -0.072000
     30 C45         4.3360   -1.1490    0.1990 ca        1 25B     -0.072000
     31 C44         5.4960   -0.8900    0.9260 ca        1 25B     -0.141000
     32 C43         6.1020    0.3680    0.8420 ca        1 25B      0.046400
     33 CL22        7.5120    0.6850    1.7310 cl        1 25B     -0.080400
     34 C42         5.5520    1.3650    0.0290 ca        1 25B     -0.141000
     35 H30        -6.3260   -0.7590   -1.3950 ha        1 25B      0.155000
     36 H31        -7.1890   -2.9870   -0.6780 ha        1 25B      0.142000
     37 H32        -6.9340   -3.7210    1.6970 ha        1 25B      0.137000
     38 H33        -5.8190   -2.2170    3.3510 ha        1 25B      0.142000
     39 H34        -4.9580    0.0090    2.6300 ha        1 25B      0.155000
     40 H37        -2.9250    0.2950    0.7010 h1        1 25B      0.125200
     41 H37A       -3.2300    0.1960   -1.0470 h1        1 25B      0.125200
     42 H10        -2.6520    2.4960   -1.4170 hc        1 25B      0.061700
     43 H10A       -2.8280    2.9100    0.3430 hc        1 25B      0.061700
     44 H11        -0.9050    1.4940    0.9540 h1        1 25B      0.078700
     45 H20        -0.2920    3.5120   -1.3470 hc        1 25B      0.051200
     46 H20A       -0.8070    3.9440    0.3310 hc        1 25B      0.051200
     47 H21         1.2010    2.6850    1.2410 hc        1 25B      0.046200
     48 H21A        1.7500    2.3750   -0.4540 hc        1 25B      0.046200
     49 H23         1.8780    4.8160   -0.9020 hc        1 25B      0.040200
     50 H23A        1.2240    5.1850    0.7390 hc        1 25B      0.040200
     51 H24         3.7280    5.3920    0.6360 hc        1 25B      0.032700
     52 H24A        3.2040    4.1160    1.8110 hc        1 25B      0.032700
     53 H24B        3.8540    3.6380    0.1910 hc        1 25B      0.032700
     54 HN12       -0.0330    1.0800   -1.8180 hn        1 25B      0.328500
     55 H14         0.2070   -1.1160   -2.5890 hc        1 25B      0.078700
     56 H15        -0.4590   -3.1540   -0.3530 hc        1 25B      0.060200
     57 H15A       -1.5180   -2.6700   -1.7360 hc        1 25B      0.060200
     58 H16        -0.3540   -4.8590   -2.1420 hc        1 25B      0.045200
     59 H16A        0.0850   -3.6080   -3.3730 hc        1 25B      0.045200
     60 H17         1.7460   -4.4470   -0.8980 hc        1 25B      0.046200
     61 H17A        2.1130   -4.8180   -2.6310 hc        1 25B      0.046200
     62 H18         3.4660   -2.8910   -1.7860 hc        1 25B      0.051700
     63 H18A        2.3710   -2.4080   -3.1460 hc        1 25B      0.051700
     64 H19         1.8440   -1.9690   -0.1150 hc        1 25B      0.085700
     65 H41         3.9540    1.8730   -1.3450 ha        1 25B      0.153000
     66 H45         3.8750   -2.1460    0.2760 ha        1 25B      0.153000
     67 H44         5.9300   -1.6740    1.5650 ha        1 25B      0.154000
     68 H42         6.0260    2.3560   -0.0370 ha        1 25B      0.154000
@<TRIPOS>BOND
     1    1    2 2   
     2    2    3 2   
     3    2    4 1   
     4    2   10 1   
     5    4    5 ar  
     6    4    9 ar  
     7    5    6 ar  
     8    5   35 1   
     9    6    7 ar  
    10    6   36 1   
    11    7    8 ar  
    12    7   37 1   
    13    8    9 ar  
    14    8   38 1   
    15    9   39 1   
    16   10   11 1   
    17   10   40 1   
    18   10   41 1   
    19   11   12 1   
    20   11   42 1   
    21   11   43 1   
    22   12   13 1   
    23   12   17 1   
    24   12   44 1   
    25   13   14 1   
    26   13   45 1   
    27   13   46 1   
    28   14   15 1   
    29   14   47 1   
    30   14   48 1   
    31   15   16 1   
    32   15   49 1   
    33   15   50 1   
    34   16   51 1   
    35   16   52 1   
    36   16   53 1   
    37   17   18 1   
    38   17   54 1   
    39   18   19 2   
    40   18   20 1   
    41   20   21 1   
    42   20   25 1   
    43   20   55 1   
    44   21   22 1   
    45   21   56 1   
    46   21   57 1   
    47   22   23 1   
    48   22   58 1   
    49   22   59 1   
    50   23   24 1   
    51   23   60 1   
    52   23   61 1   
    53   24   25 1   
    54   24   62 1   
    55   24   63 1   
    56   25   26 1   
    57   25   64 1   
    58   26   27 2   
    59   26   28 1   
    60   28   29 ar  
    61   28   30 ar  
    62   29   34 ar  
    63   29   65 1   
    64   30   31 ar  
    65   30   66 1   
    66   31   32 ar  
    67   31   67 1   
    68   32   33 1   
    69   32   34 ar  
    70   34   68 1   
@<TRIPOS>SUBSTRUCTURE
     1 25B         1 TEMP              0 ****  ****    0 ROOT
