@<TRIPOS>MOLECULE
25B
   69    71     1     0     0
SMALL
bcc


@<TRIPOS>ATOM
      1 O38         0.6250    1.4030   -2.2630 o         1 25B     -0.680800
      2 S29         1.0710    0.6350   -1.1510 sy        1 25B      1.405300
      3 O37         0.1790    0.5390   -0.0820 o         1 25B     -0.680800
      4 C29         1.6780   -0.8190   -1.6150 ca        1 25B     -0.434500
      5 C30         2.4310   -0.9570   -2.7940 ca        1 25B     -0.009500
      6 C31         2.9190   -2.1940   -3.1930 ca        1 25B     -0.147000
      7 C32         2.6600   -3.3280   -2.4170 ca        1 25B     -0.036000
      8 C33         1.9110   -3.2130   -1.2450 ca        1 25B     -0.147000
      9 C34         1.4250   -1.9700   -0.8500 ca        1 25B     -0.009500
     10 C37         2.5050    1.4430   -0.6330 c3        1 25B     -0.329600
     11 C10         2.2640    2.8810   -0.2400 c3        1 25B     -0.064400
     12 C11         2.6690    3.9120   -1.3040 c3        1 25B      0.127500
     13 C20         2.7340    5.3000   -0.6500 c3        1 25B     -0.108400
     14 C21         3.4340    6.3260   -1.5150 c3        1 25B     -0.101400
     15 C23         3.6380    7.6180   -0.7470 c3        1 25B     -0.077400
     16 C24         4.3220    8.6560   -1.5990 c3        1 25B     -0.096100
     17 N12         1.7400    3.9210   -2.4900 n4        1 25B     -0.678800
     18 C13         2.2070    3.1660   -3.7080 c         1 25B      0.591100
     19 O39         3.2270    2.4960   -3.6150 o         1 25B     -0.468100
     20 C14         1.3250    3.3040   -4.9360 c3        1 25B     -0.107700
     21 C15         0.9320    1.8970   -5.3830 c3        1 25B     -0.085400
     22 C16         0.0950    1.9500   -6.6410 c3        1 25B     -0.080400
     23 C17         0.8130    2.6960   -7.7450 c3        1 25B     -0.085400
     24 C18         1.2040    4.0880   -7.3000 c3        1 25B     -0.072400
     25 C19         2.0760    4.0490   -6.0460 c3        1 25B     -0.164700
     26 C39         2.4340    5.4630   -5.6360 c         1 25B      0.609700
     27 O41         2.0480    5.9060   -4.5380 o         1 25B     -0.618100
     28 C40         3.2320    6.2840   -6.5570 ca        1 25B     -0.199600
     29 C41         3.1900    7.6810   -6.4150 ca        1 25B     -0.064500
     30 C45         4.0420    5.7200   -7.5540 ca        1 25B     -0.064500
     31 C44         4.7910    6.5350   -8.3970 ca        1 25B     -0.137000
     32 C43         4.7330    7.9270   -8.2530 ca        1 25B      0.060400
     33 CL22        5.6390    8.9170   -9.2820 cl        1 25B     -0.044400
     34 C42         3.9300    8.5010   -7.2600 ca        1 25B     -0.137000
     35 H30         2.6280   -0.0620   -3.4130 ha        1 25B      0.154000
     36 H31         3.5070   -2.2840   -4.1200 ha        1 25B      0.158500
     37 H32         3.0460   -4.3110   -2.7320 ha        1 25B      0.157000
     38 H33         1.7010   -4.1050   -0.6330 ha        1 25B      0.158500
     39 H34         0.8230   -1.8840    0.0740 ha        1 25B      0.154000
     40 H37         2.9500    0.9100    0.2520 h1        1 25B      0.130700
     41 H37A        3.3030    1.3950   -1.4240 h1        1 25B      0.130700
     42 H10         1.1880    3.0260    0.0590 hc        1 25B      0.085200
     43 H10A        2.8810    3.1100    0.6730 hc        1 25B      0.085200
     44 H11         3.7000    3.6480   -1.6930 hx        1 25B      0.118700
     45 H20         1.7050    5.6550   -0.3780 hc        1 25B      0.076700
     46 H20A        3.3070    5.1890    0.3110 hc        1 25B      0.076700
     47 H21         2.8400    6.5460   -2.4420 hc        1 25B      0.054200
     48 H21A        4.4310    5.9280   -1.8430 hc        1 25B      0.054200
     49 H23         2.6450    8.0080   -0.4000 hc        1 25B      0.047700
     50 H23A        4.2550    7.4160    0.1690 hc        1 25B      0.047700
     51 H24         5.3250    8.2950   -1.9340 hc        1 25B      0.042033
     52 H24A        4.4640    9.5980   -1.0150 hc        1 25B      0.042033
     53 H24B        3.7120    8.8910   -2.5040 hc        1 25B      0.042033
     54 HN12        1.5770    4.9000   -2.7830 hn        1 25B      0.484800
     55 H14         0.3890    3.8830   -4.6930 hc        1 25B      0.095700
     56 H15         1.8620    1.2960   -5.5660 hc        1 25B      0.075200
     57 H15A        0.3570    1.3990   -4.5560 hc        1 25B      0.075200
     58 H16        -0.8870    2.4490   -6.4230 hc        1 25B      0.061700
     59 H16A       -0.1290    0.9020   -6.9750 hc        1 25B      0.061700
     60 H17         0.1460    2.7710   -8.6440 hc        1 25B      0.060700
     61 H17A        1.7290    2.1250   -8.0530 hc        1 25B      0.060700
     62 H18         1.7690    4.6040   -8.1200 hc        1 25B      0.066200
     63 H18A        0.2810    4.6910   -7.0910 hc        1 25B      0.066200
     64 H19         3.0270    3.4880   -6.2710 hc        1 25B      0.095700
     65 H41         2.5620    8.1250   -5.6250 ha        1 25B      0.149000
     66 H45         4.1010    4.6280   -7.6780 ha        1 25B      0.149000
     67 H44         5.4280    6.0840   -9.1750 ha        1 25B      0.165000
     68 H42         3.8840    9.5960   -7.1460 ha        1 25B      0.165000
     69 H122        0.8340    3.4990   -2.2230 hn        1 25B      0.484800
@<TRIPOS>BOND
     1    1    2 2   
     2    2    3 2   
     3    2    4 1   
     4    2   10 1   
     5    4    5 ar  
     6    4    9 ar  
     7    5    6 ar  
     8    5   35 1   
     9    6    7 ar  
    10    6   36 1   
    11    7    8 ar  
    12    7   37 1   
    13    8    9 ar  
    14    8   38 1   
    15    9   39 1   
    16   10   11 1   
    17   10   40 1   
    18   10   41 1   
    19   11   12 1   
    20   11   42 1   
    21   11   43 1   
    22   12   13 1   
    23   12   17 1   
    24   12   44 1   
    25   13   14 1   
    26   13   45 1   
    27   13   46 1   
    28   14   15 1   
    29   14   47 1   
    30   14   48 1   
    31   15   16 1   
    32   15   49 1   
    33   15   50 1   
    34   16   51 1   
    35   16   52 1   
    36   16   53 1   
    37   17   18 1   
    38   17   54 1   
    39   17   69 1   
    40   18   19 2   
    41   18   20 1   
    42   20   21 1   
    43   20   25 1   
    44   20   55 1   
    45   21   22 1   
    46   21   56 1   
    47   21   57 1   
    48   22   23 1   
    49   22   58 1   
    50   22   59 1   
    51   23   24 1   
    52   23   60 1   
    53   23   61 1   
    54   24   25 1   
    55   24   62 1   
    56   24   63 1   
    57   25   26 1   
    58   25   64 1   
    59   26   27 2   
    60   26   28 1   
    61   28   29 ar  
    62   28   30 ar  
    63   29   34 ar  
    64   29   65 1   
    65   30   31 ar  
    66   30   66 1   
    67   31   32 ar  
    68   31   67 1   
    69   32   33 1   
    70   32   34 ar  
    71   34   68 1   
@<TRIPOS>SUBSTRUCTURE
     1 25B         1 TEMP              0 ****  ****    0 ROOT
