@<TRIPOS>MOLECULE
25B
   68    64     1     0     0
SMALL
bcc


@<TRIPOS>ATOM
      1 O38        -1.5020   -1.5720    1.5290 o         1 25B     -0.938500
      2 S29        -0.5280   -1.0870    2.4310 ss        1 25B      2.848000
      3 O37        -1.3520   -0.7850    3.5980 o         1 25B     -0.938500
      4 C29         0.7120   -2.3590    2.8040 c1        1 25B     -0.830000
      5 C30         1.5150   -2.2400    3.9560 c2        1 25B     -0.018000
      6 C31         2.4110   -3.2540    4.2880 c1        1 25B     -0.156000
      7 C32         2.5150   -4.3900    3.4800 c1        1 25B     -0.109500
      8 C33         1.7150   -4.5090    2.3310 c1        1 25B     -0.109500
      9 C34         0.8130   -3.4900    1.9960 c1        1 25B     -0.014000
     10 C37         0.2890    0.4190    1.7840 c2        1 25B     -0.862000
     11 C10        -0.7910    1.4300    1.3140 c3        1 25B     -0.146000
     12 C11        -0.1210    2.7550    0.9310 c3        1 25B      0.031000
     13 C20        -0.5060    3.8300    1.9420 c3        1 25B     -0.173000
     14 C21        -1.1190    3.1450    3.2440 c3        1 25B     -0.158000
     15 C23        -2.6840    3.0700    3.1110 c3        1 25B     -0.159000
     16 C24        -3.1960    1.8130    3.8320 c3        1 25B     -0.211000
     17 N12        -0.5480    3.1450   -0.3550 n         1 25B     -0.368000
     18 C13         0.1600    2.6030   -1.5890 c2        1 25B      0.305000
     19 O39         1.3560    2.8320   -1.7610 o         1 25B     -0.403000
     20 C14        -0.6070    1.7210   -2.5940 c3        1 25B     -0.110000
     21 C15        -2.1000    1.6450   -2.2440 c3        1 25B     -0.154000
     22 C16        -2.8740    0.7480   -3.1360 c3        1 25B     -0.156000
     23 C17        -2.3100   -0.6050   -3.2430 c3        1 25B     -0.156000
     24 C18        -0.8640   -0.6220   -3.5980 c3        1 25B     -0.150000
     25 C19         0.0030    0.2450   -2.6690 c3        1 25B     -0.139000
     26 C39         1.5140    0.2490   -3.0850 c2        1 25B      0.272000
     27 O41         2.0870    1.2840   -3.2430 o         1 25B     -0.292000
     28 C40         2.2570   -1.0330   -3.1970 c2        1 25B     -0.151000
     29 C41         2.0420   -1.8660   -4.2880 c2        1 25B     -0.076000
     30 C45         3.1870   -1.3810   -2.2330 c1        1 25B     -0.085000
     31 C44         3.9200   -2.5890   -2.3580 c1        1 25B     -0.137000
     32 C43         3.7060   -3.4180   -3.4430 c1        1 25B     -0.041000
     33 CL22        4.5300   -4.9770   -3.5390 cl        1 25B     -0.011000
     34 C42         2.7720   -3.0680   -4.4110 c2        1 25B     -0.139000
     35 H30         1.4410   -1.4030    4.5530 ha        1 25B      0.156000
     36 H31         2.9950   -3.1670    5.1260 ha        1 25B      0.143000
     37 H32         3.1440   -5.0990    3.7130 ha        1 25B      0.140000
     38 H33         1.7870   -5.2930    1.7750 ha        1 25B      0.140000
     39 H34         0.2450   -3.5730    1.1810 ha        1 25B      0.152000
     40 H37         0.8710    0.8530    2.5370 ha        1 25B      0.163000
     41 H37A        0.8890    0.1660    0.9900 ha        1 25B      0.163000
     42 H10        -1.4250    1.5850    2.0310 hc        1 25B      0.101500
     43 H10A       -1.2760    1.0520    0.5110 hc        1 25B      0.101500
     44 H11         0.8950    2.6330    0.9340 h1        1 25B      0.124000
     45 H20        -1.1220    4.3830    1.5750 hc        1 25B      0.090000
     46 H20A        0.2930    4.3490    2.1890 hc        1 25B      0.090000
     47 H21        -0.7280    2.1690    3.3480 hc        1 25B      0.084000
     48 H21A       -0.8690    3.7110    4.0840 hc        1 25B      0.084000
     49 H23        -3.0870    3.8710    3.5180 hc        1 25B      0.080000
     50 H23A       -2.9310    3.0270    2.1620 hc        1 25B      0.080000
     51 H24        -3.7220    2.0710    4.5860 hc        1 25B      0.073333
     52 H24A       -3.7490    1.2780    3.2100 hc        1 25B      0.073333
     53 H24B       -2.4230    1.2700    4.1380 hc        1 25B      0.073333
     54 HN12       -1.2470    3.6410   -0.4420 hn        1 25B      0.230000
     55 H14        -0.4500    2.2420   -3.4810 hc        1 25B      0.118000
     56 H15        -2.1910    1.3040   -1.2740 hc        1 25B      0.096000
     57 H15A       -2.4790    2.5390   -2.2970 hc        1 25B      0.096000
     58 H16        -2.8950    1.1320   -3.9960 hc        1 25B      0.086000
     59 H16A       -3.7740    0.6840   -2.8080 hc        1 25B      0.086000
     60 H17        -2.8190   -1.1110   -3.9370 hc        1 25B      0.085000
     61 H17A       -2.4260   -1.0690   -2.3520 hc        1 25B      0.085000
     62 H18        -0.7630   -0.2990   -4.5050 hc        1 25B      0.092500
     63 H18A       -0.5410   -1.5530   -3.5560 hc        1 25B      0.092500
     64 H19         0.0590   -0.1650   -1.7470 hc        1 25B      0.129000
     65 H41         1.3590   -1.6070   -5.0040 ha        1 25B      0.151000
     66 H45         3.3420   -0.7900   -1.4590 ha        1 25B      0.172000
     67 H44         4.5830   -2.8360   -1.6750 ha        1 25B      0.152000
     68 H42         2.6140   -3.6830   -5.2140 ha        1 25B      0.151000
@<TRIPOS>BOND
     1    1    2 1   
     2    2    3 1   
     3    4    5 1   
     4    4    9 1   
     5    5    6 1   
     6    5   35 1   
     7    6   36 1   
     8    7    8 1   
     9    7   37 1   
    10    8   38 1   
    11    9   39 1   
    12   10   11 1   
    13   10   40 1   
    14   10   41 1   
    15   11   12 1   
    16   11   42 1   
    17   11   43 1   
    18   12   13 1   
    19   12   17 1   
    20   12   44 1   
    21   13   14 1   
    22   13   45 1   
    23   13   46 1   
    24   14   15 1   
    25   14   47 1   
    26   14   48 1   
    27   15   16 1   
    28   15   49 1   
    29   15   50 1   
    30   16   51 1   
    31   16   52 1   
    32   16   53 1   
    33   17   18 1   
    34   17   54 1   
    35   18   19 1   
    36   18   20 1   
    37   20   21 1   
    38   20   25 1   
    39   20   55 1   
    40   21   22 1   
    41   21   56 1   
    42   21   57 1   
    43   22   23 1   
    44   22   58 1   
    45   22   59 1   
    46   23   24 1   
    47   23   60 1   
    48   23   61 1   
    49   24   25 1   
    50   24   62 1   
    51   24   63 1   
    52   25   26 1   
    53   25   64 1   
    54   26   27 1   
    55   26   28 1   
    56   28   29 1   
    57   28   30 1   
    58   29   34 1   
    59   29   65 1   
    60   30   66 1   
    61   31   32 1   
    62   31   67 1   
    63   32   34 1   
    64   34   68 1   
@<TRIPOS>SUBSTRUCTURE
     1 25B         1 TEMP              0 ****  ****    0 ROOT
