@<TRIPOS>MOLECULE
25D
   71    68     1     0     0
SMALL
bcc


@<TRIPOS>ATOM
      1 C1         -8.8460   -0.6120   -2.9980 c3        1 25D     -0.169000
      2 C2         -7.3420   -0.4110   -2.7200 c2        1 25D     -0.080000
      3 C3         -6.9290    0.3110   -1.6050 c2        1 25D     -0.140000
      4 C4         -5.5780    0.4280   -1.3160 c1        1 25D     -0.060000
      5 C5         -5.1180    1.3890   -0.2240 c3        1 25D     -0.210000
      6 C6         -4.6390   -0.1810   -2.1450 c1        1 25D      0.036000
      7 N7         -3.2470    0.0230   -1.9210 n         1 25D     -0.302000
      8 C8         -2.5060   -0.9210   -1.1440 c2        1 25D      0.395000
      9 O9         -3.0460   -1.8620   -0.6910 o         1 25D     -0.398000
     10 N10        -1.0860   -0.7010   -0.8890 n         1 25D     -0.330000
     11 C11        -0.3190   -1.6640   -0.0550 c2        1 25D      0.140000
     12 C12        -0.7080   -3.0010   -0.0170 c2        1 25D     -0.197000
     13 C13         0.0730   -3.9510    0.6990 c1        1 25D      0.007000
     14 C14        -0.3620   -5.2870    0.7850 c2        1 25D     -0.125000
     15 C15         0.3460   -6.1940    1.5190 c1        1 25D     -0.131000
     16 C16         1.5170   -5.7990    2.1950 c1        1 25D     -0.129000
     17 C17         1.9500   -4.4960    2.1170 c1        1 25D     -0.129000
     18 C18         1.2140   -3.5540    1.3550 c1        1 25D     -0.082000
     19 C19         1.6130   -2.1960    1.3180 c1        1 25D     -0.059000
     20 C20         0.8410   -1.2550    0.6100 c1        1 25D     -0.151000
     21 C21         1.3560    0.2270    0.4600 c2        1 25D      0.329000
     22 O22         0.7260    1.0120   -0.1500 o         1 25D     -0.369000
     23 N23         2.5230    0.6330    1.1380 n         1 25D     -0.324000
     24 C24         2.9400    2.1060    1.1330 c3        1 25D      0.000000
     25 C25         1.9970    2.9240    2.0520 c3        1 25D     -0.199000
     26 C26         4.2530    2.2220    1.6000 c3        1 25D     -0.075000
     27 C27         5.3200    2.2670    0.3910 c3        1 25D     -0.162000
     28 C28         6.7690    2.3990    0.8700 c3        1 25D     -0.149500
     29 C29         6.8310    2.8700    2.1570 c3        1 25D     -0.152000
     30 C30         6.0170    3.8270    2.6820 c3        1 25D     -0.149500
     31 C31         4.5560    3.6640    2.1790 c3        1 25D     -0.162000
     32 C32         2.8520    2.6640   -0.3250 c2        1 25D      0.321000
     33 O33         2.3540    3.8230   -0.5340 o         1 25D     -0.576500
     34 O34         3.1490    1.9460   -1.2720 o         1 25D     -0.576500
     35 C35        -5.0640   -0.9080   -3.2680 c1        1 25D     -0.033000
     36 C36        -4.0210   -1.4960   -4.2530 c3        1 25D     -0.182000
     37 C37        -6.3970   -1.0190   -3.5480 c1        1 25D     -0.149000
     38 H1         -9.2310   -1.1680   -2.3100 hc        1 25D      0.073667
     39 H1A        -9.2940    0.2470   -3.0070 hc        1 25D      0.073667
     40 H1B        -8.9580   -1.0470   -3.8700 hc        1 25D      0.073667
     41 H3         -7.5470    0.7390   -1.0860 ha        1 25D      0.125000
     42 H5         -5.8850    1.8670    0.1290 hc        1 25D      0.105667
     43 H5A        -4.4700    2.0370   -0.6020 hc        1 25D      0.105667
     44 H5B        -4.6920    0.8840    0.4930 hc        1 25D      0.105667
     45 HN7        -2.8140    0.6850   -2.3560 hn        1 25D      0.271000
     46 HN10       -0.6470    0.0590   -1.2660 hn        1 25D      0.277000
     47 H12        -1.4980   -3.2900   -0.5030 ha        1 25D      0.169000
     48 H14        -1.0020   -5.8180    0.2320 ha        1 25D      0.132000
     49 H15        -0.0400   -7.0190    1.7630 ha        1 25D      0.119000
     50 H16         1.9920   -6.4670    2.7270 ha        1 25D      0.122000
     51 H17         2.8730   -4.3640    2.5160 ha        1 25D      0.122000
     52 H19         2.4140   -1.9160    1.7820 ha        1 25D      0.141000
     53 HN23        3.0070    0.0360    1.5830 hn        1 25D      0.220000
     54 H25         2.2710    3.8670    2.0440 hc        1 25D      0.083000
     55 H25A        1.0930    2.8500    1.7340 hc        1 25D      0.083000
     56 H25B        2.0480    2.5950    2.9220 hc        1 25D      0.083000
     57 H26         4.4860    1.4830    2.2850 hc        1 25D      0.075000
     58 H27         5.2310    1.4360   -0.1450 hc        1 25D      0.096000
     59 H27A        5.1090    3.0390   -0.1850 hc        1 25D      0.096000
     60 H28         7.2150    1.4640    0.8350 hc        1 25D      0.066500
     61 H28A        7.2720    3.0310    0.2520 hc        1 25D      0.066500
     62 H29         6.7290    2.0620    2.7540 hc        1 25D      0.064000
     63 H29A        7.7790    3.2110    2.2850 hc        1 25D      0.064000
     64 H30         6.3600    4.7400    2.4100 hc        1 25D      0.066500
     65 H30A        6.0280    3.7570    3.6760 hc        1 25D      0.066500
     66 H31         4.3850    4.3280    1.4800 hc        1 25D      0.096000
     67 H31A        3.9290    3.8370    2.9530 hc        1 25D      0.096000
     68 H36        -3.5710   -2.2410   -3.8400 hc        1 25D      0.088333
     69 H36A       -4.4880   -1.8070   -5.0920 hc        1 25D      0.088333
     70 H36B       -3.3940   -0.8360   -4.4740 hc        1 25D      0.088333
     71 H37        -6.6780   -1.5080   -4.2980 ha        1 25D      0.120000
@<TRIPOS>BOND
     1    1    2 1   
     2    1   38 1   
     3    1   39 1   
     4    1   40 1   
     5    2    3 1   
     6    2   37 1   
     7    3    4 1   
     8    3   41 1   
     9    4    5 1   
    10    5   42 1   
    11    5   43 1   
    12    5   44 1   
    13    6    7 1   
    14    6   35 1   
    15    7    8 1   
    16    7   45 1   
    17    8    9 1   
    18    8   10 1   
    19   10   11 1   
    20   10   46 1   
    21   11   12 1   
    22   11   20 1   
    23   12   13 1   
    24   12   47 1   
    25   13   14 1   
    26   14   15 1   
    27   14   48 1   
    28   15   49 1   
    29   16   17 1   
    30   16   50 1   
    31   17   51 1   
    32   18   19 1   
    33   19   52 1   
    34   20   21 1   
    35   21   22 1   
    36   21   23 1   
    37   23   24 1   
    38   23   53 1   
    39   24   25 1   
    40   24   26 1   
    41   24   32 1   
    42   25   54 1   
    43   25   55 1   
    44   25   56 1   
    45   26   27 1   
    46   26   31 1   
    47   26   57 1   
    48   27   28 1   
    49   27   58 1   
    50   27   59 1   
    51   28   29 1   
    52   28   60 1   
    53   28   61 1   
    54   29   30 1   
    55   29   62 1   
    56   29   63 1   
    57   30   31 1   
    58   30   64 1   
    59   30   65 1   
    60   31   66 1   
    61   31   67 1   
    62   32   33 1   
    63   32   34 1   
    64   35   36 1   
    65   36   68 1   
    66   36   69 1   
    67   36   70 1   
    68   37   71 1   
@<TRIPOS>SUBSTRUCTURE
     1 25D         1 TEMP              0 ****  ****    0 ROOT
