@<TRIPOS>MOLECULE
25D
   74    78     1     0     0
SMALL
bcc


@<TRIPOS>ATOM
      1 C1          0.3680    0.2480   -0.3680 c3        1 25D     -0.090800
      2 C2          1.8440    0.1740   -0.3940 ca        1 25D      0.036700
      3 C3          2.5370   -0.4830    0.6320 ca        1 25D     -0.123000
      4 C4          3.9280   -0.5730    0.6260 ca        1 25D     -0.012300
      5 C5          4.6270   -1.2780    1.7260 c3        1 25D     -0.091300
      6 C6          4.6350    0.0090   -0.4560 ca        1 25D     -0.110400
      7 N7          6.0870   -0.1270   -0.5130 n4        1 25D     -0.462200
      8 C8          6.8100    0.9600    0.2150 c         1 25D      0.482100
      9 O9          6.2570    1.8050    0.9000 o         1 25D     -0.326100
     10 N10         8.3100    0.9960    0.0930 n4        1 25D     -0.508200
     11 C11         8.7440    1.5450   -1.2010 ca        1 25D     -0.073400
     12 C12         8.6650    2.9160   -1.4010 ca        1 25D     -0.036000
     13 C13         9.1300    3.4870   -2.6100 ca        1 25D     -0.047000
     14 C14        10.1620    3.2120   -4.8130 ca        1 25D     -0.126000
     15 C15         9.5370    5.4170   -4.0180 ca        1 25D     -0.083000
     16 C16        10.0890    4.5740   -5.0120 ca        1 25D     -0.057000
     17 C17         9.0640    4.8880   -2.8390 ca        1 25D     -0.102000
     18 C18         9.6870    2.6390   -3.6070 ca        1 25D     -0.007000
     19 C19         9.7670    1.2370   -3.3660 ca        1 25D     -0.068000
     20 C20         9.3130    0.6760   -2.2000 ca        1 25D     -0.112300
     21 C21         9.3420   -0.8090   -1.8520 c3        1 25D      0.764800
     22 O22         8.1970   -1.3050   -1.4860 o         1 25D     -0.829500
     23 N23         9.9770   -1.7580   -2.9560 n4        1 25D     -0.851000
     24 C24        11.0720   -2.5690   -2.2810 c3        1 25D      0.081200
     25 C25        10.6500   -4.0340   -2.1530 c3        1 25D     -0.123100
     26 C26        12.4200   -2.4370   -3.0370 c3        1 25D     -0.069700
     27 C27        13.4590   -3.3900   -2.4520 c3        1 25D     -0.083900
     28 C28        14.7860   -3.2570   -3.1720 c3        1 25D     -0.078400
     29 C29        15.2960   -1.8330   -3.1570 c3        1 25D     -0.085400
     30 C30        14.2640   -0.8860   -3.7320 c3        1 25D     -0.078400
     31 C31        12.9440   -1.0060   -2.9960 c3        1 25D     -0.083900
     32 C32        11.1640   -1.9630   -0.8770 c         1 25D      0.735600
     33 O33        11.8690   -2.2200    0.0810 o         1 25D     -0.487500
     34 O34        10.2510   -0.9430   -0.7140 os        1 25D     -0.512900
     35 C35         3.9570    0.6880   -1.4980 ca        1 25D     -0.012300
     36 C36         4.6830    1.3000   -2.6350 c3        1 25D     -0.091300
     37 C37         2.5660    0.7520   -1.4490 ca        1 25D     -0.123000
     38 H1         -0.0140    0.3070    0.6830 hc        1 25D      0.082367
     39 H1A        -0.0050    1.1390   -0.9330 hc        1 25D      0.082367
     40 H1B        -0.0630   -0.6720   -0.8430 hc        1 25D      0.082367
     41 H3          1.9700   -0.9390    1.4630 ha        1 25D      0.178500
     42 H5          3.9090   -1.5610    2.5390 hc        1 25D      0.067700
     43 H5A         5.4120   -0.6270    2.1860 hc        1 25D      0.067700
     44 H5B         5.0990   -2.2250    1.3560 hc        1 25D      0.067700
     45 HN7         6.4200   -0.1460   -1.5050 hn        1 25D      0.511800
     46 HN10        8.6710    1.6050    0.8490 hn        1 25D      0.510800
     47 H12         8.2500    3.5960   -0.6340 ha        1 25D      0.168000
     48 H14        10.5950    2.5570   -5.5870 ha        1 25D      0.160000
     49 H15         9.4930    6.5050   -4.2000 ha        1 25D      0.178000
     50 H16        10.4630    5.0220   -5.9490 ha        1 25D      0.177000
     51 H17         8.6380    5.5410   -2.0610 ha        1 25D      0.161000
     52 H19        10.2200    0.6400   -4.1740 ha        1 25D      0.150000
     53 HN23       10.3590   -1.2390   -3.7400 hn        1 25D      0.449800
     54 H25        10.7520   -4.5580   -3.1340 hc        1 25D      0.087033
     55 H25A        9.5980   -4.1310   -1.7860 hc        1 25D      0.087033
     56 H25B       11.3200   -4.5350   -1.4060 hc        1 25D      0.087033
     57 H26        12.2430   -2.7370   -4.1090 hc        1 25D      0.071700
     58 H27        13.1070   -4.4500   -2.5540 hc        1 25D      0.049700
     59 H27A       13.5940   -3.1700   -1.3590 hc        1 25D      0.049700
     60 H28        15.5350   -3.9300   -2.6750 hc        1 25D      0.058950
     61 H28A       14.6750   -3.6060   -4.2330 hc        1 25D      0.058950
     62 H29        15.5430   -1.5300   -2.1060 hc        1 25D      0.063700
     63 H29A       16.2410   -1.7660   -3.7570 hc        1 25D      0.063700
     64 H30        14.1110   -1.1100   -4.8200 hc        1 25D      0.058950
     65 H30A       14.6340    0.1700   -3.6510 hc        1 25D      0.058950
     66 H31        12.2090   -0.2970   -3.4620 hc        1 25D      0.049700
     67 H31A       13.0860   -0.6940   -1.9270 hc        1 25D      0.049700
     68 H36         3.9810    1.8780   -3.2900 hc        1 25D      0.067700
     69 H36A        5.4690    2.0110   -2.2770 hc        1 25D      0.067700
     70 H36B        5.1610    0.5120   -3.2710 hc        1 25D      0.067700
     71 H37         2.0200    1.2700   -2.2570 ha        1 25D      0.178500
     72 H72         6.3720   -1.0390   -0.1000 hn        1 25D      0.511800
     73 H102        8.7000    0.0340    0.2200 hn        1 25D      0.510800
     74 H232        9.2300   -2.3800   -3.2750 hn        1 25D      0.449800
@<TRIPOS>BOND
     1    1    2 1   
     2    1   38 1   
     3    1   39 1   
     4    1   40 1   
     5    2    3 ar  
     6    2   37 ar  
     7    3    4 ar  
     8    3   41 1   
     9    4    5 1   
    10    4    6 ar  
    11    5   42 1   
    12    5   43 1   
    13    5   44 1   
    14    6    7 1   
    15    6   35 ar  
    16    7    8 1   
    17    7   45 1   
    18    7   72 1   
    19    8    9 2   
    20    8   10 1   
    21   10   11 1   
    22   10   46 1   
    23   10   73 1   
    24   11   12 ar  
    25   11   20 ar  
    26   12   13 ar  
    27   12   47 1   
    28   13   17 ar  
    29   13   18 ar  
    30   14   16 ar  
    31   14   18 ar  
    32   14   48 1   
    33   15   16 ar  
    34   15   17 ar  
    35   15   49 1   
    36   16   50 1   
    37   17   51 1   
    38   18   19 ar  
    39   19   20 ar  
    40   19   52 1   
    41   20   21 1   
    42   21   22 1   
    43   21   23 1   
    44   21   34 1   
    45   23   24 1   
    46   23   53 1   
    47   23   74 1   
    48   24   25 1   
    49   24   26 1   
    50   24   32 1   
    51   25   54 1   
    52   25   55 1   
    53   25   56 1   
    54   26   27 1   
    55   26   31 1   
    56   26   57 1   
    57   27   28 1   
    58   27   58 1   
    59   27   59 1   
    60   28   29 1   
    61   28   60 1   
    62   28   61 1   
    63   29   30 1   
    64   29   62 1   
    65   29   63 1   
    66   30   31 1   
    67   30   64 1   
    68   30   65 1   
    69   31   66 1   
    70   31   67 1   
    71   32   33 2   
    72   32   34 1   
    73   35   36 1   
    74   35   37 ar  
    75   36   68 1   
    76   36   69 1   
    77   36   70 1   
    78   37   71 1   
@<TRIPOS>SUBSTRUCTURE
     1 25D         1 TEMP              0 ****  ****    0 ROOT
