@<TRIPOS>MOLECULE
25D
   72    75     1     0     0
SMALL
bcc


@<TRIPOS>ATOM
      1 C1          0.1320   -0.9080   -1.5320 c3        1 25D     -0.055800
      2 C2          1.3370   -0.5490   -0.7500 ca        1 25D     -0.062300
      3 C3          1.5080   -1.0280    0.5500 ca        1 25D     -0.129500
      4 C4          2.6460   -0.7120    1.2990 ca        1 25D     -0.058300
      5 C5          2.7760   -1.2410    2.6770 c3        1 25D     -0.060300
      6 C6          3.6470    0.1040    0.7240 ca        1 25D      0.010600
      7 N7          4.7810    0.4940    1.4880 n         1 25D     -0.440100
      8 C8          5.8260   -0.4320    1.7150 c         1 25D      0.761100
      9 O9          5.6700   -1.6630    1.5680 o         1 25D     -0.599100
     10 N10         7.0620    0.0990    2.1600 n         1 25D     -0.494100
     11 C11         8.1040   -0.6830    2.6810 ca        1 25D      0.115600
     12 C12         7.9120   -1.9600    3.2010 ca        1 25D     -0.140000
     13 C13         8.9890   -2.7170    3.7180 ca        1 25D      0.017000
     14 C14        11.3740   -2.9270    4.2650 ca        1 25D     -0.103000
     15 C15        11.1500   -4.1820    4.7710 ca        1 25D     -0.125000
     16 C16         9.8430   -4.7350    4.7600 ca        1 25D     -0.098000
     17 C17         8.7880   -4.0240    4.2480 ca        1 25D     -0.127000
     18 C18        10.2970   -2.1690    3.7240 ca        1 25D     -0.072000
     19 C19        10.4960   -0.8790    3.1830 ca        1 25D     -0.050000
     20 C20         9.4450   -0.1460    2.6650 ca        1 25D     -0.216600
     21 C21         9.6870    1.1990    2.1050 c         1 25D      0.573700
     22 O22         9.0090    2.2020    2.3260 o         1 25D     -0.477100
     23 N23        10.8140    1.3150    1.1470 n4        1 25D     -0.653800
     24 C24        11.9080    2.3390    1.4480 c3        1 25D     -0.032800
     25 C25        11.3070    3.6960    1.7730 c3        1 25D     -0.100100
     26 C26        12.8200    1.8210    2.5720 c3        1 25D     -0.048700
     27 C27        13.6940    0.6680    2.0870 c3        1 25D     -0.085400
     28 C28        14.5790    0.1430    3.1990 c3        1 25D     -0.074400
     29 C29        15.4510    1.2440    3.7640 c3        1 25D     -0.078400
     30 C30        14.6110    2.4160    4.2250 c3        1 25D     -0.074400
     31 C31        13.7100    2.9320    3.1210 c3        1 25D     -0.085400
     32 C32        12.7220    2.5340    0.0450 c         1 25D      0.942600
     33 O33        13.7470    3.2310    0.1160 o         1 25D     -0.760300
     34 O34        12.1940    1.9750   -0.9490 o         1 25D     -0.760300
     35 C35         3.4780    0.5930   -0.5970 ca        1 25D     -0.058300
     36 C36         4.5030    1.4580   -1.2300 c3        1 25D     -0.060300
     37 C37         2.3260    0.2640   -1.3110 ca        1 25D     -0.129500
     38 H1          0.3340   -1.8270   -2.1390 hc        1 25D      0.047700
     39 H1A        -0.1520   -0.0830   -2.2310 hc        1 25D      0.047700
     40 H1B        -0.7360   -1.1170   -0.8590 hc        1 25D      0.047700
     41 H3          0.7320   -1.6670    0.9980 ha        1 25D      0.136500
     42 H5          2.9060   -0.4040    3.4070 hc        1 25D      0.049700
     43 H5A         1.8720   -1.8280    2.9720 hc        1 25D      0.049700
     44 H5B         3.6720   -1.9110    2.7440 hc        1 25D      0.049700
     45 HN7         5.0500    1.4440    1.3270 hn        1 25D      0.302500
     46 HN10        7.1130    1.0730    2.3750 hn        1 25D      0.331500
     47 H12         6.9060   -2.4180    3.2100 ha        1 25D      0.182000
     48 H14        12.3830   -2.4850    4.2660 ha        1 25D      0.141000
     49 H15        11.9770   -4.7750    5.1890 ha        1 25D      0.143000
     50 H16         9.6920   -5.7460    5.1690 ha        1 25D      0.143000
     51 H17         7.7710   -4.4470    4.2340 ha        1 25D      0.148000
     52 H19        11.5210   -0.4680    3.2040 ha        1 25D      0.154000
     53 HN23       10.4570    1.6000    0.2100 hn        1 25D      0.471800
     54 H25        10.5060    3.9710    1.0430 hc        1 25D      0.061033
     55 H25A       10.8770    3.7240    2.8030 hc        1 25D      0.061033
     56 H25B       12.1250    4.4570    1.6880 hc        1 25D      0.061033
     57 H26        12.1750    1.4630    3.4270 hc        1 25D      0.019700
     58 H27        14.3320    1.0380    1.2370 hc        1 25D      0.062950
     59 H27A       13.0730   -0.1780    1.6950 hc        1 25D      0.062950
     60 H28        15.2250   -0.6810    2.7990 hc        1 25D      0.035450
     61 H28A       13.9430   -0.2920    4.0140 hc        1 25D      0.035450
     62 H29        16.1720    1.5890    2.9760 hc        1 25D      0.046700
     63 H29A       16.0510    0.8470    4.6230 hc        1 25D      0.046700
     64 H30        15.2830    3.2470    4.5650 hc        1 25D      0.035450
     65 H30A       13.9890    2.1050    5.1050 hc        1 25D      0.035450
     66 H31        14.3230    3.3550    2.2790 hc        1 25D      0.062950
     67 H31A       13.0760    3.7570    3.5380 hc        1 25D      0.062950
     68 H36         4.5770    2.4380   -0.6950 hc        1 25D      0.049700
     69 H36A        5.5070    0.9640   -1.2100 hc        1 25D      0.049700
     70 H36B        4.2460    1.6690   -2.2980 hc        1 25D      0.049700
     71 H37         2.1960    0.6470   -2.3350 ha        1 25D      0.136500
     72 H232       11.2750    0.4080    1.0260 hn        1 25D      0.471800
@<TRIPOS>BOND
     1    1    2 1   
     2    1   38 1   
     3    1   39 1   
     4    1   40 1   
     5    2    3 ar  
     6    2   37 ar  
     7    3    4 ar  
     8    3   41 1   
     9    4    5 1   
    10    4    6 ar  
    11    5   42 1   
    12    5   43 1   
    13    5   44 1   
    14    6    7 1   
    15    6   35 ar  
    16    7    8 1   
    17    7   45 1   
    18    8    9 2   
    19    8   10 1   
    20   10   11 1   
    21   10   46 1   
    22   11   12 ar  
    23   11   20 ar  
    24   12   13 ar  
    25   12   47 1   
    26   13   17 ar  
    27   13   18 ar  
    28   14   15 ar  
    29   14   18 ar  
    30   14   48 1   
    31   15   16 ar  
    32   15   49 1   
    33   16   17 ar  
    34   16   50 1   
    35   17   51 1   
    36   18   19 ar  
    37   19   20 ar  
    38   19   52 1   
    39   20   21 1   
    40   21   22 2   
    41   21   23 1   
    42   23   24 1   
    43   23   53 1   
    44   23   72 1   
    45   24   25 1   
    46   24   26 1   
    47   24   32 1   
    48   25   54 1   
    49   25   55 1   
    50   25   56 1   
    51   26   27 1   
    52   26   31 1   
    53   26   57 1   
    54   27   28 1   
    55   27   58 1   
    56   27   59 1   
    57   28   29 1   
    58   28   60 1   
    59   28   61 1   
    60   29   30 1   
    61   29   62 1   
    62   29   63 1   
    63   30   31 1   
    64   30   64 1   
    65   30   65 1   
    66   31   66 1   
    67   31   67 1   
    68   32   33 1   
    69   32   34 1   
    70   35   36 1   
    71   35   37 ar  
    72   36   68 1   
    73   36   69 1   
    74   36   70 1   
    75   37   71 1   
@<TRIPOS>SUBSTRUCTURE
     1 25D         1 TEMP              0 ****  ****    0 ROOT
