@<TRIPOS>MOLECULE
25D
   71    74     1     0     0
SMALL
bcc


@<TRIPOS>ATOM
      1 C1          8.3360   -2.6810    0.0810 c3        1 25D     -0.047800
      2 C2          6.9630   -2.2230    0.3950 ca        1 25D     -0.081300
      3 C3          6.7500   -1.2050    1.3260 ca        1 25D     -0.133000
      4 C4          5.4630   -0.7500    1.6250 ca        1 25D     -0.063800
      5 C5          5.2910    0.3270    2.6290 c3        1 25D     -0.061300
      6 C6          4.3510   -1.3230    0.9640 ca        1 25D      0.035600
      7 N7          3.0320   -0.9260    1.3000 n         1 25D     -0.454100
      8 C8          2.5260    0.3230    0.8360 c         1 25D      0.766100
      9 O9          3.3020    1.2300    0.4550 o         1 25D     -0.629100
     10 N10         1.1380    0.4910    0.8970 n         1 25D     -0.478100
     11 C11         0.4360    1.6270    0.4700 ca        1 25D      0.119600
     12 C12         1.0180    2.8850    0.3660 ca        1 25D     -0.173000
     13 C13         0.2600    4.0120   -0.0360 ca        1 25D     -0.004000
     14 C14         0.8540    5.3020   -0.1430 ca        1 25D     -0.125000
     15 C15         0.1030    6.3850   -0.5250 ca        1 25D     -0.128000
     16 C16        -1.2740    6.2360   -0.8210 ca        1 25D     -0.150000
     17 C17        -1.8720    5.0030   -0.7280 ca        1 25D     -0.098000
     18 C18        -1.1170    3.8660   -0.3320 ca        1 25D     -0.066000
     19 C19        -1.7020    2.5760   -0.2340 ca        1 25D     -0.072000
     20 C20        -0.9650    1.4810    0.1470 ca        1 25D     -0.152600
     21 C21        -1.6410    0.1380    0.2420 c         1 25D      0.654700
     22 O22        -1.4810   -0.5700    1.2720 o         1 25D     -0.680100
     23 N23        -2.3730   -0.2470   -0.8360 n         1 25D     -0.502900
     24 C24        -3.2290   -1.4310   -0.9090 c3        1 25D     -0.021600
     25 C25        -2.4050   -2.7110   -0.7390 c3        1 25D     -0.085100
     26 C26        -4.3450   -1.3810    0.1740 c3        1 25D     -0.053700
     27 C27        -5.2600   -0.1840   -0.0540 c3        1 25D     -0.079400
     28 C28        -6.3980   -0.1390    0.9440 c3        1 25D     -0.070900
     29 C29        -7.1990   -1.4230    0.9180 c3        1 25D     -0.073400
     30 C30        -6.2990   -2.6130    1.1780 c3        1 25D     -0.070900
     31 C31        -5.1520   -2.6720    0.1900 c3        1 25D     -0.079400
     32 C32        -3.9160   -1.4740   -2.3490 c         1 25D      0.921600
     33 O33        -4.3300   -2.5890   -2.7530 o         1 25D     -0.822800
     34 O34        -4.0130   -0.3890   -2.9890 o         1 25D     -0.822800
     35 C35         4.5650   -2.3580    0.0170 ca        1 25D     -0.063800
     36 C36         3.4270   -2.9890   -0.6940 c3        1 25D     -0.061300
     37 C37         5.8630   -2.7950   -0.2480 ca        1 25D     -0.133000
     38 H1          8.7400   -2.1030   -0.7890 hc        1 25D      0.039367
     39 H1A         9.0200   -2.5260    0.9510 hc        1 25D      0.039367
     40 H1B         8.3440   -3.7660   -0.1870 hc        1 25D      0.039367
     41 H3          7.6120   -0.7510    1.8390 ha        1 25D      0.128500
     42 H5          4.8420    1.2320    2.1430 hc        1 25D      0.051033
     43 H5A         4.6050   -0.0060    3.4470 hc        1 25D      0.051033
     44 H5B         6.2700    0.6160    3.0850 hc        1 25D      0.051033
     45 HN7         2.3850   -1.6890    1.2950 hn        1 25D      0.302500
     46 HN10        0.5680   -0.2570    1.2480 hn        1 25D      0.359500
     47 H12         2.0890    3.0340    0.5860 ha        1 25D      0.167000
     48 H14         1.9250    5.4060    0.0850 ha        1 25D      0.131000
     49 H15         0.5600    7.3810   -0.6100 ha        1 25D      0.121000
     50 H16        -1.8530    7.1180   -1.1290 ha        1 25D      0.124000
     51 H17        -2.9390    4.8710   -0.9610 ha        1 25D      0.135000
     52 H19        -2.7750    2.4700   -0.4730 ha        1 25D      0.153000
     53 HN23       -2.5040    0.3890   -1.6000 hn        1 25D      0.342500
     54 H25        -2.0990   -2.8460    0.3260 hc        1 25D      0.036367
     55 H25A       -3.0250   -3.5790   -1.0740 hc        1 25D      0.036367
     56 H25B       -1.4900   -2.6800   -1.3770 hc        1 25D      0.036367
     57 H26        -3.8480   -1.2670    1.1800 hc        1 25D      0.045700
     58 H27        -4.6710    0.7670    0.0320 hc        1 25D      0.056700
     59 H27A       -5.6670   -0.2300   -1.1010 hc        1 25D      0.056700
     60 H28        -5.9890    0.0250    1.9750 hc        1 25D      0.022200
     61 H28A       -7.0690    0.7280    0.7060 hc        1 25D      0.022200
     62 H29        -8.0090   -1.3830    1.6910 hc        1 25D      0.028200
     63 H29A       -7.6890   -1.5380   -0.0840 hc        1 25D      0.028200
     64 H30        -5.8930   -2.5490    2.2220 hc        1 25D      0.022200
     65 H30A       -6.8970   -3.5580    1.1070 hc        1 25D      0.022200
     66 H31        -5.5370   -2.8760   -0.8470 hc        1 25D      0.056700
     67 H31A       -4.4840   -3.5260    0.4770 hc        1 25D      0.056700
     68 H36         2.8030   -2.2160   -1.2090 hc        1 25D      0.051033
     69 H36A        3.7870   -3.7110   -1.4680 hc        1 25D      0.051033
     70 H36B        2.7750   -3.5490    0.0230 hc        1 25D      0.051033
     71 H37         6.0220   -3.5990   -0.9830 ha        1 25D      0.128500
@<TRIPOS>BOND
     1    1    2 1   
     2    1   38 1   
     3    1   39 1   
     4    1   40 1   
     5    2    3 ar  
     6    2   37 ar  
     7    3    4 ar  
     8    3   41 1   
     9    4    5 1   
    10    4    6 ar  
    11    5   42 1   
    12    5   43 1   
    13    5   44 1   
    14    6    7 1   
    15    6   35 ar  
    16    7    8 1   
    17    7   45 1   
    18    8    9 2   
    19    8   10 1   
    20   10   11 1   
    21   10   46 1   
    22   11   12 ar  
    23   11   20 ar  
    24   12   13 ar  
    25   12   47 1   
    26   13   14 ar  
    27   13   18 ar  
    28   14   15 ar  
    29   14   48 1   
    30   15   16 ar  
    31   15   49 1   
    32   16   17 ar  
    33   16   50 1   
    34   17   18 ar  
    35   17   51 1   
    36   18   19 ar  
    37   19   20 ar  
    38   19   52 1   
    39   20   21 1   
    40   21   22 2   
    41   21   23 1   
    42   23   24 1   
    43   23   53 1   
    44   24   25 1   
    45   24   26 1   
    46   24   32 1   
    47   25   54 1   
    48   25   55 1   
    49   25   56 1   
    50   26   27 1   
    51   26   31 1   
    52   26   57 1   
    53   27   28 1   
    54   27   58 1   
    55   27   59 1   
    56   28   29 1   
    57   28   60 1   
    58   28   61 1   
    59   29   30 1   
    60   29   62 1   
    61   29   63 1   
    62   30   31 1   
    63   30   64 1   
    64   30   65 1   
    65   31   66 1   
    66   31   67 1   
    67   32   33 1   
    68   32   34 1   
    69   35   36 1   
    70   35   37 ar  
    71   36   68 1   
    72   36   69 1   
    73   36   70 1   
    74   37   71 1   
@<TRIPOS>SUBSTRUCTURE
     1 25D         1 TEMP              0 ****  ****    0 ROOT
