@<TRIPOS>MOLECULE
25E
   45    46     1     0     0
SMALL
bcc


@<TRIPOS>ATOM
      1 C1          0.2820   -0.1480    0.0790 c3        1 25E      0.340300
      2 C2          1.8340   -0.1370    0.1130 c3        1 25E      0.111100
      3 O2          2.2470   -1.3400   -0.4960 oh        1 25E     -0.635800
      4 C3          2.2370   -0.0350    1.5950 c3        1 25E      0.119100
      5 O3          3.6460    0.0440    1.5860 oh        1 25E     -0.589800
      6 C4          1.6100    1.2320    2.2170 c3        1 25E      0.079100
      7 O4          1.8830    1.1310    3.6000 oh        1 25E     -0.575800
      8 C5          0.0880    1.2430    1.9950 c3        1 25E      0.116100
      9 O5         -0.2140    1.0740    0.5870 os        1 25E     -0.428600
     10 C6         -0.5440    2.5880    2.3630 c3        1 25E      0.136400
     11 O6         -1.9450    2.4120    2.2690 oh        1 25E     -0.609800
     12 NAL        -0.2050   -0.2040   -1.3680 ny        1 25E     -0.602800
     13 CAM        -1.5560   -0.7960   -1.5280 c         1 25E      0.016400
     14 NAN        -1.9160   -1.0000   -3.0080 ny        1 25E     -0.311900
     15 SAO        -2.5370   -1.1800   -0.4500 s         1 25E      0.282600
     16 NAP        -1.5760    0.0870   -3.8220 n2        1 25E     -0.659400
     17 CAQ        -2.3600    0.6030   -4.7350 ce        1 25E      0.624800
     18 CAR        -3.6990    0.3330   -5.1770 ca        1 25E     -0.341900
     19 CAS        -4.7370   -0.1020   -4.3280 ca        1 25E     -0.027500
     20 CAT        -6.0100   -0.3250   -4.8190 ca        1 25E     -0.189000
     21 CAU        -6.2770   -0.1150   -6.1920 ca        1 25E      0.239100
     22 CAV        -5.2530    0.3450   -7.0540 ca        1 25E     -0.189000
     23 CAW        -3.9930    0.5800   -6.5420 ca        1 25E     -0.027500
     24 OAX        -7.4890   -0.3230   -6.7560 oh        1 25E     -0.436100
     25 H1         -0.1370   -1.0400    0.6350 hx        1 25E      0.120700
     26 H2          2.2520    0.7430   -0.4540 h1        1 25E      0.097700
     27 HO2         3.1600   -1.5190   -0.2090 ho        1 25E      0.486000
     28 H3          1.9030   -0.9470    2.1640 h1        1 25E      0.083700
     29 HO3         3.9350    0.1070    2.5100 ho        1 25E      0.460000
     30 H4          2.0800    2.1490    1.7670 h1        1 25E      0.084700
     31 HO4         1.9240    2.0260    3.9640 ho        1 25E      0.438000
     32 H5         -0.4040    0.4110    2.5720 h1        1 25E      0.095700
     33 H6         -0.2160    3.3890    1.6490 h1        1 25E      0.064200
     34 H6A        -0.2280    2.8460    3.4100 h1        1 25E      0.064200
     35 HO6        -2.3560    3.1060    2.8030 ho        1 25E      0.437000
     36 HNAL        0.5030   -0.7440   -1.8990 hn        1 25E      0.497800
     37 HNAN       -1.3630   -1.8080   -3.3590 hn        1 25E      0.467300
     38 HAQ        -1.8000    1.3990   -5.3020 h4        1 25E      0.097800
     39 HAS        -4.5770   -0.2040   -3.2440 ha        1 25E      0.136000
     40 HAT        -6.8230   -0.6470   -4.1470 ha        1 25E      0.184500
     41 HAV        -5.4850    0.5190   -8.1190 ha        1 25E      0.184500
     42 HAW        -3.1990    0.9530   -7.2130 ha        1 25E      0.136000
     43 HOAX       -8.1270   -0.6120   -6.0800 ho        1 25E      0.458000
     44 HAL2       -0.2160    0.7690   -1.7290 hn        1 25E      0.497800
     45 HAN2       -2.9220   -1.2720   -3.0240 hn        1 25E      0.467300
@<TRIPOS>BOND
     1    1    2 1   
     2    1    9 1   
     3    1   12 1   
     4    1   25 1   
     5    2    3 1   
     6    2    4 1   
     7    2   26 1   
     8    3   27 1   
     9    4    5 1   
    10    4    6 1   
    11    4   28 1   
    12    5   29 1   
    13    6    7 1   
    14    6    8 1   
    15    6   30 1   
    16    7   31 1   
    17    8    9 1   
    18    8   10 1   
    19    8   32 1   
    20   10   11 1   
    21   10   33 1   
    22   10   34 1   
    23   11   35 1   
    24   12   13 1   
    25   12   36 1   
    26   12   44 1   
    27   13   14 1   
    28   13   15 2   
    29   14   16 1   
    30   14   37 1   
    31   14   45 1   
    32   16   17 2   
    33   17   18 1   
    34   17   38 1   
    35   18   19 ar  
    36   18   23 ar  
    37   19   20 ar  
    38   19   39 1   
    39   20   21 ar  
    40   20   40 1   
    41   21   22 ar  
    42   21   24 1   
    43   22   23 ar  
    44   22   41 1   
    45   23   42 1   
    46   24   43 1   
@<TRIPOS>SUBSTRUCTURE
     1 25E         1 TEMP              0 ****  ****    0 ROOT
