@<TRIPOS>MOLECULE
25E
   45    46     1     0     0
SMALL
bcc


@<TRIPOS>ATOM
      1 C1          0.2610   -0.1500    0.0800 c3        1 25E      0.340300
      2 C2          1.8130   -0.1830    0.1170 c3        1 25E      0.111100
      3 O2          2.1920   -1.4000   -0.4880 oh        1 25E     -0.635800
      4 C3          2.2170   -0.0870    1.5980 c3        1 25E      0.119100
      5 O3          3.6280   -0.0490    1.5910 oh        1 25E     -0.589800
      6 C4          1.6270    1.1990    2.2150 c3        1 25E      0.079100
      7 O4          1.8940    1.0960    3.5990 oh        1 25E     -0.575800
      8 C5          0.1050    1.2540    1.9900 c3        1 25E      0.116100
      9 O5         -0.2000    1.0890    0.5830 os        1 25E     -0.428600
     10 C6         -0.4880    2.6180    2.3530 c3        1 25E      0.136400
     11 O6         -1.8930    2.4820    2.2580 oh        1 25E     -0.609800
     12 NAL        -0.2250   -0.1970   -1.3670 n4        1 25E     -0.602800
     13 CAM        -1.5930   -0.7500   -1.5270 c         1 25E      0.016400
     14 NAN        -1.9570   -0.9490   -3.0060 n4        1 25E     -0.311900
     15 SAO        -2.5850   -1.1020   -0.4490 s         1 25E      0.282600
     16 NAP        -1.5850    0.1250   -3.8240 n2        1 25E     -0.659400
     17 CAQ        -2.3530    0.6600   -4.7390 ce        1 25E      0.624800
     18 CAR        -3.6990    0.4280   -5.1810 ca        1 25E     -0.341900
     19 CAS        -4.7500    0.0260   -4.3320 ca        1 25E     -0.027500
     20 CAT        -6.0280   -0.1610   -4.8230 ca        1 25E     -0.189000
     21 CAU        -6.2870    0.0510   -6.1970 ca        1 25E      0.239100
     22 CAV        -5.2510    0.4790   -7.0590 ca        1 25E     -0.189000
     23 CAW        -3.9840    0.6790   -6.5470 ca        1 25E     -0.027500
     24 OAX        -7.5040   -0.1220   -6.7620 oh        1 25E     -0.436100
     25 H1         -0.1830   -1.0270    0.6390 hx        1 25E      0.120700
     26 H2          2.2570    0.6820   -0.4530 h1        1 25E      0.097700
     27 HO2         3.0990   -1.6040   -0.1990 ho        1 25E      0.486000
     28 H3          1.8560   -0.9880    2.1710 h1        1 25E      0.083700
     29 HO3         3.9180    0.0090    2.5150 ho        1 25E      0.460000
     30 H4          2.1230    2.1010    1.7620 h1        1 25E      0.084700
     31 HO4         1.9610    1.9910    3.9590 ho        1 25E      0.438000
     32 H5         -0.4110    0.4390    2.5710 h1        1 25E      0.095700
     33 H6         -0.1360    3.4070    1.6360 h1        1 25E      0.064200
     34 H6A        -0.1650    2.8700    3.3990 h1        1 25E      0.064200
     35 HO6        -2.2850    3.1890    2.7880 ho        1 25E      0.437000
     36 HNAL       -0.2070    0.7750   -1.7320 hn        1 25E      0.497800
     37 HNAN       -1.4270   -1.7730   -3.3540 hn        1 25E      0.467300
     38 HAQ        -1.7700    1.4380   -5.3090 h4        1 25E      0.097800
     39 HAS        -4.5940   -0.0770   -3.2480 ha        1 25E      0.136000
     40 HAT        -6.8500   -0.4570   -4.1510 ha        1 25E      0.184500
     41 HAV        -5.4770    0.6560   -8.1260 ha        1 25E      0.184500
     42 HAW        -3.1790    1.0270   -7.2190 ha        1 25E      0.136000
     43 HOAX       -8.1510   -0.3910   -6.0850 ho        1 25E      0.458000
     44 HAL2        0.4670   -0.7590   -1.8950 hn        1 25E      0.497800
     45 HAN2       -2.9700   -1.1920   -3.0230 hn        1 25E      0.467300
@<TRIPOS>BOND
     1    1    2 1   
     2    1    9 1   
     3    1   12 1   
     4    1   25 1   
     5    2    3 1   
     6    2    4 1   
     7    2   26 1   
     8    3   27 1   
     9    4    5 1   
    10    4    6 1   
    11    4   28 1   
    12    5   29 1   
    13    6    7 1   
    14    6    8 1   
    15    6   30 1   
    16    7   31 1   
    17    8    9 1   
    18    8   10 1   
    19    8   32 1   
    20   10   11 1   
    21   10   33 1   
    22   10   34 1   
    23   11   35 1   
    24   12   13 1   
    25   12   36 1   
    26   12   44 1   
    27   13   14 1   
    28   13   15 2   
    29   14   16 1   
    30   14   37 1   
    31   14   45 1   
    32   16   17 2   
    33   17   18 1   
    34   17   38 1   
    35   18   19 ar  
    36   18   23 ar  
    37   19   20 ar  
    38   19   39 1   
    39   20   21 ar  
    40   20   40 1   
    41   21   22 ar  
    42   21   24 1   
    43   22   23 ar  
    44   22   41 1   
    45   23   42 1   
    46   24   43 1   
@<TRIPOS>SUBSTRUCTURE
     1 25E         1 TEMP              0 ****  ****    0 ROOT
