@<TRIPOS>MOLECULE
25E
   43    44     1     0     0
SMALL
bcc


@<TRIPOS>ATOM
      1 C1         -2.1410   -0.4130   -0.2830 c3        1 25E      0.235500
      2 C2         -3.1310   -1.6110   -0.2320 c3        1 25E      0.090100
      3 O2         -2.8790   -2.5500   -1.2600 oh        1 25E     -0.599800
      4 C3         -4.5540   -1.0880   -0.4960 c3        1 25E      0.108100
      5 O3         -5.5090   -2.1130   -0.2880 oh        1 25E     -0.607800
      6 C4         -4.8980    0.0350    0.4950 c3        1 25E      0.117100
      7 O4         -6.1400    0.6290    0.1620 oh        1 25E     -0.593800
      8 C5         -3.8230    1.1330    0.4100 c3        1 25E      0.149100
      9 O5         -2.5490    0.5570    0.7030 os        1 25E     -0.439600
     10 C6         -4.0590    2.2090    1.4730 c3        1 25E      0.135400
     11 O6         -3.4790    3.4050    0.9810 oh        1 25E     -0.594800
     12 NAL        -0.7920   -0.8120    0.0740 n         1 25E     -0.479900
     13 CAM         0.2750   -0.3260   -0.6750 c         1 25E      0.580400
     14 NAN         1.5670   -0.2800   -0.1130 n         1 25E     -0.294900
     15 SAO         0.1520    0.1350   -2.2230 s         1 25E     -0.538400
     16 NAP         1.8660   -0.7060    1.1150 n2        1 25E     -0.480300
     17 CAQ         3.0800   -0.7120    1.5820 ce        1 25E      0.405800
     18 CAR         4.3410   -0.3130    0.9570 ca        1 25E     -0.218900
     19 CAS         4.4680    0.9010    0.2720 ca        1 25E     -0.074000
     20 CAT         5.6840    1.2650   -0.3000 ca        1 25E     -0.185000
     21 CAU         6.7840    0.4030   -0.1840 ca        1 25E      0.141100
     22 CAV         6.6730   -0.8150    0.5100 ca        1 25E     -0.185000
     23 CAW         5.4540   -1.1600    1.0780 ca        1 25E     -0.074000
     24 OAX         8.0140    0.6900   -0.7230 oh        1 25E     -0.491100
     25 H1         -2.1500    0.0510   -1.3200 h2        1 25E      0.123700
     26 H2         -3.0890   -2.1180    0.7710 h1        1 25E      0.060700
     27 HO2        -1.9600   -2.8330   -1.1820 ho        1 25E      0.425000
     28 H3         -4.6280   -0.7110   -1.5540 h1        1 25E      0.070700
     29 HO3        -5.2650   -2.8420   -0.8740 ho        1 25E      0.429000
     30 H4         -4.9460   -0.3860    1.5380 h1        1 25E      0.059700
     31 HO4        -6.7770   -0.0950    0.0900 ho        1 25E      0.426000
     32 H5         -3.8130    1.5970   -0.6150 h1        1 25E      0.086700
     33 H6         -5.1650    2.3480    1.6110 h1        1 25E      0.047200
     34 H6A        -3.5820    1.9080    2.4430 h1        1 25E      0.047200
     35 HO6        -3.5220    4.0460    1.7000 ho        1 25E      0.403000
     36 HNAL       -0.6670   -0.9430    1.0600 hn        1 25E      0.324500
     37 HNAN        2.2940   -0.0710   -0.7870 hn        1 25E      0.342500
     38 HAQ         3.1530   -1.0980    2.6200 h4        1 25E      0.040800
     39 HAS         3.6140    1.5930    0.1980 ha        1 25E      0.143000
     40 HAT         5.7800    2.2190   -0.8370 ha        1 25E      0.149500
     41 HAV         7.5500   -1.4730    0.5930 ha        1 25E      0.149500
     42 HAW         5.3580   -2.1100    1.6260 ha        1 25E      0.143000
     43 HOAX        7.9530    1.5450   -1.1750 ho        1 25E      0.424000
@<TRIPOS>BOND
     1    1    2 1   
     2    1    9 1   
     3    1   12 1   
     4    1   25 1   
     5    2    3 1   
     6    2    4 1   
     7    2   26 1   
     8    3   27 1   
     9    4    5 1   
    10    4    6 1   
    11    4   28 1   
    12    5   29 1   
    13    6    7 1   
    14    6    8 1   
    15    6   30 1   
    16    7   31 1   
    17    8    9 1   
    18    8   10 1   
    19    8   32 1   
    20   10   11 1   
    21   10   33 1   
    22   10   34 1   
    23   11   35 1   
    24   12   13 1   
    25   12   36 1   
    26   13   14 1   
    27   13   15 2   
    28   14   16 1   
    29   14   37 1   
    30   16   17 2   
    31   17   18 1   
    32   17   38 1   
    33   18   19 ar  
    34   18   23 ar  
    35   19   20 ar  
    36   19   39 1   
    37   20   21 ar  
    38   20   40 1   
    39   21   22 ar  
    40   21   24 1   
    41   22   23 ar  
    42   22   41 1   
    43   23   42 1   
    44   24   43 1   
@<TRIPOS>SUBSTRUCTURE
     1 25E         1 TEMP              0 ****  ****    0 ROOT
