@<TRIPOS>MOLECULE
25E
   43    41     1     0     0
SMALL
bcc


@<TRIPOS>ATOM
      1 C1          1.8480   -0.6680   -0.7850 c3        1 25E      0.088000
      2 C2          3.1980   -0.2510   -0.8830 c3        1 25E     -0.021000
      3 O2          3.9350   -1.2220   -1.8430 oh        1 25E     -0.324000
      4 C3          3.8880   -0.2340    0.3330 c3        1 25E     -0.005000
      5 O3          3.3340    0.8630    1.1790 oh        1 25E     -0.329000
      6 C4          3.7880   -1.5250    1.1010 c3        1 25E      0.023000
      7 O4          4.4580   -2.5190    0.3890 oh        1 25E     -0.315000
      8 C5          2.3090   -2.0080    1.3660 c3        1 25E     -0.046000
      9 O5          1.6710   -1.9540   -0.0750 os        1 25E     -0.282000
     10 C6          1.6770   -1.1790    2.2030 c3        1 25E     -0.054000
     11 O6          0.2830   -1.5440    2.2870 oh        1 25E     -0.347000
     12 NAL         1.0890    0.3650   -0.0730 n         1 25E     -0.327000
     13 CAM         0.2010    1.2680   -0.8150 c2        1 25E      0.150000
     14 NAN        -0.9270    1.8460   -0.1590 n         1 25E     -0.285000
     15 SAO         0.6520    1.8170   -2.3300 s         1 25E     -0.188000
     16 NAP        -1.4480    3.0690   -0.6160 n2        1 25E      0.011000
     17 CAQ        -2.7490    3.1620   -0.9640 c1        1 25E     -0.126000
     18 CAR        -3.6610    1.9330   -0.8590 c1        1 25E     -0.123000
     19 CAS        -4.2820    1.4150   -2.0090 c2        1 25E     -0.066000
     20 CAT        -5.1070    0.2900   -1.9130 c1        1 25E     -0.213000
     21 CAU        -5.3150   -0.3190   -0.6780 c1        1 25E      0.090000
     22 CAV        -4.6960    0.1980    0.4730 c1        1 25E     -0.155000
     23 CAW        -3.8680    1.3270    0.3750 c1        1 25E     -0.088000
     24 OAX        -6.2320   -1.4200   -0.5690 oh        1 25E     -0.248000
     25 H1          1.4760   -0.7590   -1.7070 h2        1 25E      0.173000
     26 H2          3.2200    0.6440   -1.2650 h1        1 25E      0.106000
     27 HO2         3.9810   -0.8630   -2.6470 ho        1 25E      0.222000
     28 H3          4.8290   -0.0460    0.1550 h1        1 25E      0.116000
     29 HO3         3.9840    1.2520    1.6130 ho        1 25E      0.216000
     30 H4          4.2320   -1.4070    1.9600 h1        1 25E      0.137000
     31 HO4         5.1090   -2.8780    0.9100 ho        1 25E      0.226000
     32 H5          2.3020   -2.9430    1.7200 h1        1 25E      0.134000
     33 H6          2.0850   -1.2410    3.0960 h1        1 25E      0.102000
     34 H6A         1.7560   -0.2560    1.8700 h1        1 25E      0.102000
     35 HO6        -0.0570   -1.2560    3.0840 ho        1 25E      0.219000
     36 HNAL        1.1890    0.4630    0.8020 hn        1 25E      0.218000
     37 HNAN       -1.2300    1.4890    0.6070 hn        1 25E      0.238000
     38 HAQ        -3.1030    3.9970   -1.2770 ha        1 25E      0.175000
     39 HAS        -4.1290    1.8640   -2.9240 ha        1 25E      0.141000
     40 HAT        -5.5530   -0.0800   -2.7400 ha        1 25E      0.138000
     41 HAV        -4.8430   -0.2350    1.3500 ha        1 25E      0.154000
     42 HAW        -3.4320    1.6940    1.1850 ha        1 25E      0.139000
     43 HOAX       -5.8640   -2.1490   -0.9280 ho        1 25E      0.221000
@<TRIPOS>BOND
     1    1    2 1   
     2    1    9 1   
     3    1   12 1   
     4    1   25 1   
     5    2    3 1   
     6    2    4 1   
     7    2   26 1   
     8    3   27 1   
     9    4    5 1   
    10    4    6 1   
    11    4   28 1   
    12    5   29 1   
    13    6    7 1   
    14    6    8 1   
    15    6   30 1   
    16    7   31 1   
    17    8    9 1   
    18    8   10 1   
    19    8   32 1   
    20   10   11 1   
    21   10   33 1   
    22   10   34 1   
    23   11   35 1   
    24   12   13 1   
    25   12   36 1   
    26   13   14 1   
    27   13   15 1   
    28   14   16 1   
    29   14   37 1   
    30   16   17 1   
    31   17   38 1   
    32   18   19 1   
    33   18   23 1   
    34   19   20 1   
    35   19   39 1   
    36   20   40 1   
    37   21   22 1   
    38   21   24 1   
    39   22   41 1   
    40   23   42 1   
    41   24   43 1   
@<TRIPOS>SUBSTRUCTURE
     1 25E         1 TEMP              0 ****  ****    0 ROOT
