@<TRIPOS>MOLECULE
25E
   45    46     1     0     0
SMALL
bcc


@<TRIPOS>ATOM
      1 C1          0.2600   -0.1410    0.0840 c3        1 25E      0.341300
      2 C2          1.8120   -0.1740    0.1180 c3        1 25E      0.111100
      3 O2          2.1910   -1.3900   -0.4870 oh        1 25E     -0.635800
      4 C3          2.2180   -0.0780    1.5990 c3        1 25E      0.119100
      5 O3          3.6280   -0.0400    1.5900 oh        1 25E     -0.589800
      6 C4          1.6280    1.2080    2.2160 c3        1 25E      0.079100
      7 O4          1.8970    1.1050    3.6000 oh        1 25E     -0.575800
      8 C5          0.1060    1.2630    1.9940 c3        1 25E      0.116100
      9 O5         -0.2010    1.0970    0.5860 os        1 25E     -0.428600
     10 C6         -0.4870    2.6270    2.3570 c3        1 25E      0.136400
     11 O6         -1.8920    2.4910    2.2630 oh        1 25E     -0.608800
     12 NAL        -0.2290   -0.1880   -1.3630 n4        1 25E     -0.602800
     13 CAM        -1.5950   -0.7450   -1.5220 c         1 25E      0.017400
     14 NAN        -1.9590   -0.9470   -3.0010 n4        1 25E     -0.311900
     15 SAO        -2.5860   -1.0960   -0.4430 s         1 25E      0.282600
     16 NAP        -1.5890    0.1270   -3.8200 n2        1 25E     -0.659400
     17 CAQ        -2.3570    0.6560   -4.7390 ce        1 25E      0.624800
     18 CAR        -3.7000    0.4170   -5.1840 ca        1 25E     -0.341900
     19 CAS        -4.7520    0.0130   -4.3370 ca        1 25E     -0.027500
     20 CAT        -6.0290   -0.1810   -4.8310 ca        1 25E     -0.189000
     21 CAU        -6.2850    0.0270   -6.2060 ca        1 25E      0.239100
     22 CAV        -5.2470    0.4570   -7.0670 ca        1 25E     -0.189000
     23 CAW        -3.9830    0.6630   -6.5520 ca        1 25E     -0.027500
     24 OAX        -7.4990   -0.1530   -6.7740 oh        1 25E     -0.436100
     25 H1         -0.1840   -1.0180    0.6430 hx        1 25E      0.120700
     26 H2          2.2550    0.6920   -0.4520 h1        1 25E      0.097700
     27 HO2         3.0980   -1.5950   -0.2000 ho        1 25E      0.486000
     28 H3          1.8570   -0.9780    2.1720 h1        1 25E      0.083700
     29 HO3         3.9190    0.0190    2.5140 ho        1 25E      0.460000
     30 H4          2.1230    2.1110    1.7630 h1        1 25E      0.084700
     31 HO4         1.9640    2.0000    3.9600 ho        1 25E      0.438000
     32 H5         -0.4090    0.4480    2.5750 h1        1 25E      0.095700
     33 H6         -0.1630    2.8790    3.4020 h1        1 25E      0.064200
     34 H6A        -0.1350    3.4160    1.6400 h1        1 25E      0.064200
     35 HO6        -2.2830    3.1990    2.7930 ho        1 25E      0.437000
     36 HNAL        0.4650   -0.7480   -1.8930 hn        1 25E      0.498300
     37 HNAN       -2.9710   -1.1920   -3.0160 hn        1 25E      0.467300
     38 HAQ        -1.7750    1.4350   -5.3090 h4        1 25E      0.097800
     39 HAS        -4.5990   -0.0870   -3.2520 ha        1 25E      0.136000
     40 HAT        -6.8510   -0.4780   -4.1610 ha        1 25E      0.184500
     41 HAV        -5.4710    0.6300   -8.1340 ha        1 25E      0.184500
     42 HAW        -3.1780    1.0130   -7.2220 ha        1 25E      0.136000
     43 HOAX       -8.1470   -0.4230   -6.0980 ho        1 25E      0.458000
     44 HAL2       -0.2140    0.7840   -1.7280 hn        1 25E      0.498300
     45 HAN2       -1.4270   -1.7710   -3.3460 hn        1 25E      0.467300
@<TRIPOS>BOND
     1    1    2 1   
     2    1    9 1   
     3    1   12 1   
     4    1   25 1   
     5    2    3 1   
     6    2    4 1   
     7    2   26 1   
     8    3   27 1   
     9    4    5 1   
    10    4    6 1   
    11    4   28 1   
    12    5   29 1   
    13    6    7 1   
    14    6    8 1   
    15    6   30 1   
    16    7   31 1   
    17    8    9 1   
    18    8   10 1   
    19    8   32 1   
    20   10   11 1   
    21   10   33 1   
    22   10   34 1   
    23   11   35 1   
    24   12   13 1   
    25   12   36 1   
    26   12   44 1   
    27   13   14 1   
    28   13   15 2   
    29   14   16 1   
    30   14   37 1   
    31   14   45 1   
    32   16   17 2   
    33   17   18 1   
    34   17   38 1   
    35   18   19 ar  
    36   18   23 ar  
    37   19   20 ar  
    38   19   39 1   
    39   20   21 ar  
    40   20   40 1   
    41   21   22 ar  
    42   21   24 1   
    43   22   23 ar  
    44   22   41 1   
    45   23   42 1   
    46   24   43 1   
@<TRIPOS>SUBSTRUCTURE
     1 25E         1 TEMP              0 ****  ****    0 ROOT
