@<TRIPOS>MOLECULE
25F
   27    23     1     0     0
SMALL
bcc


@<TRIPOS>ATOM
      1 C          -2.7310   -0.0660   -3.8380 c1        1 25F     -0.151000
      2 N           0.9710   -0.0070   -0.1680 n1        1 25F     -0.184000
      3 O          -1.0580   -0.0050    3.4250 o         1 25F     -0.346000
      4 BR         -3.5940   -0.1720   -5.5820 br        1 25F      0.065000
      5 C1         -2.4160    1.1430   -3.2330 c1        1 25F     -0.108000
      6 N1         -1.1680    0.0680    1.1240 n         1 25F     -0.334000
      7 C2         -1.6900    1.1560   -2.0370 c1        1 25F     -0.112000
      8 C3         -1.3060    0.0250   -1.4890 c1        1 25F     -0.052000
      9 C4         -1.6150   -1.1670   -2.0860 c1        1 25F     -0.079000
     10 C5         -2.3450   -1.1880   -3.2870 c2        1 25F     -0.110000
     11 C6         -0.4770    0.0380   -0.1340 c2        1 25F      0.161000
     12 C7          1.7300   -0.0190    1.0710 c1        1 25F      0.040000
     13 C8          1.0710    0.0020    2.2860 c2        1 25F     -0.167000
     14 C9          1.8010    0.0340    3.4700 c1        1 25F     -0.060000
     15 C10         3.1580    0.0440    3.4270 c1        1 25F     -0.123000
     16 C11         3.8080    0.0230    2.2140 c1        1 25F     -0.123000
     17 C12         3.0780   -0.0090    1.0310 c1        1 25F     -0.121000
     18 C13        -0.4460    0.0520    2.3190 c2        1 25F      0.345000
     19 H1         -2.6820    1.9210   -3.6110 ha        1 25F      0.153000
     20 HN1        -2.0540    0.0950    1.1420 hn        1 25F      0.253000
     21 H2         -1.4670    2.0020   -1.6110 ha        1 25F      0.145000
     22 H4         -1.3120   -2.0480   -1.6530 ha        1 25F      0.159000
     23 H5         -2.5670   -2.0540   -3.7170 ha        1 25F      0.154000
     24 H9          1.3120    0.0540    4.3810 ha        1 25F      0.159000
     25 H10         3.6690    0.0650    4.2550 ha        1 25F      0.139500
     26 H11         4.7630    0.0290    2.1820 ha        1 25F      0.139500
     27 H12         3.5680   -0.0200    0.1190 ha        1 25F      0.154000
@<TRIPOS>BOND
     1    1    5 1   
     2    1   10 1   
     3    2   11 1   
     4    3   18 1   
     5    5   19 1   
     6    6   11 1   
     7    6   18 1   
     8    6   20 1   
     9    7    8 1   
    10    7   21 1   
    11    8   11 1   
    12    9   10 1   
    13    9   22 1   
    14   10   23 1   
    15   12   13 1   
    16   12   17 1   
    17   13   14 1   
    18   13   18 1   
    19   14   24 1   
    20   15   16 1   
    21   15   25 1   
    22   16   26 1   
    23   17   27 1   
@<TRIPOS>SUBSTRUCTURE
     1 25F         1 TEMP              0 ****  ****    0 ROOT
