@<TRIPOS>MOLECULE
25F
   27    29     1     0     0
SMALL
bcc


@<TRIPOS>ATOM
      1 C          -3.0960    0.0020    0.0590 ca        1 25F     -0.010900
      2 N           1.8740    0.9400    0.2340 nc        1 25F     -0.611100
      3 O           3.6090   -2.6330   -0.8370 o         1 25F     -0.621500
      4 BR         -4.9660    0.0650    0.1080 br        1 25F     -0.075100
      5 C1         -2.3770    1.0170   -0.5790 ca        1 25F     -0.109000
      6 N1          1.7510   -1.3730   -0.4330 n         1 25F     -0.494400
      7 C2         -0.9840    0.9690   -0.6180 ca        1 25F     -0.095500
      8 C3         -0.3060   -0.0990   -0.0210 ca        1 25F     -0.135900
      9 C4         -1.0240   -1.1110    0.6250 ca        1 25F     -0.095500
     10 C5         -2.4160   -1.0600    0.6640 ca        1 25F     -0.109000
     11 C6          1.1820   -0.1470   -0.0650 cd        1 25F      0.539500
     12 C7          3.2720    0.8650    0.1860 ca        1 25F      0.179400
     13 C8          3.9440   -0.3340   -0.1740 ca        1 25F     -0.187600
     14 C9          5.3430   -0.3870   -0.2150 ca        1 25F     -0.060000
     15 C10         6.0850    0.7420    0.0990 ca        1 25F     -0.151000
     16 C11         5.4350    1.9310    0.4560 ca        1 25F     -0.095000
     17 C12         4.0520    2.0050    0.5030 ca        1 25F     -0.121000
     18 C13         3.1450   -1.5280   -0.5060 c         1 25F      0.708100
     19 H1         -2.9020    1.8610   -1.0520 ha        1 25F      0.153500
     20 HN1         1.1630   -2.1440   -0.6600 hn        1 25F      0.339500
     21 H2         -0.4220    1.7770   -1.1130 ha        1 25F      0.152000
     22 H4         -0.5010   -1.9440    1.1200 ha        1 25F      0.152000
     23 H5         -2.9730   -1.8610    1.1770 ha        1 25F      0.153500
     24 H9          5.8330   -1.3330   -0.4990 ha        1 25F      0.159000
     25 H10         7.1840    0.7070    0.0680 ha        1 25F      0.141000
     26 H11         6.0350    2.8210    0.7040 ha        1 25F      0.138000
     27 H12         3.5530    2.9450    0.7860 ha        1 25F      0.154000
@<TRIPOS>BOND
     1    1    4 1   
     2    1    5 ar  
     3    1   10 ar  
     4    2   11 2   
     5    2   12 1   
     6    3   18 2   
     7    5    7 ar  
     8    5   19 1   
     9    6   11 1   
    10    6   18 1   
    11    6   20 1   
    12    7    8 ar  
    13    7   21 1   
    14    8    9 ar  
    15    8   11 1   
    16    9   10 ar  
    17    9   22 1   
    18   10   23 1   
    19   12   13 ar  
    20   12   17 ar  
    21   13   14 ar  
    22   13   18 1   
    23   14   15 ar  
    24   14   24 1   
    25   15   16 ar  
    26   15   25 1   
    27   16   17 ar  
    28   16   26 1   
    29   17   27 1   
@<TRIPOS>SUBSTRUCTURE
     1 25F         1 TEMP              0 ****  ****    0 ROOT
