@<TRIPOS>MOLECULE
25F
   27    29     1     0     0
SMALL
bcc


@<TRIPOS>ATOM
      1 C          -0.0730    0.0600   -0.0210 ca        1 25F     -0.010900
      2 N           3.4600    0.2310    3.5980 nc        1 25F     -0.611100
      3 O           1.4410   -0.8270    7.0230 o         1 25F     -0.621500
      4 BR         -1.0560    0.1100   -1.6130 br        1 25F     -0.075100
      5 C1          1.1670   -0.5820    0.0170 ca        1 25F     -0.109000
      6 N1          1.4630   -0.4280    4.7770 n         1 25F     -0.494400
      7 C2          1.8990   -0.6210    1.2030 ca        1 25F     -0.095500
      8 C3          1.3870   -0.0200    2.3580 ca        1 25F     -0.135900
      9 C4          0.1480    0.6300    2.3190 ca        1 25F     -0.095500
     10 C5         -0.5800    0.6690    1.1320 ca        1 25F     -0.109000
     11 C6          2.1710   -0.0640    3.6240 cd        1 25F      0.539500
     12 C7          4.1710    0.1820    4.8040 ca        1 25F      0.179400
     13 C8          3.5440   -0.1730    6.0280 ca        1 25F     -0.187600
     14 C9          4.2740   -0.2140    7.2230 ca        1 25F     -0.060000
     15 C10         5.6260    0.0950    7.2150 ca        1 25F     -0.151000
     16 C11         6.2580    0.4480    6.0140 ca        1 25F     -0.095000
     17 C12         5.5540    0.4940    4.8220 ca        1 25F     -0.121000
     18 C13         2.1060   -0.5000    6.0240 c         1 25F      0.708100
     19 H1          1.5790   -1.0580   -0.8870 ha        1 25F      0.153500
     20 HN1         0.4950   -0.6520    4.7150 hn        1 25F      0.339500
     21 H2          2.8810   -1.1190    1.2250 ha        1 25F      0.152000
     22 H4         -0.2530    1.1280    3.2150 ha        1 25F      0.152000
     23 H5         -1.5530    1.1850    1.1100 ha        1 25F      0.153500
     24 H9          3.7560   -0.4940    8.1550 ha        1 25F      0.159000
     25 H10         6.2050    0.0640    8.1490 ha        1 25F      0.141000
     26 H11         7.3320    0.6920    6.0210 ha        1 25F      0.138000
     27 H12         6.0610    0.7740    3.8850 ha        1 25F      0.154000
@<TRIPOS>BOND
     1    1    4 1   
     2    1    5 ar  
     3    1   10 ar  
     4    2   11 2   
     5    2   12 1   
     6    3   18 2   
     7    5    7 ar  
     8    5   19 1   
     9    6   11 1   
    10    6   18 1   
    11    6   20 1   
    12    7    8 ar  
    13    7   21 1   
    14    8    9 ar  
    15    8   11 1   
    16    9   10 ar  
    17    9   22 1   
    18   10   23 1   
    19   12   13 ar  
    20   12   17 ar  
    21   13   14 ar  
    22   13   18 1   
    23   14   15 ar  
    24   14   24 1   
    25   15   16 ar  
    26   15   25 1   
    27   16   17 ar  
    28   16   26 1   
    29   17   27 1   
@<TRIPOS>SUBSTRUCTURE
     1 25F         1 TEMP              0 ****  ****    0 ROOT
