@<TRIPOS>MOLECULE
25F
   27    29     1     0     0
SMALL
bcc


@<TRIPOS>ATOM
      1 C          -0.0730    0.0460   -0.0220 ca        1 25F     -0.010900
      2 N           3.4590    0.2330    3.5980 nc        1 25F     -0.611100
      3 O           1.4430   -0.8250    7.0240 o         1 25F     -0.621500
      4 Br         -1.0550    0.0890   -1.6140 br        1 25F     -0.075100
      5 C1          1.1700   -0.5920    0.0170 ca        1 25F     -0.109000
      6 N1          1.4640   -0.4300    4.7770 ns        1 25F     -0.494400
      7 C2          1.9020   -0.6270    1.2040 ca        1 25F     -0.095500
      8 C3          1.3870   -0.0260    2.3580 ca        1 25F     -0.135900
      9 C4          0.1460    0.6190    2.3180 ca        1 25F     -0.095500
     10 C5         -0.5810    0.6550    1.1300 ca        1 25F     -0.109000
     11 C6          2.1710   -0.0660    3.6240 cd        1 25F      0.539500
     12 C7          4.1710    0.1890    4.8040 ca        1 25F      0.179400
     13 C8          3.5440   -0.1660    6.0290 ca        1 25F     -0.187600
     14 C9          4.2740   -0.2030    7.2230 ca        1 25F     -0.060000
     15 C10         5.6250    0.1100    7.2150 ca        1 25F     -0.151000
     16 C11         6.2560    0.4630    6.0140 ca        1 25F     -0.095000
     17 C12         5.5520    0.5060    4.8220 ca        1 25F     -0.121000
     18 C13         2.1070   -0.4980    6.0250 c         1 25F      0.708100
     19 H1          1.5830   -1.0690   -0.8860 ha        1 25F      0.153500
     20 HN1         0.4970   -0.6570    4.7150 hn        1 25F      0.339500
     21 H2          2.8850   -1.1220    1.2270 ha        1 25F      0.152000
     22 H4         -0.2570    1.1180    3.2130 ha        1 25F      0.152000
     23 H5         -1.5560    1.1680    1.1070 ha        1 25F      0.153500
     24 H9          3.7570   -0.4830    8.1560 ha        1 25F      0.159000
     25 H10         6.2040    0.0830    8.1500 ha        1 25F      0.141000
     26 H11         7.3290    0.7110    6.0200 ha        1 25F      0.138000
     27 H12         6.0580    0.7850    3.8850 ha        1 25F      0.154000
@<TRIPOS>BOND
     1    1    4 1   
     2    1    5 ar  
     3    1   10 ar  
     4    2   11 2   
     5    2   12 1   
     6    3   18 2   
     7    5    7 ar  
     8    5   19 1   
     9    6   11 1   
    10    6   18 1   
    11    6   20 1   
    12    7    8 ar  
    13    7   21 1   
    14    8    9 ar  
    15    8   11 1   
    16    9   10 ar  
    17    9   22 1   
    18   10   23 1   
    19   12   13 ar  
    20   12   17 ar  
    21   13   14 ar  
    22   13   18 1   
    23   14   15 ar  
    24   14   24 1   
    25   15   16 ar  
    26   15   25 1   
    27   16   17 ar  
    28   16   26 1   
    29   17   27 1   
@<TRIPOS>SUBSTRUCTURE
     1 25F         1 TEMP              0 ****  ****    0 ROOT
