@<TRIPOS>MOLECULE
25G
   63    67     1     0     0
SMALL
bcc


@<TRIPOS>ATOM
      1 C10        -0.2500    1.0480    0.4020 ca        1 25G     -0.094000
      2 C17        -0.6120   -0.1700    6.5030 ca        1 25G     -0.036400
      3 C20        -2.3590   -1.2020    7.8270 ca        1 25G     -0.108000
      4 C21        -1.9190   -0.4960    8.9550 ca        1 25G     -0.061500
      5 C22        -0.8180    0.3650    8.8490 ca        1 25G     -0.080000
      6 C24         0.9810    2.5500    6.6390 ca        1 25G     -0.142300
      7 C26        -0.0730    3.4690    6.7000 ca        1 25G     -0.134500
      8 C28         1.9770    3.8340    4.8420 ca        1 25G     -0.118500
      9 C01         4.7340    3.8800    1.4130 c3        1 25G     -0.075900
     10 C02         3.9580    2.6740    0.9260 c3        1 25G     -0.077400
     11 C03         4.0910    1.5110    1.9000 c3        1 25G     -0.060700
     12 C04         5.5600    1.1600    2.0970 c3        1 25G     -0.077400
     13 C05         6.3470    2.3620    2.5770 c3        1 25G     -0.075900
     14 C06         6.1930    3.5390    1.6370 c3        1 25G     -0.081400
     15 C07         3.3310    0.2870    1.4040 c3        1 25G     -0.140700
     16 C08         1.8420    0.4790    1.5000 ca        1 25G      0.446600
     17 C09         1.1220    0.8600    0.3290 ca        1 25G     -0.174300
     18 C11        -0.9020    0.8640    1.6320 ca        1 25G     -0.145300
     19 C12        -0.1200    0.4900    2.7370 ca        1 25G      0.297800
     20 N13         1.2280    0.2940    2.6810 nb        1 25G     -0.688000
     21 C14        -0.8240    0.3080    4.0320 c         1 25G      0.466600
     22 O15        -2.0270    0.4040    4.2160 o         1 25G     -0.415100
     23 N16         0.0660   -0.0280    5.2140 n4        1 25G     -0.532200
     24 C18        -0.1480    0.5400    7.6330 ca        1 25G     -0.033300
     25 C19        -1.7120   -1.0400    6.6070 ca        1 25G     -0.082000
     26 C23         1.0590    1.4200    7.6080 c3        1 25G     -0.022800
     27 C25        -0.1030    4.5600    5.8320 ca        1 25G     -0.118500
     28 C27         2.0100    2.7420    5.7070 ca        1 25G     -0.134500
     29 C29         0.9210    4.7440    4.9020 ca        1 25G     -0.111000
     30 C30        -2.5710   -0.6490   10.2440 cc        1 25G      0.397000
     31 N31        -3.8550   -1.1850   10.4890 na        1 25G     -0.161400
     32 N32        -2.0890   -0.3130   11.4870 nd        1 25G     -0.339000
     33 N33        -3.0300   -0.6350   12.3640 nd        1 25G     -0.027000
     34 N34        -4.0730   -1.1440   11.8070 nc        1 25G     -0.156800
     35 H101       -0.8300    1.3400   -0.4880 ha        1 25G      0.175000
     36 H201       -3.2110   -1.8980    7.8870 ha        1 25G      0.160000
     37 H221       -0.4640    0.9140    9.7410 ha        1 25G      0.191000
     38 H261       -0.8730    3.3370    7.4450 ha        1 25G      0.141500
     39 H281        2.7960    3.9840    4.1190 ha        1 25G      0.151000
     40 H012        4.2850    4.2530    2.3720 hc        1 25G      0.044200
     41 H011        4.6510    4.7060    0.6590 hc        1 25G      0.044200
     42 H021        4.3450    2.3640   -0.0800 hc        1 25G      0.042700
     43 H022        2.8760    2.9400    0.8050 hc        1 25G      0.042700
     44 H031        3.6670    1.8270    2.8950 hc        1 25G      0.046700
     45 H042        5.9870    0.7920    1.1270 hc        1 25G      0.042700
     46 H041        5.6520    0.3290    2.8440 hc        1 25G      0.042700
     47 H051        5.9960    2.6540    3.6020 hc        1 25G      0.044200
     48 H052        7.4310    2.0870    2.6590 hc        1 25G      0.044200
     49 H061        6.6740    3.2970    0.6520 hc        1 25G      0.051700
     50 H062        6.7260    4.4300    2.0610 hc        1 25G      0.051700
     51 H071        3.6000    0.0830    0.3330 hc        1 25G      0.073200
     52 H072        3.6420   -0.6100    2.0050 hc        1 25G      0.073200
     53 H091        1.6680    1.0030   -0.6180 ha        1 25G      0.176000
     54 H111       -1.9900    1.0080    1.7290 ha        1 25G      0.180000
     55 H161        0.7800    0.7220    5.2780 hn        1 25G      0.480300
     56 H191       -2.0850   -1.5910    5.7270 ha        1 25G      0.161000
     57 H232        1.2220    1.8580    8.6350 hc        1 25G      0.085200
     58 H231        1.9620    0.7820    7.3940 hc        1 25G      0.085200
     59 H251       -0.9300    5.2850    5.8930 ha        1 25G      0.151000
     60 H271        2.8680    2.0520    5.6780 ha        1 25G      0.141500
     61 H291        0.9030    5.6140    4.2270 ha        1 25G      0.152000
     62 H1         -4.5300   -1.5250    9.8430 hn        1 25G      0.341700
     63 H162        0.5490   -0.9120    5.0020 hn        1 25G      0.480300
@<TRIPOS>BOND
     1    1   17 ar  
     2    1   18 ar  
     3    1   35 1   
     4    2   23 1   
     5    2   24 ar  
     6    2   25 ar  
     7    3    4 ar  
     8    3   25 ar  
     9    3   36 1   
    10    4    5 ar  
    11    4   30 1   
    12    5   24 ar  
    13    5   37 1   
    14    6    7 ar  
    15    6   26 1   
    16    6   28 ar  
    17    7   27 ar  
    18    7   38 1   
    19    8   28 ar  
    20    8   29 ar  
    21    8   39 1   
    22    9   10 1   
    23    9   14 1   
    24    9   40 1   
    25    9   41 1   
    26   10   11 1   
    27   10   42 1   
    28   10   43 1   
    29   11   12 1   
    30   11   15 1   
    31   11   44 1   
    32   12   13 1   
    33   12   45 1   
    34   12   46 1   
    35   13   14 1   
    36   13   47 1   
    37   13   48 1   
    38   14   49 1   
    39   14   50 1   
    40   15   16 1   
    41   15   51 1   
    42   15   52 1   
    43   16   17 ar  
    44   16   20 ar  
    45   17   53 1   
    46   18   19 ar  
    47   18   54 1   
    48   19   20 ar  
    49   19   21 1   
    50   21   22 2   
    51   21   23 1   
    52   23   55 1   
    53   23   63 1   
    54   24   26 1   
    55   25   56 1   
    56   26   57 1   
    57   26   58 1   
    58   27   29 ar  
    59   27   59 1   
    60   28   60 1   
    61   29   61 1   
    62   30   31 1   
    63   30   32 2   
    64   31   34 1   
    65   31   62 1   
    66   32   33 1   
    67   33   34 2   
@<TRIPOS>SUBSTRUCTURE
     1 25G         1 TEMP              0 ****  ****    0 ROOT
