@<TRIPOS>MOLECULE
25G
   62    66     1     0     0
SMALL
bcc


@<TRIPOS>ATOM
      1 C10         0.0470    0.0320    0.1050 ca        1 25G     -0.099000
      2 C17        -0.9950    0.0580    6.1830 ca        1 25G      0.105600
      3 C20        -2.9220   -0.4150    7.5970 ca        1 25G     -0.087000
      4 C21        -2.1690   -0.1360    8.7440 ca        1 25G     -0.175500
      5 C22        -0.8280    0.2420    8.6070 ca        1 25G     -0.055000
      6 C24         1.4420    2.0960    6.7790 ca        1 25G     -0.093300
      7 C26         0.8890    3.1880    7.4610 ca        1 25G     -0.128000
      8 C28         2.4790    3.6240    5.2120 ca        1 25G     -0.128000
      9 C01         4.1070    4.1080    1.2720 c3        1 25G     -0.076900
     10 C02         3.6680    2.7170    0.8660 c3        1 25G     -0.075900
     11 C03         3.9540    1.7070    1.9690 c3        1 25G     -0.062700
     12 C04         5.4360    1.7260    2.3230 c3        1 25G     -0.075900
     13 C05         5.8810    3.1160    2.7270 c3        1 25G     -0.076900
     14 C06         5.5750    4.1330    1.6470 c3        1 25G     -0.078400
     15 C07         3.5400    0.3030    1.5500 c3        1 25G     -0.129700
     16 C08         2.0460    0.1550    1.4670 ca        1 25G      0.415600
     17 C09         1.4280    0.1870    0.1940 ca        1 25G     -0.222300
     18 C11        -0.6920   -0.1510    1.2760 ca        1 25G     -0.192300
     19 C12        -0.0010   -0.1620    2.5040 ca        1 25G      0.355800
     20 N13         1.3400   -0.0130    2.6090 nb        1 25G     -0.662000
     21 C14        -0.8340   -0.3970    3.7450 c         1 25G      0.580600
     22 O15        -1.8740   -1.0750    3.6580 o         1 25G     -0.587100
     23 N16        -0.4000    0.1940    4.9200 n         1 25G     -0.452100
     24 C18        -0.2290    0.3370    7.3510 ca        1 25G     -0.127300
     25 C19        -2.3490   -0.3190    6.3370 ca        1 25G     -0.158000
     26 C23         1.2160    0.7090    7.2800 c3        1 25G      0.001200
     27 C25         1.1290    4.4870    7.0180 ca        1 25G     -0.128000
     28 C27         2.2380    2.3220    5.6510 ca        1 25G     -0.128000
     29 C29         1.9250    4.7070    5.8930 ca        1 25G     -0.128000
     30 C30        -2.7540   -0.2240   10.0690 cc        1 25G      0.464000
     31 N31        -3.9130   -0.9530   10.4170 na        1 25G     -0.185400
     32 N32        -2.3370    0.3470   11.2470 nd        1 25G     -0.381000
     33 N33        -3.1980   -0.0330   12.1860 nd        1 25G     -0.048000
     34 N34        -4.1280   -0.7910   11.7300 nc        1 25G     -0.197800
     35 H101       -0.4570    0.0490   -0.8720 ha        1 25G      0.147000
     36 H201       -3.9820   -0.7000    7.6730 ha        1 25G      0.131000
     37 H221       -0.2300    0.4670    9.5060 ha        1 25G      0.160000
     38 H261        0.2620    3.0120    8.3480 ha        1 25G      0.139500
     39 H281        3.1100    3.7930    4.3260 ha        1 25G      0.135000
     40 H012        3.9220    4.8210    0.4270 hc        1 25G      0.040950
     41 H011        3.4920    4.4550    2.1450 hc        1 25G      0.040950
     42 H021        2.5700    2.7150    0.6360 hc        1 25G      0.040950
     43 H022        4.2090    2.4120   -0.0680 hc        1 25G      0.040950
     44 H031        3.3680    2.0010    2.8860 hc        1 25G      0.060700
     45 H042        6.0340    1.3790    1.4400 hc        1 25G      0.040950
     46 H041        5.6290    1.0110    3.1650 hc        1 25G      0.040950
     47 H051        5.3610    3.4130    3.6760 hc        1 25G      0.040950
     48 H052        6.9830    3.1090    2.9350 hc        1 25G      0.040950
     49 H061        5.8550    5.1570    2.0040 hc        1 25G      0.041200
     50 H062        6.1950    3.9110    0.7390 hc        1 25G      0.041200
     51 H071        3.9540   -0.4370    2.2870 hc        1 25G      0.060200
     52 H072        3.9840    0.0630    0.5480 hc        1 25G      0.060200
     53 H091        2.0400    0.3330   -0.7080 ha        1 25G      0.149000
     54 H111       -1.7820   -0.2990    1.2570 ha        1 25G      0.169000
     55 H161        0.4690    0.6890    4.9010 hn        1 25G      0.348500
     56 H191       -2.9680   -0.5450    5.4520 ha        1 25G      0.176000
     57 H232        1.6710    0.6310    8.3080 hc        1 25G      0.064200
     58 H231        1.7640   -0.0320    6.6360 hc        1 25G      0.064200
     59 H251        0.6910    5.3390    7.5580 ha        1 25G      0.135000
     60 H271        2.6830    1.4730    5.1080 ha        1 25G      0.139500
     61 H291        2.1160    5.7330    5.5460 ha        1 25G      0.133000
     62 H1         -4.4970   -1.5090    9.8390 hn        1 25G      0.333700
@<TRIPOS>BOND
     1    1   17 ar  
     2    1   18 ar  
     3    1   35 1   
     4    2   23 1   
     5    2   24 ar  
     6    2   25 ar  
     7    3    4 ar  
     8    3   25 ar  
     9    3   36 1   
    10    4    5 ar  
    11    4   30 1   
    12    5   24 ar  
    13    5   37 1   
    14    6    7 ar  
    15    6   26 1   
    16    6   28 ar  
    17    7   27 ar  
    18    7   38 1   
    19    8   28 ar  
    20    8   29 ar  
    21    8   39 1   
    22    9   10 1   
    23    9   14 1   
    24    9   40 1   
    25    9   41 1   
    26   10   11 1   
    27   10   42 1   
    28   10   43 1   
    29   11   12 1   
    30   11   15 1   
    31   11   44 1   
    32   12   13 1   
    33   12   45 1   
    34   12   46 1   
    35   13   14 1   
    36   13   47 1   
    37   13   48 1   
    38   14   49 1   
    39   14   50 1   
    40   15   16 1   
    41   15   51 1   
    42   15   52 1   
    43   16   17 ar  
    44   16   20 ar  
    45   17   53 1   
    46   18   19 ar  
    47   18   54 1   
    48   19   20 ar  
    49   19   21 1   
    50   21   22 2   
    51   21   23 1   
    52   23   55 1   
    53   24   26 1   
    54   25   56 1   
    55   26   57 1   
    56   26   58 1   
    57   27   29 ar  
    58   27   59 1   
    59   28   60 1   
    60   29   61 1   
    61   30   31 1   
    62   30   32 2   
    63   31   34 1   
    64   31   62 1   
    65   32   33 1   
    66   33   34 2   
@<TRIPOS>SUBSTRUCTURE
     1 25G         1 TEMP              0 ****  ****    0 ROOT
