@<TRIPOS>MOLECULE
25G
   62    66     1     0     0
SMALL
bcc


@<TRIPOS>ATOM
      1 C10         0.0490    0.0280    0.1050 ca        1 25G     -0.099000
      2 C17        -0.9950    0.0580    6.1820 ca        1 25G      0.105600
      3 C20        -2.9230   -0.4140    7.5960 ca        1 25G     -0.087000
      4 C21        -2.1710   -0.1350    8.7430 ca        1 25G     -0.175500
      5 C22        -0.8290    0.2420    8.6060 ca        1 25G     -0.055000
      6 C24         1.4430    2.0940    6.7810 ca        1 25G     -0.093300
      7 C26         0.8930    3.1860    7.4640 ca        1 25G     -0.128000
      8 C28         2.4810    3.6220    5.2140 ca        1 25G     -0.128000
      9 C01         4.1040    4.1090    1.2720 c3        1 25G     -0.076900
     10 C02         3.6660    2.7170    0.8660 c3        1 25G     -0.075900
     11 C03         3.9540    1.7080    1.9690 c3        1 25G     -0.062700
     12 C04         5.4360    1.7280    2.3220 c3        1 25G     -0.075900
     13 C05         5.8800    3.1190    2.7260 c3        1 25G     -0.076900
     14 C06         5.5720    4.1350    1.6450 c3        1 25G     -0.078400
     15 C07         3.5410    0.3040    1.5500 c3        1 25G     -0.129700
     16 C08         2.0470    0.1540    1.4670 ca        1 25G      0.415600
     17 C09         1.4290    0.1840    0.1940 ca        1 25G     -0.222300
     18 C11        -0.6900   -0.1540    1.2760 ca        1 25G     -0.192300
     19 C12        -0.0000   -0.1640    2.5040 ca        1 25G      0.355800
     20 N13         1.3410   -0.0130    2.6090 nb        1 25G     -0.662000
     21 C14        -0.8330   -0.3980    3.7440 c         1 25G      0.580600
     22 O15        -1.8730   -1.0760    3.6580 o         1 25G     -0.587100
     23 N16        -0.4000    0.1930    4.9200 ns        1 25G     -0.452100
     24 C18        -0.2290    0.3360    7.3500 ca        1 25G     -0.127300
     25 C19        -2.3490   -0.3180    6.3360 ca        1 25G     -0.158000
     26 C23         1.2160    0.7070    7.2800 c3        1 25G      0.001200
     27 C25         1.1340    4.4850    7.0220 ca        1 25G     -0.128000
     28 C27         2.2390    2.3210    5.6520 ca        1 25G     -0.128000
     29 C29         1.9290    4.7060    5.8970 ca        1 25G     -0.128000
     30 C30        -2.7560   -0.2230   10.0680 cc        1 25G      0.464000
     31 N31        -3.9160   -0.9490   10.4160 na        1 25G     -0.185400
     32 N32        -2.3380    0.3470   11.2460 nd        1 25G     -0.381000
     33 N33        -3.2010   -0.0310   12.1850 nd        1 25G     -0.048000
     34 N34        -4.1320   -0.7880   11.7290 nc        1 25G     -0.197800
     35 H101       -0.4560    0.0440   -0.8730 ha        1 25G      0.147000
     36 H201       -3.9830   -0.6980    7.6710 ha        1 25G      0.131000
     37 H221       -0.2310    0.4670    9.5060 ha        1 25G      0.160000
     38 H261        0.2660    3.0100    8.3510 ha        1 25G      0.139500
     39 H281        3.1110    3.7920    4.3270 ha        1 25G      0.135000
     40 H012        3.9170    4.8210    0.4260 hc        1 25G      0.040950
     41 H011        3.4890    4.4550    2.1450 hc        1 25G      0.040950
     42 H021        2.5680    2.7150    0.6370 hc        1 25G      0.040950
     43 H022        4.2060    2.4130   -0.0690 hc        1 25G      0.040950
     44 H031        3.3680    2.0010    2.8870 hc        1 25G      0.060700
     45 H042        6.0340    1.3830    1.4380 hc        1 25G      0.040950
     46 H041        5.6310    1.0140    3.1630 hc        1 25G      0.040950
     47 H051        5.3600    3.4150    3.6750 hc        1 25G      0.040950
     48 H052        6.9820    3.1130    2.9330 hc        1 25G      0.040950
     49 H061        5.8510    5.1600    2.0030 hc        1 25G      0.041200
     50 H062        6.1920    3.9150    0.7370 hc        1 25G      0.041200
     51 H071        3.9550   -0.4360    2.2880 hc        1 25G      0.060200
     52 H072        3.9850    0.0630    0.5480 hc        1 25G      0.060200
     53 H091        2.0410    0.3300   -0.7080 ha        1 25G      0.149000
     54 H111       -1.7800   -0.3030    1.2560 ha        1 25G      0.169000
     55 H161        0.4700    0.6880    4.9010 hn        1 25G      0.348500
     56 H191       -2.9680   -0.5440    5.4510 ha        1 25G      0.176000
     57 H232        1.6710    0.6280    8.3080 hc        1 25G      0.064200
     58 H231        1.7640   -0.0340    6.6360 hc        1 25G      0.064200
     59 H251        0.6970    5.3380    7.5630 ha        1 25G      0.135000
     60 H271        2.6820    1.4710    5.1080 ha        1 25G      0.139500
     61 H291        2.1210    5.7320    5.5500 ha        1 25G      0.133000
     62 H1         -4.5010   -1.5040    9.8370 hn        1 25G      0.333700
@<TRIPOS>BOND
     1    1   17 ar  
     2    1   18 ar  
     3    1   35 1   
     4    2   23 1   
     5    2   24 ar  
     6    2   25 ar  
     7    3    4 ar  
     8    3   25 ar  
     9    3   36 1   
    10    4    5 ar  
    11    4   30 1   
    12    5   24 ar  
    13    5   37 1   
    14    6    7 ar  
    15    6   26 1   
    16    6   28 ar  
    17    7   27 ar  
    18    7   38 1   
    19    8   28 ar  
    20    8   29 ar  
    21    8   39 1   
    22    9   10 1   
    23    9   14 1   
    24    9   40 1   
    25    9   41 1   
    26   10   11 1   
    27   10   42 1   
    28   10   43 1   
    29   11   12 1   
    30   11   15 1   
    31   11   44 1   
    32   12   13 1   
    33   12   45 1   
    34   12   46 1   
    35   13   14 1   
    36   13   47 1   
    37   13   48 1   
    38   14   49 1   
    39   14   50 1   
    40   15   16 1   
    41   15   51 1   
    42   15   52 1   
    43   16   17 ar  
    44   16   20 ar  
    45   17   53 1   
    46   18   19 ar  
    47   18   54 1   
    48   19   20 ar  
    49   19   21 1   
    50   21   22 2   
    51   21   23 1   
    52   23   55 1   
    53   24   26 1   
    54   25   56 1   
    55   26   57 1   
    56   26   58 1   
    57   27   29 ar  
    58   27   59 1   
    59   28   60 1   
    60   29   61 1   
    61   30   31 1   
    62   30   32 2   
    63   31   34 1   
    64   31   62 1   
    65   32   33 1   
    66   33   34 2   
@<TRIPOS>SUBSTRUCTURE
     1 25G         1 TEMP              0 ****  ****    0 ROOT
