@<TRIPOS>MOLECULE
25H
   32    31     1     0     0
SMALL
bcc


@<TRIPOS>ATOM
      1 N1         -1.3950    0.9660   -4.9360 n         1 25H     -0.328000
      2 C8          2.0650    0.0990   -1.9260 c1        1 25H     -0.308000
      3 C6         -0.0170    0.7250   -4.9090 c2        1 25H      0.397000
      4 N7          1.9690    0.2360   -3.2900 n2        1 25H     -0.080000
      5 C5          0.6770    0.4890   -3.5960 c2        1 25H     -0.236000
      6 C2         -2.1410    0.9900   -3.7130 c2        1 25H     -0.017000
      7 OAD         1.8060    0.1330    5.8240 o         1 25H     -0.756167
      8 PAT         0.7290   -0.9380    5.9610 p5        1 25H      1.667500
      9 OAE         1.3850   -2.2830    6.2030 o         1 25H     -0.756167
     10 OAC        -0.1690   -0.6000    7.1220 o         1 25H     -0.756167
     11 CAJ        -0.2510   -1.0070    4.4350 c3        1 25H     -0.823000
     12 CAH         0.6820   -1.0840    3.2450 c3        1 25H     -0.004000
     13 OAN         0.1030   -0.3690    2.1330 os        1 25H     -0.283000
     14 CAG         0.7590   -0.6010    0.8840 c3        1 25H      0.077000
     15 CAI         0.6240    0.6420    0.0020 c3        1 25H     -0.429000
     16 N9          0.8140    0.2700   -1.3940 n3        1 25H      0.184000
     17 C4         -0.0460    0.5110   -2.4160 c1        1 25H     -0.214000
     18 N3         -1.4690    0.7600   -2.4460 n1        1 25H     -0.108000
     19 N2         -3.5740    1.2130   -3.7420 n3        1 25H     -0.284000
     20 O6          0.6390    0.7960   -5.9480 o         1 25H     -0.444000
     21 HN1        -1.8350    1.0170   -5.7420 hn        1 25H      0.220000
     22 H8          2.8820   -0.0440   -1.4240 DU        1 25H      0.178000
     23 HAJ        -0.8050   -0.2010    4.3650 hc        1 25H      0.109000
     24 HAJA       -0.8330   -1.8050    4.4510 hc        1 25H      0.109000
     25 HAH         1.5440   -0.6800    3.4800 h1        1 25H      0.076500
     26 HAHA        0.8190   -2.0250    2.9970 h1        1 25H      0.076500
     27 HAG         0.3540   -1.3500    0.4440 h1        1 25H      0.035500
     28 HAGA        1.6990   -0.7870    1.0410 h1        1 25H      0.035500
     29 HAI        -0.2620    1.0270    0.1180 h1        1 25H      0.187500
     30 HAIA        1.3010    1.3010    0.2590 h1        1 25H      0.187500
     31 HN2        -3.9970    1.3540   -4.5380 hn        1 25H      0.143000
     32 HN2A       -4.0580    1.2440   -2.9440 hn        1 25H      0.143000
@<TRIPOS>BOND
     1    1    3 1   
     2    1    6 1   
     3    1   21 1   
     4    2    4 1   
     5    2   16 1   
     6    3    5 1   
     7    3   20 1   
     8    4    5 1   
     9    5   17 1   
    10    6   18 1   
    11    6   19 1   
    12    7    8 1   
    13    8    9 1   
    14    8   10 1   
    15    8   11 1   
    16   11   12 1   
    17   11   23 1   
    18   11   24 1   
    19   12   13 1   
    20   12   25 1   
    21   12   26 1   
    22   13   14 1   
    23   14   15 1   
    24   14   27 1   
    25   14   28 1   
    26   15   16 1   
    27   15   29 1   
    28   15   30 1   
    29   16   17 1   
    30   19   31 1   
    31   19   32 1   
@<TRIPOS>SUBSTRUCTURE
     1 25H         1 TEMP              0 ****  ****    0 ROOT
