@<TRIPOS>MOLECULE
25H
   32    33     1     0     0
SMALL
bcc


@<TRIPOS>ATOM
      1 N1         -5.8060    0.5700   -0.8450 n         1 25H     -0.573400
      2 C8         -1.9210   -1.4870    0.0950 cc        1 25H      0.352400
      3 C6         -5.3900   -0.6170   -0.2190 c         1 25H      0.656000
      4 N7         -3.1850   -1.8400    0.3440 nc        1 25H     -0.613000
      5 C5         -3.9680   -0.8030   -0.1810 cd        1 25H      0.049800
      6 C2         -4.9190    1.5560   -1.4250 cc        1 25H      0.725900
      7 OAD         4.7690    0.1640    2.2020 oh        1 25H     -0.800400
      8 PAT         5.0150   -0.5280    0.7230 p5        1 25H      1.346600
      9 OAE         6.1380    0.3060    0.2190 o         1 25H     -0.874500
     10 OAC         5.1240   -1.9950    0.9000 o         1 25H     -0.874500
     11 CAJ         3.5790   -0.1230   -0.0840 c3        1 25H     -0.367600
     12 CAH         2.4620   -0.9110    0.5340 c3        1 25H      0.141400
     13 OAN         1.2380   -0.8760   -0.1950 os        1 25H     -0.437600
     14 CAG         0.5890    0.3890   -0.1590 c3        1 25H      0.114400
     15 N9         -1.8030   -0.2250   -0.5600 na        1 25H     -0.258900
     16 C4         -3.1220    0.2270   -0.7760 cd        1 25H      0.050400
     17 N3         -3.5230    1.3620   -1.3870 nc        1 25H     -0.538300
     18 N2         -5.4020    2.6510   -2.0030 n2        1 25H     -0.946100
     19 O6         -6.2820   -1.3780    0.2340 o         1 25H     -0.736500
     20 HN1        -6.7850    0.7300   -0.8850 hn        1 25H      0.286500
     21 H8         -1.0150   -2.0450    0.3560 h5        1 25H      0.056100
     22 HAJ         3.3850    0.9730   -0.0090 hc        1 25H      0.066700
     23 HAJA        3.6590   -0.3610   -1.1710 hc        1 25H      0.066700
     24 HAH         2.7400   -2.0030    0.5430 h1        1 25H      0.063200
     25 HAHA        2.2960   -0.5590    1.5880 h1        1 25H      0.063200
     26 HAG         0.2800    0.6240    0.8930 h1        1 25H      0.031700
     27 HAGA        1.2900    1.1870   -0.5220 h1        1 25H      0.031700
     28 HAI        -0.8280    1.3690   -1.4700 h1        1 25H      0.057700
     29 HAIA       -0.2980   -0.2970   -2.0140 h1        1 25H      0.057700
     30 HN2        -6.3990    2.7010   -1.9860 hn        1 25H      0.329400
     31 HN2A        5.4100    0.8430    2.3710 ho        1 25H      0.417000
     32 CAI        -0.6100    0.3200   -1.1200 c3        1 25H      0.056300
@<TRIPOS>BOND
     1    1    3 1   
     2    1    6 1   
     3    1   20 1   
     4    2    4 1   
     5    2   15 2   
     6    2   21 1   
     7    3    5 1   
     8    3   19 2   
     9    4    5 2   
    10    5   16 1   
    11    6   17 1   
    12    6   18 2   
    13    7    8 1   
    14    7   31 1   
    15    8    9 1   
    16    8   10 1   
    17    8   11 1   
    18   11   12 1   
    19   11   22 1   
    20   11   23 1   
    21   12   13 1   
    22   12   24 1   
    23   12   25 1   
    24   13   14 1   
    25   14   26 1   
    26   14   27 1   
    27   14   32 1   
    28   15   16 1   
    29   15   32 1   
    30   16   17 2   
    31   18   30 1   
    32   28   32 1   
    33   29   32 1   
@<TRIPOS>SUBSTRUCTURE
     1 25H         1 TEMP              0 ****  ****    0 ROOT
