@<TRIPOS>MOLECULE
25K
   37    39     1     0     0
SMALL
bcc


@<TRIPOS>ATOM
      1 C10         0.1120    1.3090   -0.4570 c3        1 25K     -0.157400
      2 C9          1.4240    0.6230   -0.2310 cc        1 25K      0.474600
      3 C8          2.0410    0.8450    1.0450 cc        1 25K     -0.337300
      4 N1          1.9490   -0.1330   -1.1930 nd        1 25K     -0.638000
      5 C11         3.1670   -0.7240   -0.9140 cd        1 25K      0.404500
      6 N4          3.8450   -0.5610    0.3870 na        1 25K     -0.012800
      7 N3          4.9990   -1.2440    0.3820 nd        1 25K     -0.587100
      8 C12         5.0480   -1.8180   -0.8600 cc        1 25K      0.521200
      9 N2          3.9620   -1.5360   -1.6880 nc        1 25K     -0.362300
     10 C7          3.2630    0.2500    1.3750 cd        1 25K      0.264300
     11 N           3.8620    0.5140    2.6320 nh        1 25K     -0.640000
     12 C6          5.3010    0.4930    2.7330 c3        1 25K      0.172100
     13 C5          3.1490   -0.0250    3.7820 c3        1 25K      0.237100
     14 C4          3.3000   -1.4940    4.0520 ca        1 25K     -0.136300
     15 C3          4.4250   -1.9730    4.7310 ca        1 25K     -0.107000
     16 C2          4.5540   -3.3320    5.0060 ca        1 25K     -0.130500
     17 C13         2.3050   -2.3920    3.6550 ca        1 25K     -0.107000
     18 C14         2.4340   -3.7510    3.9320 ca        1 25K     -0.130500
     19 C1          3.5600   -4.2340    4.6080 ca        1 25K     -0.063300
     20 C           3.7050   -5.6810    4.8840 c3        1 25K     -0.057800
     21 H1         -0.6130    0.9780    0.3260 hc        1 25K      0.062700
     22 H2          0.2600    2.4140   -0.3690 hc        1 25K      0.062700
     23 H3         -0.3190    1.0840   -1.4640 hc        1 25K      0.062700
     24 H4          1.5410    1.5070    1.7660 ha        1 25K      0.165000
     25 H5          5.8770   -2.4580   -1.1860 h5        1 25K      0.078800
     26 H6          5.7230   -0.5420    2.8490 h1        1 25K      0.052033
     27 H7          5.7540    0.9800    1.8310 h1        1 25K      0.052033
     28 H8          5.5780    1.0940    3.6420 h1        1 25K      0.052033
     29 H9          2.0550    0.2150    3.6490 h1        1 25K      0.064700
     30 H10         3.5250    0.5490    4.6780 h1        1 25K      0.064700
     31 H11         5.2120   -1.2720    5.0490 ha        1 25K      0.131500
     32 H12         5.4430   -3.7010    5.5400 ha        1 25K      0.134500
     33 H13         1.4140   -2.0260    3.1220 ha        1 25K      0.131500
     34 H14         1.6460   -4.4510    3.6150 ha        1 25K      0.134500
     35 H15         4.2080   -6.1840    4.0190 hc        1 25K      0.047033
     36 H16         4.3240   -5.8560    5.7980 hc        1 25K      0.047033
     37 H17         2.7070   -6.1620    5.0340 hc        1 25K      0.047033
@<TRIPOS>BOND
     1    1    2 1   
     2    1   21 1   
     3    1   22 1   
     4    1   23 1   
     5    2    3 1   
     6    2    4 2   
     7    3   10 2   
     8    3   24 1   
     9    4    5 1   
    10    5    6 1   
    11    5    9 2   
    12    6    7 1   
    13    6   10 1   
    14    7    8 2   
    15    8    9 1   
    16    8   25 1   
    17   10   11 1   
    18   11   12 1   
    19   11   13 1   
    20   12   26 1   
    21   12   27 1   
    22   12   28 1   
    23   13   14 1   
    24   13   29 1   
    25   13   30 1   
    26   14   15 ar  
    27   14   17 ar  
    28   15   16 ar  
    29   15   31 1   
    30   16   19 ar  
    31   16   32 1   
    32   17   18 ar  
    33   17   33 1   
    34   18   19 ar  
    35   18   34 1   
    36   19   20 1   
    37   20   35 1   
    38   20   36 1   
    39   20   37 1   
@<TRIPOS>SUBSTRUCTURE
     1 25K         1 TEMP              0 ****  ****    0 ROOT
