@<TRIPOS>MOLECULE
25K
   37    39     1     0     0
SMALL
bcc


@<TRIPOS>ATOM
      1 C10         2.9590    3.3120    1.3750 c3        1 25K     -0.157400
      2 C9          2.5000    2.0420    0.7280 cc        1 25K      0.474600
      3 C8          1.5440    1.2680    1.4660 cc        1 25K     -0.337300
      4 N1          2.9840    1.6940   -0.4620 nd        1 25K     -0.638000
      5 C11         2.5200    0.5030   -0.9890 cd        1 25K      0.404500
      6 N4          1.5180   -0.3300   -0.2970 na        1 25K     -0.012800
      7 N3          1.2510   -1.4180   -1.0340 nd        1 25K     -0.587100
      8 C12         2.0390   -1.2780   -2.1440 cc        1 25K      0.521200
      9 N2          2.8310   -0.1300   -2.1690 nc        1 25K     -0.362300
     10 C7          1.0350    0.0670    0.9600 cd        1 25K      0.264300
     11 N           0.1160   -0.6910    1.7280 nh        1 25K     -0.640000
     12 C6          0.1040   -2.1260    1.5770 c3        1 25K      0.172100
     13 C5         -1.1900   -0.0740    1.9160 c3        1 25K      0.237100
     14 C4         -2.1480   -0.1380    0.7630 ca        1 25K     -0.136300
     15 C3         -2.9070   -1.2910    0.5400 ca        1 25K     -0.107000
     16 C2         -3.8170   -1.3420   -0.5130 ca        1 25K     -0.130500
     17 C13        -2.3130    0.9650   -0.0810 ca        1 25K     -0.107000
     18 C14        -3.2230    0.9140   -1.1340 ca        1 25K     -0.130500
     19 C1         -3.9820   -0.2400   -1.3610 ca        1 25K     -0.063300
     20 C          -4.9360   -0.3000   -2.4920 c3        1 25K     -0.057800
     21 H1          3.4440    3.0670    2.3520 hc        1 25K      0.062700
     22 H2          3.6910    3.8730    0.7420 hc        1 25K      0.062700
     23 H3          2.0730    3.9670    1.5650 hc        1 25K      0.062700
     24 H4          1.2220    1.6270    2.4530 ha        1 25K      0.165000
     25 H5          2.0500   -2.0100   -2.9610 h5        1 25K      0.078800
     26 H6          1.1540   -2.5100    1.4980 h1        1 25K      0.052033
     27 H7         -0.3640   -2.5530    2.5060 h1        1 25K      0.052033
     28 H8         -0.4880   -2.4740    0.6880 h1        1 25K      0.052033
     29 H9         -1.6550   -0.5950    2.8040 h1        1 25K      0.064700
     30 H10        -1.0200    1.0060    2.1970 h1        1 25K      0.064700
     31 H11        -2.7850   -2.1620    1.2020 ha        1 25K      0.131500
     32 H12        -4.4090   -2.2540   -0.6810 ha        1 25K      0.134500
     33 H13        -1.7230    1.8790    0.0850 ha        1 25K      0.131500
     34 H14        -3.3460    1.7860   -1.7930 ha        1 25K      0.134500
     35 H15        -4.4120   -0.6710   -3.4100 hc        1 25K      0.047033
     36 H16        -5.7820   -0.9950   -2.2670 hc        1 25K      0.047033
     37 H17        -5.3570    0.7110   -2.7140 hc        1 25K      0.047033
@<TRIPOS>BOND
     1    1    2 1   
     2    1   21 1   
     3    1   22 1   
     4    1   23 1   
     5    2    3 1   
     6    2    4 2   
     7    3   10 2   
     8    3   24 1   
     9    4    5 1   
    10    5    6 1   
    11    5    9 2   
    12    6    7 1   
    13    6   10 1   
    14    7    8 2   
    15    8    9 1   
    16    8   25 1   
    17   10   11 1   
    18   11   12 1   
    19   11   13 1   
    20   12   26 1   
    21   12   27 1   
    22   12   28 1   
    23   13   14 1   
    24   13   29 1   
    25   13   30 1   
    26   14   15 ar  
    27   14   17 ar  
    28   15   16 ar  
    29   15   31 1   
    30   16   19 ar  
    31   16   32 1   
    32   17   18 ar  
    33   17   33 1   
    34   18   19 ar  
    35   18   34 1   
    36   19   20 1   
    37   20   35 1   
    38   20   36 1   
    39   20   37 1   
@<TRIPOS>SUBSTRUCTURE
     1 25K         1 TEMP              0 ****  ****    0 ROOT
