@<TRIPOS>MOLECULE
25K
   37    28     1     0     0
SMALL
bcc


@<TRIPOS>ATOM
      1 C10        -5.6830   -0.8730    0.3160 c3        1 25K     -0.182000
      2 C9         -4.2510   -0.6410    0.0680 c1        1 25K      0.039000
      3 C8         -3.0000   -0.5560    0.6080 c1        1 25K     -0.220000
      4 N1         -4.4520   -0.3040   -1.2030 n1        1 25K     -0.111500
      5 C11        -3.3880    0.1360   -1.9840 c1        1 25K      0.102500
      6 N4         -2.1640    0.2210   -1.4610 n1        1 25K     -0.111500
      7 N3         -1.3060    0.6900   -2.4480 n1        1 25K     -0.129500
      8 C12        -2.0310    0.8870   -3.5740 c1        1 25K     -0.116000
      9 N2         -3.3160    0.5510   -3.3080 n1        1 25K     -0.129500
     10 C7         -1.9560   -0.1240   -0.1600 c1        1 25K      0.102500
     11 N          -0.6750   -0.0330    0.4550 n2        1 25K     -0.221000
     12 C6         -0.4020    1.0340    1.3930 c3        1 25K     -0.124000
     13 C5          0.3250   -1.0980    0.2400 c3        1 25K     -0.029000
     14 C4          1.7690   -0.4940    0.3840 c1        1 25K     -0.092000
     15 C3          2.4250    0.0080   -0.7310 c1        1 25K     -0.125500
     16 C2          3.7680    0.4110   -0.6290 c1        1 25K     -0.125500
     17 C13         2.4510   -0.5970    1.6080 c1        1 25K     -0.103000
     18 C14         3.7730   -0.1980    1.7010 c1        1 25K     -0.135000
     19 C1          4.4330    0.3050    0.5880 c1        1 25K     -0.063000
     20 C           5.8710    0.6490    0.6860 c2        1 25K     -0.181000
     21 H1         -5.8190   -1.0970    1.2660 hc        1 25K      0.103667
     22 H2         -6.1830   -0.0780    0.1000 hc        1 25K      0.103667
     23 H3         -5.9880   -1.6050   -0.2360 hc        1 25K      0.103667
     24 H4         -2.8710   -0.6940    1.5970 ha        1 25K      0.173000
     25 H5         -1.6670    1.1490   -4.4660 DU        1 25K      0.210000
     26 H6          0.5490    1.0570    1.5930 h1        1 25K      0.091000
     27 H7         -0.9070    0.8770    2.2210 h1        1 25K      0.091000
     28 H8         -0.6690    1.8740    1.0100 h1        1 25K      0.091000
     29 H9          0.2180   -1.4670   -0.6450 h1        1 25K      0.098000
     30 H10         0.2030   -1.7790    0.8810 h1        1 25K      0.098000
     31 H11         1.9290    0.0840   -1.6330 ha        1 25K      0.133500
     32 H12         4.2280    0.7590   -1.4000 ha        1 25K      0.133500
     33 H13         1.9870   -0.9560    2.4100 ha        1 25K      0.139000
     34 H14         4.2550   -0.2730    2.5750 ha        1 25K      0.133000
     35 H15         6.3930   -0.1180    0.4880 ha        1 25K      0.084667
     36 H16         6.0750    0.9580    1.6120 ha        1 25K      0.084667
     37 H17         6.0740    1.3340    0.0750 ha        1 25K      0.084667
@<TRIPOS>BOND
     1    1    2 1   
     2    1   21 1   
     3    1   22 1   
     4    1   23 1   
     5    2    3 1   
     6    3   24 1   
     7    4    5 1   
     8    6   10 1   
     9    7    8 1   
    10    8    9 1   
    11   11   12 1   
    12   11   13 1   
    13   12   26 1   
    14   12   27 1   
    15   12   28 1   
    16   13   14 1   
    17   13   29 1   
    18   13   30 1   
    19   14   17 1   
    20   15   16 1   
    21   15   31 1   
    22   16   32 1   
    23   17   33 1   
    24   18   19 1   
    25   18   34 1   
    26   20   35 1   
    27   20   36 1   
    28   20   37 1   
@<TRIPOS>SUBSTRUCTURE
     1 25K         1 TEMP              0 ****  ****    0 ROOT
