@<TRIPOS>MOLECULE
25K
   37    39     1     0     0
SMALL
bcc


@<TRIPOS>ATOM
      1 C10         0.0590    1.2020   -0.4940 c3        1 25K     -0.157400
      2 C9          1.3860    0.5520   -0.2570 cc        1 25K      0.474600
      3 C8          1.9920    0.8010    1.0200 cc        1 25K     -0.337300
      4 N1          1.9340   -0.2000   -1.2090 nd        1 25K     -0.638000
      5 C11         3.1650   -0.7570   -0.9190 cd        1 25K      0.404500
      6 N4          3.8330   -0.5650    0.3820 na        1 25K     -0.012800
      7 N3          5.0040   -1.2180    0.3870 nd        1 25K     -0.587100
      8 C12         5.0730   -1.8030   -0.8480 cc        1 25K      0.521200
      9 N2          3.9830   -1.5570   -1.6820 nc        1 25K     -0.362300
     10 C7          3.2280    0.2410    1.3600 cd        1 25K      0.264300
     11 N           3.8150    0.5320    2.6160 nh        1 25K     -0.640000
     12 C6          5.2540    0.5480    2.7230 c3        1 25K      0.172100
     13 C5          3.1110   -0.0150    3.7690 c3        1 25K      0.237100
     14 C4          3.2980   -1.4760    4.0530 ca        1 25K     -0.136300
     15 C3          4.4320   -1.9210    4.7410 ca        1 25K     -0.107000
     16 C2          4.5940   -3.2730    5.0300 ca        1 25K     -0.130500
     17 C13         2.3270   -2.4020    3.6620 ca        1 25K     -0.107000
     18 C14         2.4880   -3.7550    3.9520 ca        1 25K     -0.130500
     19 C1          3.6240   -4.2030    4.6360 ca        1 25K     -0.063300
     20 C           3.8040   -5.6440    4.9270 c3        1 25K     -0.057800
     21 H1         -0.6610    0.8610    0.2900 hc        1 25K      0.062700
     22 H2         -0.3630    0.9570   -1.5000 hc        1 25K      0.062700
     23 H3          0.1780    2.3120   -0.4160 hc        1 25K      0.062700
     24 H4          1.4730    1.4580    1.7320 ha        1 25K      0.165000
     25 H5          5.9190   -2.4260   -1.1650 h5        1 25K      0.078800
     26 H6          5.7010   -0.4750    2.8510 h1        1 25K      0.052033
     27 H7          5.6980    1.0380    1.8180 h1        1 25K      0.052033
     28 H8          5.5120    1.1640    3.6270 h1        1 25K      0.052033
     29 H9          2.0120    0.1980    3.6300 h1        1 25K      0.064700
     30 H10         3.4700    0.5780    4.6610 h1        1 25K      0.064700
     31 H11         5.1990   -1.1970    5.0550 ha        1 25K      0.131500
     32 H12         5.4890   -3.6150    5.5700 ha        1 25K      0.134500
     33 H13         1.4290   -2.0640    3.1220 ha        1 25K      0.131500
     34 H14         1.7190   -4.4770    3.6390 ha        1 25K      0.134500
     35 H15         2.8170   -6.1480    5.0760 hc        1 25K      0.047033
     36 H16         4.3250   -6.1420    4.0700 hc        1 25K      0.047033
     37 H17         4.4210   -5.7940    5.8460 hc        1 25K      0.047033
@<TRIPOS>BOND
     1    1    2 1   
     2    1   21 1   
     3    1   22 1   
     4    1   23 1   
     5    2    3 1   
     6    2    4 2   
     7    3   10 2   
     8    3   24 1   
     9    4    5 1   
    10    5    6 1   
    11    5    9 2   
    12    6    7 1   
    13    6   10 1   
    14    7    8 2   
    15    8    9 1   
    16    8   25 1   
    17   10   11 1   
    18   11   12 1   
    19   11   13 1   
    20   12   26 1   
    21   12   27 1   
    22   12   28 1   
    23   13   14 1   
    24   13   29 1   
    25   13   30 1   
    26   14   15 ar  
    27   14   17 ar  
    28   15   16 ar  
    29   15   31 1   
    30   16   19 ar  
    31   16   32 1   
    32   17   18 ar  
    33   17   33 1   
    34   18   19 ar  
    35   18   34 1   
    36   19   20 1   
    37   20   35 1   
    38   20   36 1   
    39   20   37 1   
@<TRIPOS>SUBSTRUCTURE
     1 25K         1 TEMP              0 ****  ****    0 ROOT
