@<TRIPOS>MOLECULE
25K
   38    40     1     0     0
SMALL
bcc


@<TRIPOS>ATOM
      1 C10         0.4390    1.2880   -0.3100 c3        1 25K     -0.169400
      2 C9          1.6900    0.4840   -0.1450 cc        1 25K      0.479600
      3 C8          2.4200    0.6980    1.0910 cc        1 25K     -0.259300
      4 N1          2.0740   -0.3610   -1.0930 nd        1 25K     -0.569000
      5 C11         3.2440   -1.0660   -0.8840 cd        1 25K      0.427500
      6 N4          4.0430   -0.8880    0.3580 na        1 25K     -0.018800
      7 N3          5.1320   -1.6720    0.3230 nd        1 25K     -0.601100
      8 C12         5.0330   -2.3180   -0.8800 cc        1 25K      0.576200
      9 N2          3.9100   -1.9860   -1.6440 nc        1 25K     -0.302300
     10 C7          3.5900   -0.0050    1.3290 cd        1 25K      0.115300
     11 N           4.3730    0.1710    2.5790 n4        1 25K     -0.577800
     12 C6          4.9230    1.5520    2.6360 c3        1 25K      0.088100
     13 C5          3.5400   -0.1440    3.8090 c3        1 25K      0.190100
     14 C4          3.4300   -1.6080    4.0380 ca        1 25K     -0.199300
     15 C3          4.5290   -2.3200    4.5380 ca        1 25K     -0.088500
     16 C2          4.4200   -3.6810    4.7950 ca        1 25K     -0.126000
     17 C13         2.2210   -2.2730    3.8030 ca        1 25K     -0.088500
     18 C14         2.1130   -3.6360    4.0660 ca        1 25K     -0.126000
     19 C1          3.2110   -4.3540    4.5610 ca        1 25K     -0.009300
     20 C           3.1000   -5.8050    4.8280 c3        1 25K     -0.076800
     21 H1         -0.2540    1.0700    0.5400 hc        1 25K      0.083367
     22 H2         -0.0890    1.0560   -1.2690 hc        1 25K      0.083367
     23 H3          0.6990    2.3760   -0.3010 hc        1 25K      0.083367
     24 H4          2.0170    1.4240    1.8120 ha        1 25K      0.177000
     25 H5          5.7790   -3.0480   -1.2330 h5        1 25K      0.110800
     26 H6          4.0810    2.2900    2.7130 hx        1 25K      0.106700
     27 H7          5.5180    1.7550    1.7040 hx        1 25K      0.106700
     28 H8          5.5900    1.6410    3.5350 hx        1 25K      0.106700
     29 H9          4.0670    0.3470    4.6800 hx        1 25K      0.103700
     30 H10         2.5280    0.3310    3.6790 hx        1 25K      0.103700
     31 H11         5.4780   -1.8020    4.7460 ha        1 25K      0.134500
     32 H12         5.2850   -4.2370    5.1920 ha        1 25K      0.159000
     33 H13         1.3470   -1.7220    3.4220 ha        1 25K      0.134500
     34 H14         1.1570   -4.1540    3.8880 ha        1 25K      0.159000
     35 H15         2.0460   -6.0930    5.0660 hc        1 25K      0.066367
     36 H16         3.7520   -6.1070    5.6850 hc        1 25K      0.066367
     37 H17         3.4240   -6.3810    3.9230 hc        1 25K      0.066367
     38 HN1         5.1680   -0.4950    2.5850 hn        1 25K      0.482800
@<TRIPOS>BOND
     1    1    2 1   
     2    1   21 1   
     3    1   22 1   
     4    1   23 1   
     5    2    3 1   
     6    2    4 2   
     7    3   10 2   
     8    3   24 1   
     9    4    5 1   
    10    5    6 1   
    11    5    9 2   
    12    6    7 1   
    13    6   10 1   
    14    7    8 2   
    15    8    9 1   
    16    8   25 1   
    17   10   11 1   
    18   11   12 1   
    19   11   13 1   
    20   11   38 1   
    21   12   26 1   
    22   12   27 1   
    23   12   28 1   
    24   13   14 1   
    25   13   29 1   
    26   13   30 1   
    27   14   15 ar  
    28   14   17 ar  
    29   15   16 ar  
    30   15   31 1   
    31   16   19 ar  
    32   16   32 1   
    33   17   18 ar  
    34   17   33 1   
    35   18   19 ar  
    36   18   34 1   
    37   19   20 1   
    38   20   35 1   
    39   20   36 1   
    40   20   37 1   
@<TRIPOS>SUBSTRUCTURE
     1 25K         1 TEMP              0 ****  ****    0 ROOT
