@<TRIPOS>MOLECULE
25O
   28    30     1     0     0
SMALL
bcc


@<TRIPOS>ATOM
      1 C4         -0.5210    0.2060    0.3280 c3        1 25O     -0.118000
      2 C5          0.7240    1.0240    0.3580 c2        1 25O     -0.088000
      3 C6          1.7810    0.6360    1.1060 c2        1 25O     -0.199000
      4 C11        -2.2790    3.2000   -2.3090 c2        1 25O      0.049000
      5 C7          1.7480   -0.5980    1.8460 c2        1 25O      0.000000
      6 C8          0.6540   -1.4130    1.7890 c2        1 25O     -0.248000
      7 C9         -0.4600   -1.1220    0.9640 c1        1 25O     -0.077000
      8 C10        -2.1740    1.1280   -3.0320 c2        1 25O      0.070000
      9 N1         -2.2280   -0.0810   -3.7040 n2        1 25O     -0.110000
     10 N2         -2.6010    2.3720   -3.4220 n2        1 25O     -0.175000
     11 C3         -1.1110    0.1150   -1.0530 c2        1 25O      0.124000
     12 C1         -1.7470   -1.1430   -3.0580 c2        1 25O      0.044000
     13 C          -1.7790   -2.4890   -3.7100 c3        1 25O     -0.182000
     14 N4         -1.6860    2.5120   -1.2440 n2        1 25O     -0.185000
     15 N          -1.6090    1.2460   -1.6820 na        1 25O     -0.101000
     16 C2         -1.1820   -1.0870   -1.7360 c2        1 25O     -0.223000
     17 H1         -1.2760    0.7520    1.0030 hc        1 25O      0.200000
     18 H2          0.7350    1.9670   -0.2100 ha        1 25O      0.160000
     19 H3          2.6940    1.2480    1.1640 ha        1 25O      0.144000
     20 H4          2.6380   -0.8610    2.4410 ha        1 25O      0.136000
     21 H5          0.6280   -2.3610    2.3520 ha        1 25O      0.153000
     22 H6         -2.5610    4.9980   -1.4280 hn        1 25O      0.208500
     23 H7         -3.1120    4.9030   -3.0060 hn        1 25O      0.208500
     24 H8         -2.3780   -3.1870   -3.0730 hc        1 25O      0.103667
     25 H9         -0.7340   -2.8800   -3.7890 hc        1 25O      0.103667
     26 H10        -2.2300   -2.4590   -4.7320 hc        1 25O      0.103667
     27 H11        -0.8320   -2.0100   -1.2510 ha        1 25O      0.186000
     28 N3         -2.4530    4.5850   -2.3290 nh        1 25O     -0.288000
@<TRIPOS>BOND
     1    1    2 1   
     2    1    7 1   
     3    1   11 1   
     4    1   17 1   
     5    2    3 1   
     6    2   18 1   
     7    3    5 1   
     8    3   19 1   
     9    4   10 1   
    10    4   14 1   
    11    4   28 1   
    12    5    6 1   
    13    5   20 1   
    14    6    7 1   
    15    6   21 1   
    16    8    9 1   
    17    8   10 1   
    18    8   15 1   
    19    9   12 1   
    20   11   15 1   
    21   11   16 1   
    22   12   13 1   
    23   12   16 1   
    24   13   24 1   
    25   13   25 1   
    26   13   26 1   
    27   14   15 1   
    28   16   27 1   
    29   22   28 1   
    30   23   28 1   
@<TRIPOS>SUBSTRUCTURE
     1 25O         1 TEMP              0 ****  ****    0 ROOT
