@<TRIPOS>MOLECULE
25O
   28    30     1     0     0
SMALL
bcc


@<TRIPOS>ATOM
      1 C4         -0.2740   -0.2090   -0.0070 ce        1 25O     -0.152500
      2 C5          1.0190   -0.9790    0.1420 c3        1 25O     -0.005000
      3 C6          1.8940   -0.3070    1.1720 c2        1 25O     -0.161200
      4 C11        -2.9820    2.8370   -1.4950 cc        1 25O      0.702200
      5 C7          1.4240    0.4990    2.1510 ce        1 25O     -0.132000
      6 C8         -0.0400    0.5560    2.3210 ce        1 25O     -0.167100
      7 C9         -0.6350    0.3180    1.1610 c1        1 25O      0.083200
      8 C10        -2.3290    1.2540   -2.8710 cd        1 25O      0.416500
      9 N1         -2.0770    0.3800   -3.9120 nc        1 25O     -0.637000
     10 N2         -3.1220    2.3700   -2.8330 nc        1 25O     -0.394300
     11 C3         -0.8690    0.0130   -1.3110 cc        1 25O      0.128900
     12 C1         -1.2550   -0.6370   -3.6510 cd        1 25O      0.468600
     13 C          -0.9370   -1.6290   -4.7250 c3        1 25O     -0.156400
     14 N4         -2.1140    2.0630   -0.7130 nd        1 25O     -0.614100
     15 N          -1.7150    1.0890   -1.5420 na        1 25O      0.028200
     16 C2         -0.6390   -0.8550   -2.3750 cd        1 25O     -0.330300
     17 H1          1.5460   -0.9640   -0.8490 hc        1 25O      0.075700
     18 H2          0.8620   -2.0500    0.4370 hc        1 25O      0.075700
     19 H3          2.9660   -0.5360    1.0840 ha        1 25O      0.138000
     20 H4          2.0650    1.0160    2.8750 ha        1 25O      0.146000
     21 H5         -0.4910    0.6520    3.3100 ha        1 25O      0.169000
     22 H6         -3.3060    4.3610   -0.2060 hn        1 25O      0.413300
     23 H7         -4.0570    4.5350   -1.6930 hn        1 25O      0.413300
     24 H8          0.1680   -1.6450   -4.8920 hc        1 25O      0.061367
     25 H9         -1.2680   -2.6440   -4.3920 hc        1 25O      0.061367
     26 H10        -1.4430   -1.3880   -5.6920 hc        1 25O      0.061367
     27 H11         0.0090   -1.7300   -2.2350 ha        1 25O      0.158000
     28 N3         -3.7190    3.9110   -0.9930 nv        1 25O     -0.849800
@<TRIPOS>BOND
     1    1    2 1   
     2    1    7 2   
     3    1   11 1   
     4    2    3 1   
     5    2   17 1   
     6    2   18 1   
     7    3    5 2   
     8    3   19 1   
     9    4   10 1   
    10    4   14 2   
    11    4   28 1   
    12    5    6 1   
    13    5   20 1   
    14    6    7 2   
    15    6   21 1   
    16    8    9 1   
    17    8   10 2   
    18    8   15 1   
    19    9   12 2   
    20   11   15 1   
    21   11   16 2   
    22   12   13 1   
    23   12   16 1   
    24   13   24 1   
    25   13   25 1   
    26   13   26 1   
    27   14   15 1   
    28   16   27 1   
    29   22   28 1   
    30   23   28 1   
@<TRIPOS>SUBSTRUCTURE
     1 25O         1 TEMP              0 ****  ****    0 ROOT
