@<TRIPOS>MOLECULE
25O
   29    31     1     0     0
SMALL
bcc


@<TRIPOS>ATOM
      1 C4         -0.2380   -0.1680    0.0300 ce        1 25O     -0.171500
      2 C5          1.0140   -0.9860    0.2620 c3        1 25O     -0.012000
      3 C6          1.8890   -0.3070    1.2840 c2        1 25O     -0.129200
      4 C11        -2.8900    2.7820   -1.7010 cc        1 25O      0.484200
      5 C7          1.4370    0.5820    2.1980 ce        1 25O     -0.149000
      6 C8         -0.0250    0.7170    2.3130 ce        1 25O     -0.113100
      7 C9         -0.6000    0.4720    1.1420 c1        1 25O      0.034200
      8 C10        -2.2360    1.1350   -2.9560 cd        1 25O      0.436500
      9 N1         -1.9740    0.2070   -3.9420 nc        1 25O     -0.617000
     10 N2         -3.0330    2.2600   -3.0000 nc        1 25O     -0.322300
     11 C3         -0.8020   -0.0280   -1.2940 cc        1 25O      0.139900
     12 C1         -1.1650   -0.8010   -3.6120 cd        1 25O      0.509600
     13 C          -0.8350   -1.8540   -4.6210 c3        1 25O     -0.172400
     14 N4         -2.0570    2.0610   -0.8480 nd        1 25O     -0.483100
     15 N          -1.6510    1.0500   -1.6070 na        1 25O      0.030200
     16 C2         -0.5750   -0.9480   -2.3060 cd        1 25O     -0.287300
     17 H1          1.5740   -1.0490   -0.7100 hc        1 25O      0.087200
     18 H2          0.7950   -2.0320    0.6060 hc        1 25O      0.087200
     19 H3          2.9470   -0.6120    1.2600 ha        1 25O      0.158000
     20 H4          2.0820    1.1050    2.9150 ha        1 25O      0.165000
     21 H5         -0.5040    0.8760    3.2840 ha        1 25O      0.181000
     22 H6         -4.5940    3.8620   -1.4070 hn        1 25O      0.481467
     23 H7         -3.2740    4.7740   -1.9070 hn        1 25O      0.481467
     24 H8         -1.3240   -1.6700   -5.6100 hc        1 25O      0.083367
     25 H9          0.2740   -1.8820   -4.7690 hc        1 25O      0.083367
     26 H10        -1.1730   -2.8480   -4.2330 hc        1 25O      0.083367
     27 H11         0.0630   -1.8240   -2.1090 ha        1 25O      0.186000
     28 H33        -3.3630    4.2250   -0.3170 hn        1 25O      0.481467
     29 N3         -3.5800    4.0030   -1.2970 n4        1 25O     -0.735600
@<TRIPOS>BOND
     1    1    2 1   
     2    1    7 2   
     3    1   11 1   
     4    2    3 1   
     5    2   17 1   
     6    2   18 1   
     7    3    5 2   
     8    3   19 1   
     9    4   10 1   
    10    4   14 2   
    11    4   29 1   
    12    5    6 1   
    13    5   20 1   
    14    6    7 2   
    15    6   21 1   
    16    8    9 1   
    17    8   10 2   
    18    8   15 1   
    19    9   12 2   
    20   11   15 1   
    21   11   16 2   
    22   12   13 1   
    23   12   16 1   
    24   13   24 1   
    25   13   25 1   
    26   13   26 1   
    27   14   15 1   
    28   16   27 1   
    29   22   29 1   
    30   23   29 1   
    31   28   29 1   
@<TRIPOS>SUBSTRUCTURE
     1 25O         1 TEMP              0 ****  ****    0 ROOT
