@<TRIPOS>MOLECULE
25O
   28    30     1     0     0
SMALL
bcc


@<TRIPOS>ATOM
      1 C4          1.6180    0.1760   -0.0250 ca        1 25O     -0.070000
      2 C5          2.4870    0.8130    0.8730 ca        1 25O     -0.089500
      3 C6          3.8410    0.4860    0.8830 ca        1 25O     -0.136500
      4 C11        -2.0720   -2.1420   -0.0510 cc        1 25O      0.705200
      5 C7          4.3360   -0.4750    0.0000 ca        1 25O     -0.109000
      6 C8          3.4740   -1.1090   -0.8930 ca        1 25O     -0.136500
      7 C9          2.1160   -0.7900   -0.9080 ca        1 25O     -0.089500
      8 C10        -2.2130    0.0500   -0.0410 cd        1 25O      0.418500
      9 N1         -2.5660    1.3880   -0.0350 nd        1 25O     -0.637000
     10 N2         -3.0070   -1.0660   -0.0400 nc        1 25O     -0.393300
     11 C3          0.2000    0.5590   -0.0320 cd        1 25O      0.118700
     12 C1         -1.5650    2.2680   -0.0270 cc        1 25O      0.469600
     13 C          -1.8630    3.7350   -0.0230 c3        1 25O     -0.157400
     14 N4         -0.7340   -1.7300   -0.0390 nd        1 25O     -0.628100
     15 N          -0.8090   -0.3900   -0.0410 na        1 25O      0.025200
     16 C2         -0.1780    1.8960   -0.0230 cc        1 25O     -0.324300
     17 H1          2.0960    1.5670    1.5730 ha        1 25O      0.146000
     18 H2          4.5190    0.9850    1.5920 ha        1 25O      0.138000
     19 H3          5.4050   -0.7320    0.0110 ha        1 25O      0.136000
     20 H4          3.8620   -1.8670   -1.5890 ha        1 25O      0.138000
     21 H5          1.4440   -1.2990   -1.6160 ha        1 25O      0.146000
     22 H6         -1.8050   -4.1310    0.1980 hn        1 25O      0.413800
     23 H7         -3.4070   -3.6480    0.1160 hn        1 25O      0.413800
     24 H8         -2.9600    3.9480   -0.0150 hc        1 25O      0.063033
     25 H9         -1.4010    4.1980    0.8840 hc        1 25O      0.063033
     26 H10        -1.4130    4.2000   -0.9350 hc        1 25O      0.063033
     27 H11         0.5920    2.6780   -0.0230 ha        1 25O      0.164000
     28 N3         -2.4650   -3.4760   -0.1620 nh        1 25O     -0.850800
@<TRIPOS>BOND
     1    1    2 ar  
     2    1    7 ar  
     3    1   11 1   
     4    2    3 ar  
     5    2   17 1   
     6    3    5 ar  
     7    3   18 1   
     8    4   10 1   
     9    4   14 2   
    10    4   28 1   
    11    5    6 ar  
    12    5   19 1   
    13    6    7 ar  
    14    6   20 1   
    15    7   21 1   
    16    8    9 1   
    17    8   10 2   
    18    8   15 1   
    19    9   12 2   
    20   11   15 1   
    21   11   16 2   
    22   12   13 1   
    23   12   16 1   
    24   13   24 1   
    25   13   25 1   
    26   13   26 1   
    27   14   15 1   
    28   16   27 1   
    29   22   28 1   
    30   23   28 1   
@<TRIPOS>SUBSTRUCTURE
     1 25O         1 TEMP              0 ****  ****    0 ROOT
