@<TRIPOS>MOLECULE
25O
   28    22     1     0     0
SMALL
bcc


@<TRIPOS>ATOM
      1 C4          0.7800   -0.2840    1.1400 c1        1 25O     -0.070000
      2 C5          0.1080   -0.6570    2.2620 c2        1 25O     -0.077000
      3 C6          0.7780   -0.6880    3.4990 c1        1 25O     -0.136000
      4 C11        -1.6400    2.6890   -1.0210 c1        1 25O      0.046000
      5 C7          2.0980   -0.3440    3.5710 c1        1 25O     -0.123000
      6 C8          2.7790    0.0330    2.4420 c1        1 25O     -0.123000
      7 C9          2.1390    0.0680    1.2270 c1        1 25O     -0.102000
      8 C10        -1.3510    0.6670   -1.8300 c1        1 25O      0.067000
      9 N1         -1.3550   -0.5050   -2.5430 n1        1 25O     -0.111000
     10 N2         -1.9690    1.8590   -2.0410 n1        1 25O     -0.174000
     11 C3          0.0890   -0.3320   -0.2150 c1        1 25O      0.143000
     12 N3         -2.0090    4.0790   -0.9870 n2        1 25O     -0.289000
     13 C1         -0.6530   -1.5670   -2.1010 c1        1 25O      0.047000
     14 C          -0.7600   -2.6820   -3.0790 c3        1 25O     -0.181000
     15 N4         -0.8080    2.0040   -0.1670 n2        1 25O     -0.161000
     16 N          -0.6320    0.7600   -0.6690 n2        1 25O     -0.090000
     17 C2          0.0820   -1.4780   -0.9160 c1        1 25O     -0.259000
     18 H1         -0.7990   -0.8940    2.2120 ha        1 25O      0.154000
     19 H2          0.3130   -0.9490    4.2910 ha        1 25O      0.139000
     20 H3          2.5520   -0.3650    4.4140 ha        1 25O      0.136500
     21 H4          3.7180    0.2760    2.5050 ha        1 25O      0.136500
     22 H5          2.6270    0.3370    0.4280 ha        1 25O      0.138000
     23 H6         -2.5960    4.4110   -1.6060 hn        1 25O      0.209000
     24 H7         -1.7230    4.5780   -0.3670 hn        1 25O      0.209000
     25 H8         -0.3440   -2.4330   -3.8870 hc        1 25O      0.102333
     26 H9         -1.6850   -2.8790   -3.2440 hc        1 25O      0.102333
     27 H10        -0.3200   -3.4680   -2.7150 hc        1 25O      0.102333
     28 H11         0.5830   -2.2360   -0.6040 ha        1 25O      0.164000
@<TRIPOS>BOND
     1    1    2 1   
     2    1    7 1   
     3    2    3 1   
     4    2   18 1   
     5    3   19 1   
     6    4   10 1   
     7    4   15 1   
     8    5    6 1   
     9    5   20 1   
    10    6   21 1   
    11    7   22 1   
    12    8   16 1   
    13    9   13 1   
    14   11   17 1   
    15   12   23 1   
    16   12   24 1   
    17   13   14 1   
    18   14   25 1   
    19   14   26 1   
    20   14   27 1   
    21   15   16 1   
    22   17   28 1   
@<TRIPOS>SUBSTRUCTURE
     1 25O         1 TEMP              0 ****  ****    0 ROOT
