@<TRIPOS>MOLECULE
25P
   50    52     1     0     0
SMALL
bcc


@<TRIPOS>ATOM
      1 CAD         0.3980   -0.2050    0.0490 ca        1 25P     -0.167500
      2 CAC         1.7770   -0.3820    0.1300 ca        1 25P     -0.094500
      3 CAB         2.3770   -0.6010    1.3730 ca        1 25P     -0.020600
      4 CLAG        4.0630   -0.8190    1.4690 cl        1 25P     -0.107400
      5 CAA         1.6070   -0.6430    2.5410 ca        1 25P     -0.094500
      6 CAF         0.2310   -0.4680    2.4710 ca        1 25P     -0.167500
      7 CAE        -0.3710   -0.2490    1.2180 ca        1 25P      0.129100
      8 OAH        -1.7470   -0.0830    1.2560 os        1 25P     -0.247200
      9 CAI        -2.3810    0.1000    0.0230 ca        1 25P      0.024100
     10 CAN        -2.8360   -1.0200   -0.6870 ca        1 25P     -0.095000
     11 CAM        -3.5900   -0.8360   -1.8370 ca        1 25P     -0.180000
     12 CAJ        -2.6700    1.3990   -0.4050 ca        1 25P     -0.095000
     13 CAK        -3.4270    1.5880   -1.5590 ca        1 25P     -0.180000
     14 CAL        -3.8850    0.4720   -2.2750 ca        1 25P      0.144100
     15 OAO        -4.6310    0.5330   -3.4290 os        1 25P     -0.327900
     16 CAP        -4.9570    1.8510   -3.8980 c3        1 25P      0.097400
     17 CAQ        -5.8090    1.6390   -5.1660 c3        1 25P      0.182500
     18 CAR        -4.9920    0.8760   -6.2340 c3        1 25P     -0.081400
     19 CAS        -4.8170    1.8360   -7.4040 c3        1 25P     -0.091400
     20 CAT        -5.5860    3.1100   -7.0240 c3        1 25P      0.159800
     21 NAU        -6.3300    2.8580   -5.7900 n3        1 25P     -0.726600
     22 CAV        -6.4630    4.0110   -4.9170 c3        1 25P      0.166800
     23 CAW        -7.0620    5.2440   -5.5930 c3        1 25P     -0.067400
     24 CAX        -7.2110    6.3690   -4.5980 c3        1 25P     -0.199400
     25 CAY        -7.4170    7.7210   -5.3080 c         1 25P      0.910600
     26 OBA        -6.7020    7.9850   -6.3170 o         1 25P     -0.848800
     27 OAZ        -8.2800    8.5090   -4.8260 o         1 25P     -0.848800
     28 HAD        -0.0840   -0.0310   -0.9250 ha        1 25P      0.154500
     29 HAC         2.3870   -0.3470   -0.7850 ha        1 25P      0.146000
     30 HAA         2.0880   -0.8130    3.5170 ha        1 25P      0.146000
     31 HAF        -0.3930   -0.4950    3.3760 ha        1 25P      0.154500
     32 HAN        -2.6010   -2.0320   -0.3250 ha        1 25P      0.147500
     33 HAM        -3.9660   -1.6930   -2.4130 ha        1 25P      0.153500
     34 HAJ        -2.3100    2.2630    0.1730 ha        1 25P      0.147500
     35 HAK        -3.6590    2.6100   -1.8920 ha        1 25P      0.153500
     36 HAP        -5.5410    2.3880   -3.1050 h1        1 25P      0.050200
     37 HAPA       -4.0130    2.4080   -4.1270 h1        1 25P      0.050200
     38 HAQ        -6.7050    1.0260   -4.8610 h1        1 25P      0.065700
     39 HAR        -5.5490   -0.0400   -6.5500 hc        1 25P      0.045200
     40 HARA       -4.0080    0.5500   -5.8200 hc        1 25P      0.045200
     41 HAS        -5.2270    1.3970   -8.3450 hc        1 25P      0.039200
     42 HASA       -3.7390    2.0690   -7.5780 hc        1 25P      0.039200
     43 HAT        -6.3390    3.3800   -7.8140 h1        1 25P      0.051200
     44 HATA       -4.8730    3.9750   -6.9240 h1        1 25P      0.051200
     45 HAV        -7.1380    3.7020   -4.0680 h1        1 25P      0.018200
     46 HAVA       -5.4670    4.3110   -4.4700 h1        1 25P      0.018200
     47 HAW        -6.4010    5.5940   -6.4320 hc        1 25P      0.054700
     48 HAWA       -8.0600    4.9930   -6.0350 hc        1 25P      0.054700
     49 HAX        -6.2860    6.4600   -3.9720 hc        1 25P      0.020200
     50 HAXA       -8.0720    6.1740   -3.9120 hc        1 25P      0.020200
@<TRIPOS>BOND
     1    1    2 ar  
     2    1    7 ar  
     3    1   28 1   
     4    2    3 ar  
     5    2   29 1   
     6    3    4 1   
     7    3    5 ar  
     8    5    6 ar  
     9    5   30 1   
    10    6    7 ar  
    11    6   31 1   
    12    7    8 1   
    13    8    9 1   
    14    9   10 ar  
    15    9   12 ar  
    16   10   11 ar  
    17   10   32 1   
    18   11   14 ar  
    19   11   33 1   
    20   12   13 ar  
    21   12   34 1   
    22   13   14 ar  
    23   13   35 1   
    24   14   15 1   
    25   15   16 1   
    26   16   17 1   
    27   16   36 1   
    28   16   37 1   
    29   17   18 1   
    30   17   21 1   
    31   17   38 1   
    32   18   19 1   
    33   18   39 1   
    34   18   40 1   
    35   19   20 1   
    36   19   41 1   
    37   19   42 1   
    38   20   21 1   
    39   20   43 1   
    40   20   44 1   
    41   21   22 1   
    42   22   23 1   
    43   22   45 1   
    44   22   46 1   
    45   23   24 1   
    46   23   47 1   
    47   23   48 1   
    48   24   25 1   
    49   24   49 1   
    50   24   50 1   
    51   25   26 1   
    52   25   27 1   
@<TRIPOS>SUBSTRUCTURE
     1 25P         1 TEMP              0 ****  ****    0 ROOT
