@<TRIPOS>MOLECULE
25P
   50    52     1     0     0
SMALL
bcc


@<TRIPOS>ATOM
      1 CAD        -4.7070    0.1000   -0.4490 ca        1 25P     -0.167500
      2 CAC        -5.7700   -0.0250   -1.3390 ca        1 25P     -0.094500
      3 CAB        -6.9980   -0.5180   -0.8910 ca        1 25P     -0.020600
      4 CLAG       -8.2970   -0.6680   -1.9820 cl        1 25P     -0.107400
      5 CAA        -7.1730   -0.8910    0.4470 ca        1 25P     -0.094500
      6 CAF        -6.1190   -0.7700    1.3440 ca        1 25P     -0.167500
      7 CAE        -4.8840   -0.2720    0.8890 ca        1 25P      0.129100
      8 OAH        -3.8970   -0.1930    1.8600 os        1 25P     -0.247200
      9 CAI        -2.6680    0.3320    1.4490 ca        1 25P      0.024100
     10 CAN        -2.4490    1.7140    1.5400 ca        1 25P     -0.095000
     11 CAM        -1.1860    2.2220    1.2710 ca        1 25P     -0.180000
     12 CAJ        -1.6400   -0.5450    1.0920 ca        1 25P     -0.095000
     13 CAK        -0.3710   -0.0390    0.8210 ca        1 25P     -0.180000
     14 CAL        -0.1440    1.3420    0.9080 ca        1 25P      0.144100
     15 OAO         1.0600    1.9570    0.6570 os        1 25P     -0.327900
     16 CAP         2.1460    1.0890    0.2940 c3        1 25P      0.097400
     17 CAQ         3.3660    2.0120    0.1000 c3        1 25P      0.182500
     18 CAR         3.0900    3.0280   -1.0320 c3        1 25P     -0.081400
     19 CAS         4.0820    2.7080   -2.1430 c3        1 25P     -0.091400
     20 CAT         4.9550    1.5610   -1.6130 c3        1 25P      0.159800
     21 NAU         4.6300    1.3350   -0.2050 n3        1 25P     -0.726600
     22 CAV         4.7290   -0.0480    0.2260 c3        1 25P      0.166800
     23 CAW         6.0820   -0.6980   -0.0630 c3        1 25P     -0.067400
     24 CAX         6.1090   -2.1110    0.4680 c3        1 25P     -0.199400
     25 CAY         7.2690   -2.9170   -0.1480 c         1 25P      0.910600
     26 OBA         7.4890   -2.8020   -1.3890 o         1 25P     -0.848800
     27 OAZ         7.9280   -3.6740    0.6200 o         1 25P     -0.848800
     28 HAD        -3.7360    0.4860   -0.7930 ha        1 25P      0.154500
     29 HAC        -5.6370    0.2640   -2.3930 ha        1 25P      0.146000
     30 HAA        -8.1430   -1.2810    0.7920 ha        1 25P      0.146000
     31 HAF        -6.2330   -1.0590    2.3980 ha        1 25P      0.154500
     32 HAN        -3.2730    2.3820    1.8310 ha        1 25P      0.147500
     33 HAM        -0.9810    3.3000    1.3380 ha        1 25P      0.153500
     34 HAJ        -1.8330   -1.6270    1.0360 ha        1 25P      0.147500
     35 HAK         0.4390   -0.7310    0.5450 ha        1 25P      0.153500
     36 HAP         2.3220    0.3570    1.1250 h1        1 25P      0.050200
     37 HAPA        1.8880    0.5460   -0.6520 h1        1 25P      0.050200
     38 HAQ         3.5220    2.5590    1.0750 h1        1 25P      0.065700
     39 HAR         2.0340    2.9460   -1.3880 hc        1 25P      0.045200
     40 HARA        3.2410    4.0660   -0.6490 hc        1 25P      0.045200
     41 HAS         3.5550    2.3980   -3.0780 hc        1 25P      0.039200
     42 HASA        4.7110    3.5990   -2.3850 hc        1 25P      0.039200
     43 HAT         4.8010    0.6390   -2.2410 h1        1 25P      0.051200
     44 HATA        6.0450    1.8260   -1.6610 h1        1 25P      0.051200
     45 HAV         4.5550   -0.0560    1.3390 h1        1 25P      0.018200
     46 HAVA        3.9280   -0.6900   -0.2510 h1        1 25P      0.018200
     47 HAW         6.2780   -0.7270   -1.1690 hc        1 25P      0.054700
     48 HAWA        6.9040   -0.1000    0.4080 hc        1 25P      0.054700
     49 HAX         6.2080   -2.1110    1.5810 hc        1 25P      0.020200
     50 HAXA        5.1590   -2.6430    0.2060 hc        1 25P      0.020200
@<TRIPOS>BOND
     1    1    2 ar  
     2    1    7 ar  
     3    1   28 1   
     4    2    3 ar  
     5    2   29 1   
     6    3    4 1   
     7    3    5 ar  
     8    5    6 ar  
     9    5   30 1   
    10    6    7 ar  
    11    6   31 1   
    12    7    8 1   
    13    8    9 1   
    14    9   10 ar  
    15    9   12 ar  
    16   10   11 ar  
    17   10   32 1   
    18   11   14 ar  
    19   11   33 1   
    20   12   13 ar  
    21   12   34 1   
    22   13   14 ar  
    23   13   35 1   
    24   14   15 1   
    25   15   16 1   
    26   16   17 1   
    27   16   36 1   
    28   16   37 1   
    29   17   18 1   
    30   17   21 1   
    31   17   38 1   
    32   18   19 1   
    33   18   39 1   
    34   18   40 1   
    35   19   20 1   
    36   19   41 1   
    37   19   42 1   
    38   20   21 1   
    39   20   43 1   
    40   20   44 1   
    41   21   22 1   
    42   22   23 1   
    43   22   45 1   
    44   22   46 1   
    45   23   24 1   
    46   23   47 1   
    47   23   48 1   
    48   24   25 1   
    49   24   49 1   
    50   24   50 1   
    51   25   26 1   
    52   25   27 1   
@<TRIPOS>SUBSTRUCTURE
     1 25P         1 TEMP              0 ****  ****    0 ROOT
