@<TRIPOS>MOLECULE
25P
   50    47     1     0     0
SMALL
bcc


@<TRIPOS>ATOM
      1 CAD        -0.9740   -2.7540    4.4190 c1        1 25P     -0.152000
      2 CAC        -1.9780   -2.1490    5.1600 c1        1 25P     -0.098000
      3 CAB        -1.6810   -1.0870    5.9880 c1        1 25P     -0.099000
      4 CLAG       -2.9190   -0.4130    7.0140 cl        1 25P     -0.029000
      5 CAA        -0.3800   -0.6260    6.0800 c2        1 25P     -0.090000
      6 CAF         0.6250   -1.2310    5.3390 c1        1 25P     -0.182000
      7 CAE         0.3260   -2.2930    4.5100 c1        1 25P      0.084000
      8 OAH         1.3550   -2.9420    3.7970 os        1 25P     -0.157000
      9 CAI         1.4890   -2.3500    2.5250 c2        1 25P     -0.021000
     10 CAN         0.5670   -2.6330    1.5300 c1        1 25P     -0.088000
     11 CAM         0.7660   -2.1560    0.2420 c1        1 25P     -0.195000
     12 CAJ         2.6100   -1.5910    2.2320 c2        1 25P     -0.103000
     13 CAK         2.8090   -1.1150    0.9480 c1        1 25P     -0.162000
     14 CAL         1.8850   -1.3980   -0.0480 c1        1 25P      0.096000
     15 OAO         2.1050   -0.9450   -1.3580 os        1 25P     -0.213000
     16 CAP         1.3650    0.2150   -1.6950 c3        1 25P     -0.052000
     17 CAQ         1.0900    0.2100   -3.0610 c3        1 25P     -0.045000
     18 CAR         2.3050    0.6970   -3.8490 c3        1 25P     -0.161000
     19 CAS         1.8380    1.5940   -4.6740 c3        1 25P     -0.169000
     20 CAT         0.5160    2.2010   -3.9760 c3        1 25P     -0.074000
     21 NAU        -0.0640    1.2210   -3.3890 n3        1 25P     -0.250000
     22 CAV        -0.6690    1.6860   -2.1520 c3        1 25P     -0.071000
     23 CAW        -2.0960    2.1760   -2.4330 c3        1 25P     -0.140000
     24 CAX        -3.0140    1.7600   -1.2810 c3        1 25P     -0.229000
     25 CAY        -4.4670    2.0150   -1.6710 c2        1 25P      0.330000
     26 OBA        -5.0450    3.0710   -1.2920 o         1 25P     -0.582500
     27 OAZ        -5.1170    1.1290   -2.2820 o         1 25P     -0.582500
     28 HAD        -1.1840   -3.5030    3.8340 ha        1 25P      0.152000
     29 HAC        -2.8870   -2.4710    5.0950 ha        1 25P      0.144000
     30 HAA        -0.1700    0.1200    6.6620 ha        1 25P      0.148000
     31 HAF         1.5390   -0.9080    5.4030 ha        1 25P      0.157000
     32 HAN        -0.2190   -3.1650    1.7340 ha        1 25P      0.152000
     33 HAM         0.1140   -2.3560   -0.4610 ha        1 25P      0.162000
     34 HAJ         3.2640   -1.3900    2.9360 ha        1 25P      0.144000
     35 HAK         3.5980   -0.5800    0.7420 ha        1 25P      0.149000
     36 HAP         1.8890    1.0160   -1.4690 h1        1 25P      0.106000
     37 HAPA        0.5280    0.2230   -1.1950 h1        1 25P      0.106000
     38 HAQ         0.8410   -0.6900   -3.3510 h1        1 25P      0.100000
     39 HAR         2.7080   -0.0450   -4.3460 hc        1 25P      0.085500
     40 HARA        2.9640    1.1010   -3.2440 hc        1 25P      0.085500
     41 HAS         2.5030    2.3030   -4.8130 hc        1 25P      0.079000
     42 HASA        1.6060    1.1760   -5.5280 hc        1 25P      0.079000
     43 HAT         0.7660    2.8870   -3.3200 h1        1 25P      0.087000
     44 HATA       -0.0760    2.5840   -4.6540 h1        1 25P      0.087000
     45 HAV        -0.6980    0.9550   -1.5110 h1        1 25P      0.056000
     46 HAVA       -0.1360    2.4240   -1.7830 h1        1 25P      0.056000
     47 HAW        -2.0970    3.1520   -2.5150 hc        1 25P      0.093000
     48 HAWA       -2.4190    1.7790   -3.2660 hc        1 25P      0.093000
     49 HAX        -2.7940    2.2830   -0.4840 hc        1 25P      0.058500
     50 HAXA       -2.8900    0.8130   -1.0930 hc        1 25P      0.058500
@<TRIPOS>BOND
     1    1    7 1   
     2    1   28 1   
     3    2    3 1   
     4    2   29 1   
     5    3    5 1   
     6    5    6 1   
     7    5   30 1   
     8    6   31 1   
     9    7    8 1   
    10    8    9 1   
    11    9   10 1   
    12    9   12 1   
    13   10   32 1   
    14   11   14 1   
    15   11   33 1   
    16   12   13 1   
    17   12   34 1   
    18   13   35 1   
    19   14   15 1   
    20   15   16 1   
    21   16   17 1   
    22   16   36 1   
    23   16   37 1   
    24   17   18 1   
    25   17   21 1   
    26   17   38 1   
    27   18   19 1   
    28   18   39 1   
    29   18   40 1   
    30   19   20 1   
    31   19   41 1   
    32   19   42 1   
    33   20   21 1   
    34   20   43 1   
    35   20   44 1   
    36   21   22 1   
    37   22   23 1   
    38   22   45 1   
    39   22   46 1   
    40   23   24 1   
    41   23   47 1   
    42   23   48 1   
    43   24   25 1   
    44   24   49 1   
    45   24   50 1   
    46   25   26 1   
    47   25   27 1   
@<TRIPOS>SUBSTRUCTURE
     1 25P         1 TEMP              0 ****  ****    0 ROOT
