@<TRIPOS>MOLECULE
25P
   50    52     1     0     0
SMALL
bcc


@<TRIPOS>ATOM
      1 CAD         0.3940   -0.1960    0.0480 ca        1 25P     -0.167500
      2 CAC         1.7750   -0.3570    0.1320 ca        1 25P     -0.094500
      3 CAB         2.3740   -0.5810    1.3740 ca        1 25P     -0.020600
      4 CLAG        4.0620   -0.7790    1.4740 cl        1 25P     -0.107400
      5 CAA         1.6010   -0.6430    2.5400 ca        1 25P     -0.094500
      6 CAF         0.2230   -0.4840    2.4660 ca        1 25P     -0.167500
      7 CAE        -0.3770   -0.2610    1.2140 ca        1 25P      0.129100
      8 OAH        -1.7560   -0.1130    1.2490 os        1 25P     -0.247200
      9 CAI        -2.3870    0.0780    0.0160 ca        1 25P      0.024100
     10 CAN        -2.8400   -1.0390   -0.7010 ca        1 25P     -0.095000
     11 CAM        -3.5920   -0.8500   -1.8510 ca        1 25P     -0.180000
     12 CAJ        -2.6780    1.3790   -0.4050 ca        1 25P     -0.095000
     13 CAK        -3.4330    1.5730   -1.5600 ca        1 25P     -0.180000
     14 CAL        -3.8880    0.4610   -2.2830 ca        1 25P      0.144100
     15 OAO        -4.6320    0.5270   -3.4380 os        1 25P     -0.327900
     16 CAP        -4.9580    1.8480   -3.9010 c3        1 25P      0.097400
     17 CAQ        -5.8060    1.6410   -5.1720 c3        1 25P      0.182500
     18 CAR        -4.9880    0.8830   -6.2420 c3        1 25P     -0.081400
     19 CAS        -4.8110    1.8490   -7.4070 c3        1 25P     -0.091400
     20 CAT        -5.5800    3.1210   -7.0220 c3        1 25P      0.159800
     21 NAU        -6.3270    2.8640   -5.7910 n3        1 25P     -0.726600
     22 CAV        -6.4600    4.0130   -4.9120 c3        1 25P      0.166800
     23 CAW        -7.0580    5.2490   -5.5840 c3        1 25P     -0.067400
     24 CAX        -7.2080    6.3690   -4.5830 c3        1 25P     -0.199400
     25 CAY        -7.4120    7.7240   -5.2880 c         1 25P      0.910600
     26 OBA        -6.6950    7.9930   -6.2940 o         1 25P     -0.848800
     27 OAZ        -8.2750    8.5110   -4.8040 o         1 25P     -0.848800
     28 HAD        -0.0860   -0.0180   -0.9260 ha        1 25P      0.154500
     29 HAC         2.3880   -0.3060   -0.7810 ha        1 25P      0.146000
     30 HAA         2.0810   -0.8180    3.5150 ha        1 25P      0.146000
     31 HAF        -0.4030   -0.5280    3.3690 ha        1 25P      0.154500
     32 HAN        -2.6040   -2.0520   -0.3440 ha        1 25P      0.147500
     33 HAM        -3.9660   -1.7040   -2.4330 ha        1 25P      0.153500
     34 HAJ        -2.3200    2.2400    0.1780 ha        1 25P      0.147500
     35 HAK        -3.6660    2.5970   -1.8880 ha        1 25P      0.153500
     36 HAP        -5.5430    2.3800   -3.1070 h1        1 25P      0.050200
     37 HAPA       -4.0120    2.4060   -4.1260 h1        1 25P      0.050200
     38 HAQ        -6.7040    1.0270   -4.8720 h1        1 25P      0.065700
     39 HAR        -4.0040    0.5550   -5.8280 hc        1 25P      0.045200
     40 HARA       -5.5440   -0.0310   -6.5630 hc        1 25P      0.045200
     41 HAS        -5.2200    1.4150   -8.3510 hc        1 25P      0.039200
     42 HASA       -3.7320    2.0820   -7.5780 hc        1 25P      0.039200
     43 HAT        -4.8670    3.9860   -6.9180 h1        1 25P      0.051200
     44 HATA       -6.3310    3.3950   -7.8120 h1        1 25P      0.051200
     45 HAV        -7.1370    3.7000   -4.0670 h1        1 25P      0.018200
     46 HAVA       -5.4650    4.3100   -4.4630 h1        1 25P      0.018200
     47 HAW        -6.3950    5.6020   -6.4200 hc        1 25P      0.054700
     48 HAWA       -8.0550    5.0000   -6.0290 hc        1 25P      0.054700
     49 HAX        -6.2850    6.4560   -3.9560 hc        1 25P      0.020200
     50 HAXA       -8.0710    6.1720   -3.9000 hc        1 25P      0.020200
@<TRIPOS>BOND
     1    1    2 ar  
     2    1    7 ar  
     3    1   28 1   
     4    2    3 ar  
     5    2   29 1   
     6    3    4 1   
     7    3    5 ar  
     8    5    6 ar  
     9    5   30 1   
    10    6    7 ar  
    11    6   31 1   
    12    7    8 1   
    13    8    9 1   
    14    9   10 ar  
    15    9   12 ar  
    16   10   11 ar  
    17   10   32 1   
    18   11   14 ar  
    19   11   33 1   
    20   12   13 ar  
    21   12   34 1   
    22   13   14 ar  
    23   13   35 1   
    24   14   15 1   
    25   15   16 1   
    26   16   17 1   
    27   16   36 1   
    28   16   37 1   
    29   17   18 1   
    30   17   21 1   
    31   17   38 1   
    32   18   19 1   
    33   18   39 1   
    34   18   40 1   
    35   19   20 1   
    36   19   41 1   
    37   19   42 1   
    38   20   21 1   
    39   20   43 1   
    40   20   44 1   
    41   21   22 1   
    42   22   23 1   
    43   22   45 1   
    44   22   46 1   
    45   23   24 1   
    46   23   47 1   
    47   23   48 1   
    48   24   25 1   
    49   24   49 1   
    50   24   50 1   
    51   25   26 1   
    52   25   27 1   
@<TRIPOS>SUBSTRUCTURE
     1 25P         1 TEMP              0 ****  ****    0 ROOT
