@<TRIPOS>MOLECULE
25P
   50    52     1     0     0
SMALL
bcc


@<TRIPOS>ATOM
      1 CAD         0.3970   -0.1990    0.0460 ca        1 25P     -0.167500
      2 CAC         1.7770   -0.3690    0.1270 ca        1 25P     -0.094500
      3 CAB         2.3790   -0.5880    1.3680 ca        1 25P     -0.020600
      4 ClAG        4.0660   -0.7970    1.4630 cl        1 25P     -0.107400
      5 CAA         1.6100   -0.6370    2.5370 ca        1 25P     -0.094500
      6 CAF         0.2320   -0.4690    2.4680 ca        1 25P     -0.167500
      7 CAE        -0.3710   -0.2500    1.2150 ca        1 25P      0.129100
      8 OAH        -1.7480   -0.0920    1.2550 os        1 25P     -0.247200
      9 CAI        -2.3820    0.0940    0.0220 ca        1 25P      0.024100
     10 CAN        -2.8410   -1.0260   -0.6860 ca        1 25P     -0.094500
     11 CAM        -3.5960   -0.8410   -1.8360 ca        1 25P     -0.180000
     12 CAJ        -2.6700    1.3930   -0.4050 ca        1 25P     -0.094500
     13 CAK        -3.4280    1.5830   -1.5590 ca        1 25P     -0.180000
     14 CAL        -3.8890    0.4680   -2.2740 ca        1 25P      0.144100
     15 OAO        -4.6360    0.5300   -3.4270 os        1 25P     -0.327900
     16 CAP        -4.9600    1.8490   -3.8970 c3        1 25P      0.097400
     17 CAQ        -5.8130    1.6380   -5.1640 c3        1 25P      0.182500
     18 CAR        -5.0000    0.8720   -6.2320 c3        1 25P     -0.081400
     19 CAS        -4.8240    1.8310   -7.4020 c3        1 25P     -0.091400
     20 CAT        -5.5890    3.1070   -7.0230 c3        1 25P      0.159800
     21 NAU        -6.3320    2.8580   -5.7870 n3        1 25P     -0.726600
     22 CAV        -6.4610    4.0120   -4.9150 c3        1 25P      0.166800
     23 CAW        -7.0570    5.2460   -5.5920 c3        1 25P     -0.067400
     24 CAX        -7.2020    6.3720   -4.5970 c3        1 25P     -0.199400
     25 CAY        -7.4050    7.7240   -5.3080 c         1 25P      0.910600
     26 OBA        -6.6900    7.9850   -6.3180 o         1 25P     -0.848800
     27 OAZ        -8.2640    8.5150   -4.8260 o         1 25P     -0.848800
     28 HAD        -0.0860   -0.0240   -0.9270 ha        1 25P      0.154500
     29 HAC         2.3870   -0.3280   -0.7890 ha        1 25P      0.146000
     30 HAA         2.0920   -0.8070    3.5120 ha        1 25P      0.146000
     31 HAF        -0.3900   -0.5020    3.3730 ha        1 25P      0.154500
     32 HAN        -2.6080   -2.0380   -0.3240 ha        1 25P      0.147500
     33 HAM        -3.9750   -1.6970   -2.4110 ha        1 25P      0.153500
     34 HAJ        -2.3070    2.2570    0.1720 ha        1 25P      0.147500
     35 HAK        -3.6590    2.6060   -1.8920 ha        1 25P      0.153500
     36 HAP        -5.5420    2.3870   -3.1030 h1        1 25P      0.050200
     37 HAPA       -4.0140    2.4030   -4.1270 h1        1 25P      0.050200
     38 HAQ        -6.7110    1.0270   -4.8570 h1        1 25P      0.065700
     39 HAR        -5.5600   -0.0420   -6.5460 hc        1 25P      0.045200
     40 HARA       -4.0160    0.5430   -5.8190 hc        1 25P      0.045200
     41 HAS        -3.7450    2.0600   -7.5780 hc        1 25P      0.039200
     42 HASA       -5.2360    1.3920   -8.3430 hc        1 25P      0.039200
     43 HAT        -4.8730    3.9700   -6.9250 h1        1 25P      0.051200
     44 HATA       -6.3420    3.3780   -7.8120 h1        1 25P      0.051200
     45 HAV        -5.4640    4.3090   -4.4700 h1        1 25P      0.018200
     46 HAVA       -7.1350    3.7060   -4.0660 h1        1 25P      0.018200
     47 HAW        -6.3960    5.5930   -6.4320 hc        1 25P      0.054700
     48 HAWA       -8.0560    4.9980   -6.0320 hc        1 25P      0.054700
     49 HAX        -6.2760    6.4600   -3.9720 hc        1 25P      0.020200
     50 HAXA       -8.0630    6.1810   -3.9100 hc        1 25P      0.020200
@<TRIPOS>BOND
     1    1    2 ar  
     2    1    7 ar  
     3    1   28 1   
     4    2    3 ar  
     5    2   29 1   
     6    3    4 1   
     7    3    5 ar  
     8    5    6 ar  
     9    5   30 1   
    10    6    7 ar  
    11    6   31 1   
    12    7    8 1   
    13    8    9 1   
    14    9   10 ar  
    15    9   12 ar  
    16   10   11 ar  
    17   10   32 1   
    18   11   14 ar  
    19   11   33 1   
    20   12   13 ar  
    21   12   34 1   
    22   13   14 ar  
    23   13   35 1   
    24   14   15 1   
    25   15   16 1   
    26   16   17 1   
    27   16   36 1   
    28   16   37 1   
    29   17   18 1   
    30   17   21 1   
    31   17   38 1   
    32   18   19 1   
    33   18   39 1   
    34   18   40 1   
    35   19   20 1   
    36   19   41 1   
    37   19   42 1   
    38   20   21 1   
    39   20   43 1   
    40   20   44 1   
    41   21   22 1   
    42   22   23 1   
    43   22   45 1   
    44   22   46 1   
    45   23   24 1   
    46   23   47 1   
    47   23   48 1   
    48   24   25 1   
    49   24   49 1   
    50   24   50 1   
    51   25   26 1   
    52   25   27 1   
@<TRIPOS>SUBSTRUCTURE
     1 25P         1 TEMP              0 ****  ****    0 ROOT
