@<TRIPOS>MOLECULE
25Q
   41    44     1     0     0
SMALL
bcc


@<TRIPOS>ATOM
      1 C1         -0.0130   -0.1070    0.1000 ca        1 25Q     -0.045000
      2 C2          1.3820    0.2480    0.3850 ca        1 25Q     -0.144000
      3 C3          1.8950   -0.6830    1.2570 ca        1 25Q     -0.196300
      4 C4          1.5020   -0.3900    2.6390 ca        1 25Q      0.346300
      5 C5          0.0120   -0.3330    2.5940 ca        1 25Q      0.339300
      6 C6         -0.6730   -0.3560    1.2680 ca        1 25Q     -0.207300
      7 O23        -2.1020    0.1290    7.9380 o         1 25Q     -0.530100
      8 N24        -2.8320   -0.0620    5.7520 nz        1 25Q     -0.735400
      9 C9         -0.4090   -0.0440    6.2500 cc        1 25Q     -0.479000
     10 C10         0.7970    0.0070    7.0630 cd        1 25Q      0.363900
     11 N21         0.8280    0.1220    8.4070 nv        1 25Q     -0.816600
     12 N11         1.9260   -0.0660    6.2290 na        1 25Q     -0.133300
     13 C12         1.4740   -0.1790    4.8850 ca        1 25Q      0.342500
     14 N13         2.2290   -0.3030    3.7490 nb        1 25Q     -0.571000
     15 C8          0.0250   -0.1620    4.8720 ca        1 25Q      0.349800
     16 N7         -0.7000   -0.2410    3.7280 nb        1 25Q     -0.685000
     17 C14         3.2750   -0.1090    6.6580 c2        1 25Q     -0.014300
     18 C19         4.2530    0.7990    5.9050 c3        1 25Q     -0.034000
     19 C18         5.3840    1.1510    6.8270 c2        1 25Q     -0.138300
     20 C17         5.7470    0.1550    7.6200 c1        1 25Q     -0.147800
     21 C16         5.1120   -0.9870    7.9360 ce        1 25Q      0.115000
     22 C15         3.6640   -0.9440    7.6690 ce        1 25Q     -0.140000
     23 O30         5.5960   -2.1440    8.4530 os        1 25Q     -0.292900
     24 C35         7.0230   -2.2810    8.3690 c3        1 25Q      0.111700
     25 H1         -1.7600   -0.5260    1.2830 ha        1 25Q      0.158000
     26 H2         -0.4810   -0.0700   -0.8890 ha        1 25Q      0.172000
     27 H3          1.6710    1.3060    0.3430 ha        1 25Q      0.165000
     28 H4          1.9320   -1.7590    1.0150 ha        1 25Q      0.163000
     29 H5         -2.7520    0.7140    5.0880 hn        1 25Q      0.466800
     30 H6         -2.7630   -0.9420    5.2310 hn        1 25Q      0.466800
     31 H7         -0.0360    0.2200    8.8980 hn        1 25Q      0.482300
     32 H8          1.6870    0.1880    8.9070 hn        1 25Q      0.482300
     33 H9          3.7460    1.7470    5.5820 hc        1 25Q      0.097700
     34 H10         4.5950    0.2600    4.9800 hc        1 25Q      0.097700
     35 H11         5.7710    2.1750    6.8440 ha        1 25Q      0.167000
     36 H12         3.0140   -1.6550    8.1950 ha        1 25Q      0.162000
     37 H13         7.5240   -1.3490    8.7280 h1        1 25Q      0.064033
     38 H14         7.3120   -2.5010    7.3130 h1        1 25Q      0.064033
     39 H15         7.2380   -3.1510    9.0390 h1        1 25Q      0.064033
     40 C22        -1.7110    0.0180    6.7710 c         1 25Q      0.601300
     41 H243       -3.7360   -0.0150    6.2320 hn        1 25Q      0.466800
@<TRIPOS>BOND
     1    1    2 ar  
     2    1    6 ar  
     3    1   26 1   
     4    2    3 ar  
     5    2   27 1   
     6    3    4 ar  
     7    3   28 1   
     8    4    5 ar  
     9    4   14 ar  
    10    5    6 ar  
    11    5   16 ar  
    12    6   25 1   
    13    7   40 2   
    14    8   29 1   
    15    8   30 1   
    16    8   40 1   
    17    8   41 1   
    18    9   10 2   
    19    9   15 1   
    20    9   40 1   
    21   10   11 1   
    22   10   12 1   
    23   11   31 1   
    24   11   32 1   
    25   12   13 1   
    26   12   17 1   
    27   13   14 ar  
    28   13   15 ar  
    29   15   16 ar  
    30   17   18 1   
    31   17   22 2   
    32   18   19 1   
    33   18   33 1   
    34   18   34 1   
    35   19   20 2   
    36   19   35 1   
    37   20   21 2   
    38   21   22 1   
    39   21   23 1   
    40   22   36 1   
    41   23   24 1   
    42   24   37 1   
    43   24   38 1   
    44   24   39 1   
@<TRIPOS>SUBSTRUCTURE
     1 25Q         1 TEMP              0 ****  ****    0 ROOT
