@<TRIPOS>MOLECULE
25Q
   42    44     1     0     0
SMALL
bcc


@<TRIPOS>ATOM
      1 C1          1.1690    0.3250   -1.0550 c2        1 25Q     -0.501000
      2 C2          0.6140    0.3510    0.2670 c2        1 25Q      0.047000
      3 C3          1.2840   -0.0800    1.3580 c2        1 25Q     -0.221000
      4 C4          0.7310   -0.0700    2.7030 c2        1 25Q      0.063000
      5 C5         -0.6980   -0.0500    2.9090 c2        1 25Q     -0.077000
      6 C6          2.3570   -0.1030   -1.4560 c1        1 25Q      0.324000
      7 O23        -2.1330   -0.0240    8.4920 o         1 25Q     -0.255000
      8 N24        -3.1550   -0.0240    6.4150 n4        1 25Q     -0.116000
      9 C9         -0.6750   -0.0790    6.5970 c2        1 25Q     -0.330000
     10 C10         0.6080   -0.1120    7.2510 c2        1 25Q      0.322000
     11 N21         0.7990   -0.0530    8.5830 nh        1 25Q     -0.315000
     12 N11         1.6470   -0.1420    6.2640 na        1 25Q     -0.164000
     13 C12         1.0080   -0.1020    4.9760 c2        1 25Q      0.019000
     14 N13         1.5940   -0.0990    3.7590 n2        1 25Q     -0.125000
     15 C8         -0.4290   -0.0730    5.1690 c2        1 25Q     -0.024000
     16 N7         -1.2760   -0.0490    4.1170 n2        1 25Q     -0.126000
     17 C14         3.0100   -0.3420    6.4760 c2        1 25Q      0.219000
     18 C19         3.9690    0.2550    5.4890 c3        1 25Q     -0.201000
     19 C18         5.3880    0.1850    5.8710 c2        1 25Q      0.040000
     20 C17         5.8350   -0.4910    6.9580 c2        1 25Q     -0.266000
     21 C16         4.8960   -1.1670    7.8000 c2        1 25Q      0.322000
     22 C15         3.4900   -1.0700    7.5500 c2        1 25Q     -0.305000
     23 O30         5.2210   -1.9160    8.8500 os        1 25Q     -0.130000
     24 C35         6.6170   -2.0990    9.1880 c3        1 25Q     -0.093000
     25 H1         -1.3860   -0.0480    2.0410 h4        1 25Q      0.205000
     26 H2          0.5090    0.7190   -1.8670 ha        1 25Q      0.220000
     27 H3         -0.4090    0.7650    0.3430 ha        1 25Q      0.135000
     28 H4          2.3180   -0.4600    1.2620 ha        1 25Q      0.161000
     29 H5         -3.1780   -0.8570    5.8170 hn        1 25Q      0.273000
     30 H6         -3.1510    0.8080    5.8140 hn        1 25Q      0.273000
     31 H7         -0.0070    0.0230    9.1770 hn        1 25Q      0.284500
     32 H8          2.8400   -1.6560    8.2240 ha        1 25Q      0.195000
     33 H9          3.6880    1.3310    5.2660 hc        1 25Q      0.214500
     34 H10         3.8730   -0.2880    4.4890 hc        1 25Q      0.214500
     35 H11         6.0960    0.7020    5.1920 ha        1 25Q      0.200000
     36 H12         6.9130   -0.5360    7.2010 ha        1 25Q      0.201000
     37 H13         6.5520   -2.7820   10.0770 h1        1 25Q      0.137667
     38 H14         7.1510   -2.5870    8.3380 h1        1 25Q      0.137667
     39 H15         7.0690   -1.1160    9.4620 h1        1 25Q      0.137667
     40 C22        -1.9170   -0.0420    7.2780 c2        1 25Q      0.344000
     41 H243       -3.9910   -0.0090    7.0150 hn        1 25Q      0.273000
     42 H213        1.7020   -0.0030    8.9970 hn        1 25Q      0.284500
@<TRIPOS>BOND
     1    1    2 1   
     2    1    6 1   
     3    1   26 1   
     4    2    3 1   
     5    2   27 1   
     6    3    4 1   
     7    3   28 1   
     8    4    5 1   
     9    4   14 1   
    10    5   16 1   
    11    5   25 1   
    12    7   40 1   
    13    8   29 1   
    14    8   30 1   
    15    8   40 1   
    16    8   41 1   
    17    9   10 1   
    18    9   15 1   
    19    9   40 1   
    20   10   11 1   
    21   10   12 1   
    22   11   31 1   
    23   11   42 1   
    24   12   13 1   
    25   12   17 1   
    26   13   14 1   
    27   13   15 1   
    28   15   16 1   
    29   17   18 1   
    30   17   22 1   
    31   18   19 1   
    32   18   33 1   
    33   18   34 1   
    34   19   20 1   
    35   19   35 1   
    36   20   21 1   
    37   20   36 1   
    38   21   22 1   
    39   21   23 1   
    40   22   32 1   
    41   23   24 1   
    42   24   37 1   
    43   24   38 1   
    44   24   39 1   
@<TRIPOS>SUBSTRUCTURE
     1 25Q         1 TEMP              0 ****  ****    0 ROOT
