@<TRIPOS>MOLECULE
25Q
   41    44     1     0     0
SMALL
bcc


@<TRIPOS>ATOM
      1 C1         -0.3450   -0.8710    0.3150 c2        1 25Q     -0.093000
      2 C2          1.0630   -0.5680   -0.0100 c3        1 25Q     -0.233000
      3 C3          1.9680   -0.2400    1.0770 c1        1 25Q      0.026000
      4 C4          1.4450   -0.2200    2.4270 c2        1 25Q     -0.139000
      5 C5          0.0590   -0.5280    2.6970 c2        1 25Q      0.052000
      6 C6         -0.8130   -0.8530    1.5780 c2        1 25Q     -0.170000
      7 O23        -1.1100   -0.2540    8.3550 o         1 25Q     -0.298000
      8 N24        -2.1800   -0.6860    6.3500 n4        1 25Q     -0.122000
      9 C9          0.2260   -0.1150    6.3690 c2        1 25Q     -0.375000
     10 C10         1.5260    0.2530    6.9270 c2        1 25Q      0.309000
     11 N21         1.7750    0.4200    8.2420 nh        1 25Q     -0.328000
     12 N11         2.4590    0.4090    5.8960 na        1 25Q     -0.109000
     13 C12         1.8100    0.1050    4.6570 c2        1 25Q     -0.001000
     14 N13         2.3320    0.1030    3.4230 n2        1 25Q      0.037000
     15 C8          0.4010   -0.2130    4.9360 c2        1 25Q      0.048000
     16 N7         -0.4620   -0.5240    3.9650 n2        1 25Q     -0.194000
     17 C14         3.8020    0.8200    5.9580 c2        1 25Q     -0.085000
     18 C19         4.2250    1.9270    6.8980 c3        1 25Q     -0.127000
     19 C18         5.0020    1.2140    8.0240 c2        1 25Q     -0.046000
     20 C17         5.1730   -0.1080    7.9770 c1        1 25Q     -0.387000
     21 C16         4.9170   -0.9840    6.9520 c2        1 25Q      0.212000
     22 C15         4.8730   -0.0620    5.7810 c2        1 25Q     -0.070000
     23 O30         4.7120   -2.2980    6.9110 os        1 25Q     -0.140000
     24 C35         4.7020   -2.9750    8.1840 c3        1 25Q     -0.083000
     25 H1         -1.8680   -1.0830    1.7980 ha        1 25Q      0.150000
     26 H2         -1.0100   -1.1160   -0.5300 ha        1 25Q      0.152000
     27 H3          1.1150    0.2980   -0.7430 hc        1 25Q      0.187000
     28 H4          1.5300   -1.4420   -0.5640 hc        1 25Q      0.187000
     29 H5         -2.0200   -1.5550    5.8310 hn        1 25Q      0.261333
     30 H6         -2.3950    0.0570    5.6780 hn        1 25Q      0.261333
     31 H7          1.0250    0.3070    8.8900 hn        1 25Q      0.276000
     32 H8          2.6920    0.6140    8.5810 hn        1 25Q      0.276000
     33 H9          3.3810    2.5530    7.2740 hc        1 25Q      0.130000
     34 H10         4.9640    2.6050    6.3910 hc        1 25Q      0.130000
     35 H11         5.4290    1.8670    8.7970 ha        1 25Q      0.172000
     36 H12         5.8260    0.2820    5.3530 ha        1 25Q      0.193000
     37 H13         5.4770   -2.5420    8.8630 h1        1 25Q      0.112000
     38 H14         4.9300   -4.0360    7.9120 h1        1 25Q      0.112000
     39 H15         3.6830   -2.8780    8.6290 h1        1 25Q      0.112000
     40 C22        -0.9310   -0.3200    7.1340 c2        1 25Q      0.344000
     41 H243       -2.9660   -0.8080    6.9960 hn        1 25Q      0.261333
@<TRIPOS>BOND
     1    1    2 1   
     2    1    6 1   
     3    1   26 1   
     4    2    3 1   
     5    2   27 1   
     6    2   28 1   
     7    3    4 1   
     8    4    5 1   
     9    4   14 1   
    10    5    6 1   
    11    5   16 1   
    12    6   25 1   
    13    7   40 1   
    14    8   29 1   
    15    8   30 1   
    16    8   40 1   
    17    8   41 1   
    18    9   10 1   
    19    9   15 1   
    20    9   40 1   
    21   10   11 1   
    22   10   12 1   
    23   11   31 1   
    24   11   32 1   
    25   12   13 1   
    26   12   17 1   
    27   13   14 1   
    28   13   15 1   
    29   15   16 1   
    30   17   18 1   
    31   17   22 1   
    32   18   19 1   
    33   18   33 1   
    34   18   34 1   
    35   19   20 1   
    36   19   35 1   
    37   20   21 1   
    38   21   22 1   
    39   21   23 1   
    40   22   36 1   
    41   23   24 1   
    42   24   37 1   
    43   24   38 1   
    44   24   39 1   
@<TRIPOS>SUBSTRUCTURE
     1 25Q         1 TEMP              0 ****  ****    0 ROOT
