@<TRIPOS>MOLECULE
25R
   16    16     1     0     0
SMALL
bcc


@<TRIPOS>ATOM
      1 N1         -0.7090    1.2320   -0.0010 nb        1 25R     -0.632000
      2 C2         -1.3640    0.0420    0.0000 ca        1 25R      0.293300
      3 C3         -0.6330   -1.1830    0.0010 ca        1 25R      0.283900
      4 N4          0.7100   -1.2320    0.0010 nb        1 25R     -0.632000
      5 C5          1.3640   -0.0420    0.0000 ca        1 25R      0.293300
      6 C6          0.6340    1.1820   -0.0010 ca        1 25R      0.283900
      7 C7         -2.8530    0.0080    0.0000 c3        1 25R     -0.144400
      8 C8          2.8530   -0.0080    0.0000 c3        1 25R     -0.144400
      9 H3         -1.1570   -2.1540    0.0020 h4        1 25R      0.031100
     10 H6          1.1570    2.1540   -0.0020 h4        1 25R      0.031100
     11 H7         -3.2560    0.5250   -0.9070 hc        1 25R      0.056033
     12 H7A        -3.2150   -1.0490    0.0010 hc        1 25R      0.056033
     13 H7B        -3.2560    0.5270    0.9060 hc        1 25R      0.056033
     14 H8          3.2560   -0.5270   -0.9060 hc        1 25R      0.056033
     15 H8A         3.2150    1.0480   -0.0000 hc        1 25R      0.056033
     16 H8B         3.2560   -0.5260    0.9060 hc        1 25R      0.056033
@<TRIPOS>BOND
     1    1    2 ar  
     2    1    6 ar  
     3    2    3 ar  
     4    2    7 1   
     5    3    4 ar  
     6    3    9 1   
     7    4    5 ar  
     8    5    6 ar  
     9    5    8 1   
    10    6   10 1   
    11    7   11 1   
    12    7   12 1   
    13    7   13 1   
    14    8   14 1   
    15    8   15 1   
    16    8   16 1   
@<TRIPOS>SUBSTRUCTURE
     1 25R         1 TEMP              0 ****  ****    0 ROOT
