@<TRIPOS>MOLECULE
25S
   74    79     1     0     0
SMALL
bcc


@<TRIPOS>ATOM
      1 O1          0.0710    0.7340    0.5020 o         1 25S     -0.594100
      2 C5          1.1330    0.1790    0.1580 c         1 25S      0.656100
      3 N1          1.3890   -0.3780   -1.0660 n         1 25S     -0.432100
      4 C4          0.5020   -0.4370   -2.1630 ca        1 25S      0.072600
      5 C3          0.9220   -1.1240   -3.3280 ca        1 25S     -0.273800
      6 C2          0.0460   -1.1810   -4.4220 ca        1 25S      0.424200
      7 N          -1.1780   -0.6180   -4.4350 nb        1 25S     -0.653000
      8 C1         -1.5650    0.0320   -3.3240 ca        1 25S      0.424200
      9 C          -0.7750    0.1560   -2.1650 ca        1 25S     -0.273800
     10 C6          2.3100    0.1320    1.1760 c3        1 25S      0.037500
     11 C24         3.2780    1.2740    0.8140 c3        1 25S     -0.007200
     12 C25         4.1450    1.6990    1.9170 cc        1 25S     -0.250400
     13 C28         4.9470    0.8770    2.8020 ca        1 25S     -0.111800
     14 C29         5.1280   -0.4990    2.9740 ca        1 25S     -0.124000
     15 C30         6.0140   -0.9460    3.9410 ca        1 25S     -0.123000
     16 C31         6.7320   -0.0450    4.7510 ca        1 25S     -0.103000
     17 C32         6.5860    1.3260    4.6150 ca        1 25S     -0.122000
     18 C27         5.6940    1.7920    3.6350 ca        1 25S     -0.050200
     19 N5          5.3450    3.0990    3.2710 na        1 25S     -0.169400
     20 C26         4.4340    3.0360    2.2280 cd        1 25S     -0.052100
     21 N2          1.7810    0.2410    2.5720 n4        1 25S     -0.668800
     22 C7          1.4250   -1.0950    3.2120 c         1 25S      0.591700
     23 O           2.0120   -2.0730    2.7590 o         1 25S     -0.457100
     24 C8          0.4390   -1.0460    4.2670 ca        1 25S     -0.325600
     25 C23        -0.2110   -2.2580    4.6450 ca        1 25S      0.281900
     26 F2          0.1040   -3.4090    4.0190 f         1 25S     -0.099900
     27 C22        -1.1770   -2.2790    5.6500 ca        1 25S     -0.280000
     28 C11        -1.5580   -1.0870    6.3290 ca        1 25S      0.290600
     29 C10        -0.8530    0.1140    5.9740 ca        1 25S     -0.223000
     30 C9          0.0930    0.1210    4.9780 ca        1 25S     -0.015000
     31 N3         -2.5730   -1.0790    7.2530 nh        1 25S     -0.625000
     32 C21        -2.7930    0.1100    8.0560 c3        1 25S      0.198300
     33 C20        -4.0820    0.1080    8.9040 c3        1 25S      0.171300
     34 N4         -4.3000   -1.1680    9.5570 nh        1 25S     -0.628000
     35 C13        -4.3890   -2.2400    8.5800 c3        1 25S      0.171300
     36 C12        -3.1210   -2.3440    7.7100 c3        1 25S      0.198300
     37 C14        -5.2970   -1.1970   10.5740 ca        1 25S      0.120600
     38 C19        -5.3140   -2.2850   11.4770 ca        1 25S     -0.130000
     39 C18        -6.2180   -2.3240   12.5280 ca        1 25S     -0.123000
     40 C17        -7.1360   -1.2780   12.7210 ca        1 25S      0.089900
     41 F1         -8.0120   -1.3140   13.7480 f         1 25S     -0.114900
     42 C16        -7.1300   -0.1800   11.8220 ca        1 25S      0.118900
     43 F          -8.0030    0.8370   11.9870 f         1 25S     -0.117900
     44 C15        -6.2200   -0.1510   10.7540 ca        1 25S     -0.190000
     45 H1          2.2780   -0.8090   -1.2090 hn        1 25S      0.334500
     46 H6          2.8610   -0.8560    1.1080 hx        1 25S      0.136700
     47 H3          1.9050   -1.6100   -3.3940 ha        1 25S      0.162500
     48 H          -1.1690    0.7050   -1.2970 ha        1 25S      0.162500
     49 H2          0.3430   -1.7100   -5.3470 h4        1 25S      0.038600
     50 HA         -2.5730    0.4860   -3.3560 h4        1 25S      0.038600
     51 H241        3.9060    0.8980   -0.0430 hc        1 25S      0.083200
     52 H242        2.6870    2.1550    0.4380 hc        1 25S      0.083200
     53 HB          0.9350    0.8320    2.5550 hn        1 25S      0.475800
     54 H26         4.0440    3.9480    1.7640 h4        1 25S      0.182000
     55 H29         4.5870   -1.2190    2.3430 ha        1 25S      0.130000
     56 H30         6.1720   -2.0270    4.0800 ha        1 25S      0.149000
     57 H31         7.4310   -0.4440    5.5040 ha        1 25S      0.151000
     58 H32         7.1540    2.0260    5.2440 ha        1 25S      0.151000
     59 H5          5.7690    3.9190    3.6220 hn        1 25S      0.318700
     60 H9          0.6030    1.0750    4.7670 ha        1 25S      0.126000
     61 H22        -1.6280   -3.2530    5.8990 ha        1 25S      0.175000
     62 H10        -1.0550    1.0560    6.5080 ha        1 25S      0.159000
     63 H211       -2.8730    1.0010    7.3670 h1        1 25S      0.062700
     64 H212       -1.9080    0.2600    8.7400 h1        1 25S      0.062700
     65 H121       -2.3260   -2.8990    8.2890 h1        1 25S      0.062700
     66 H122       -3.4070   -2.9590    6.8080 h1        1 25S      0.062700
     67 H201       -3.9620    0.9040    9.6920 h1        1 25S      0.061450
     68 H202       -4.9480    0.3950    8.2380 h1        1 25S      0.061450
     69 H131       -5.2820   -2.1060    7.9010 h1        1 25S      0.061450
     70 H132       -4.5070   -3.2210    9.1200 h1        1 25S      0.061450
     71 H19        -4.5960   -3.1130   11.3630 ha        1 25S      0.148000
     72 H15        -6.2570    0.7130   10.0730 ha        1 25S      0.153000
     73 H18        -6.2230   -3.1750   13.2270 ha        1 25S      0.163000
     74 H221        2.5040    0.6920    3.1560 hn        1 25S      0.475800
@<TRIPOS>BOND
     1    1    2 2   
     2    2    3 1   
     3    2   10 1   
     4    3    4 1   
     5    3   45 1   
     6    4    5 ar  
     7    4    9 ar  
     8    5    6 ar  
     9    5   47 1   
    10    6    7 ar  
    11    6   49 1   
    12    7    8 ar  
    13    8    9 ar  
    14    8   50 1   
    15    9   48 1   
    16   10   11 1   
    17   10   21 1   
    18   10   46 1   
    19   11   12 1   
    20   11   51 1   
    21   11   52 1   
    22   12   13 1   
    23   12   20 2   
    24   13   14 ar  
    25   13   18 ar  
    26   14   15 ar  
    27   14   55 1   
    28   15   16 ar  
    29   15   56 1   
    30   16   17 ar  
    31   16   57 1   
    32   17   18 ar  
    33   17   58 1   
    34   18   19 1   
    35   19   20 1   
    36   19   59 1   
    37   20   54 1   
    38   21   22 1   
    39   21   53 1   
    40   21   74 1   
    41   22   23 2   
    42   22   24 1   
    43   24   25 ar  
    44   24   30 ar  
    45   25   26 1   
    46   25   27 ar  
    47   27   28 ar  
    48   27   61 1   
    49   28   29 ar  
    50   28   31 1   
    51   29   30 ar  
    52   29   62 1   
    53   30   60 1   
    54   31   32 1   
    55   31   36 1   
    56   32   33 1   
    57   32   63 1   
    58   32   64 1   
    59   33   34 1   
    60   33   67 1   
    61   33   68 1   
    62   34   35 1   
    63   34   37 1   
    64   35   36 1   
    65   35   69 1   
    66   35   70 1   
    67   36   65 1   
    68   36   66 1   
    69   37   38 ar  
    70   37   44 ar  
    71   38   39 ar  
    72   38   71 1   
    73   39   40 ar  
    74   39   73 1   
    75   40   41 1   
    76   40   42 ar  
    77   42   43 1   
    78   42   44 ar  
    79   44   72 1   
@<TRIPOS>SUBSTRUCTURE
     1 25S         1 TEMP              0 ****  ****    0 ROOT
