@<TRIPOS>MOLECULE
25S
   74    79     1     0     0
SMALL
bcc


@<TRIPOS>ATOM
      1 O1          0.0610    0.7270    0.4980 o         1 25S     -0.594100
      2 C5          1.1290    0.1820    0.1560 c         1 25S      0.656100
      3 N1          1.3910   -0.3770   -1.0650 ns        1 25S     -0.432100
      4 C4          0.5050   -0.4490   -2.1630 ca        1 25S      0.072600
      5 C3          0.9320   -1.1380   -3.3240 ca        1 25S     -0.273800
      6 C2          0.0580   -1.2070   -4.4190 ca        1 25S      0.424200
      7 N          -1.1710   -0.6550   -4.4360 nb        1 25S     -0.653000
      8 C1         -1.5640   -0.0030   -3.3280 ca        1 25S      0.424200
      9 C          -0.7770    0.1330   -2.1690 ca        1 25S     -0.273800
     10 C6          2.3050    0.1500    1.1750 c3        1 25S      0.037500
     11 C24         3.2610    1.3010    0.8110 c3        1 25S     -0.007200
     12 C25         4.1230    1.7380    1.9130 cc        1 25S     -0.250400
     13 C28         4.9330    0.9270    2.8010 ca        1 25S     -0.111800
     14 C29         5.1280   -0.4470    2.9770 ca        1 25S     -0.124000
     15 C30         6.0180   -0.8820    3.9460 ca        1 25S     -0.123000
     16 C31         6.7260    0.0290    4.7540 ca        1 25S     -0.103000
     17 C32         6.5660    1.3970    4.6140 ca        1 25S     -0.122000
     18 C27         5.6690    1.8510    3.6320 ca        1 25S     -0.050200
     19 N5          5.3080    3.1540    3.2640 na        1 25S     -0.169400
     20 C26         4.3980    3.0790    2.2200 cd        1 25S     -0.052100
     21 N2          1.7740    0.2570    2.5710 ny        1 25S     -0.668800
     22 C7          1.4310   -1.0810    3.2140 c         1 25S      0.591700
     23 O           2.0280   -2.0540    2.7640 o         1 25S     -0.457100
     24 C8          0.4430   -1.0380    4.2680 ca        1 25S     -0.325600
     25 C23        -0.1940   -2.2560    4.6490 ca        1 25S      0.281900
     26 F2          0.1330   -3.4060    4.0270 f         1 25S     -0.099900
     27 C22        -1.1610   -2.2840    5.6540 ca        1 25S     -0.280000
     28 C11        -1.5540   -1.0940    6.3290 ca        1 25S      0.290600
     29 C10        -0.8620    0.1130    5.9700 ca        1 25S     -0.223000
     30 C9          0.0840    0.1270    4.9760 ca        1 25S     -0.015000
     31 N3         -2.5690   -1.0950    7.2530 nh        1 25S     -0.625000
     32 C21        -2.8030    0.0950    8.0520 c3        1 25S      0.198300
     33 C20        -4.0910    0.0810    8.9000 c3        1 25S      0.171300
     34 N4         -4.2950   -1.1950    9.5580 nh        1 25S     -0.628000
     35 C13        -4.3730   -2.2710    8.5840 c3        1 25S      0.171300
     36 C12        -3.1040   -2.3640    7.7140 c3        1 25S      0.198300
     37 C14        -5.2910   -1.2320   10.5750 ca        1 25S      0.120600
     38 C19        -5.2950   -2.3180   11.4820 ca        1 25S     -0.130000
     39 C18        -6.1980   -2.3630   12.5330 ca        1 25S     -0.123000
     40 C17        -7.1270   -1.3260   12.7240 ca        1 25S      0.089900
     41 F1         -8.0030   -1.3690   13.7510 f         1 25S     -0.114900
     42 C16        -7.1340   -0.2320   11.8210 ca        1 25S      0.118900
     43 F          -8.0190    0.7770   11.9830 f         1 25S     -0.117900
     44 C15        -6.2250   -0.1960   10.7520 ca        1 25S     -0.190000
     45 H1          2.2840   -0.7990   -1.2060 hn        1 25S      0.334500
     46 H6          2.8660   -0.8330    1.1110 hx        1 25S      0.136700
     47 H3          1.9190   -1.6150   -3.3880 ha        1 25S      0.162500
     48 H          -1.1770    0.6820   -1.3040 ha        1 25S      0.162500
     49 H2          0.3600   -1.7380   -5.3410 h4        1 25S      0.038600
     50 HA         -2.5760    0.4420   -3.3630 h4        1 25S      0.038600
     51 H241        3.8930    0.9290   -0.0450 hc        1 25S      0.083200
     52 H242        2.6620    2.1750    0.4320 hc        1 25S      0.083200
     53 HB          2.4910    0.7180    3.1540 hn        1 25S      0.475800
     54 H26         3.9990    3.9850    1.7540 h4        1 25S      0.182000
     55 H29         4.5950   -1.1740    2.3480 ha        1 25S      0.130000
     56 H30         6.1870   -1.9610    4.0880 ha        1 25S      0.149000
     57 H31         7.4280   -0.3610    5.5090 ha        1 25S      0.151000
     58 H32         7.1260    2.1050    5.2410 ha        1 25S      0.151000
     59 H5          5.7230    3.9790    3.6130 hn        1 25S      0.318700
     60 H9          0.5840    1.0860    4.7610 ha        1 25S      0.126000
     61 H22        -1.6010   -3.2620    5.9050 ha        1 25S      0.175000
     62 H10        -1.0750    1.0540    6.5010 ha        1 25S      0.159000
     63 H211       -2.8930    0.9820    7.3610 h1        1 25S      0.062700
     64 H212       -1.9190    0.2570    8.7360 h1        1 25S      0.062700
     65 H121       -2.3030   -2.9090    8.2930 h1        1 25S      0.062700
     66 H122       -3.3840   -2.9850    6.8140 h1        1 25S      0.062700
     67 H201       -4.9610    0.3560    8.2340 h1        1 25S      0.061450
     68 H202       -3.9800    0.8810    9.6860 h1        1 25S      0.061450
     69 H131       -4.4800   -3.2520    9.1270 h1        1 25S      0.061450
     70 H132       -5.2670   -2.1490    7.9040 h1        1 25S      0.061450
     71 H19        -4.5680   -3.1380   11.3700 ha        1 25S      0.148000
     72 H15        -6.2720    0.6660   10.0690 ha        1 25S      0.153000
     73 H18        -6.1930   -3.2110   13.2360 ha        1 25S      0.163000
     74 H221        0.9220    0.8400    2.5510 hn        1 25S      0.475800
@<TRIPOS>BOND
     1    1    2 2   
     2    2    3 1   
     3    2   10 1   
     4    3    4 1   
     5    3   45 1   
     6    4    5 ar  
     7    4    9 ar  
     8    5    6 ar  
     9    5   47 1   
    10    6    7 ar  
    11    6   49 1   
    12    7    8 ar  
    13    8    9 ar  
    14    8   50 1   
    15    9   48 1   
    16   10   11 1   
    17   10   21 1   
    18   10   46 1   
    19   11   12 1   
    20   11   51 1   
    21   11   52 1   
    22   12   13 1   
    23   12   20 2   
    24   13   14 ar  
    25   13   18 ar  
    26   14   15 ar  
    27   14   55 1   
    28   15   16 ar  
    29   15   56 1   
    30   16   17 ar  
    31   16   57 1   
    32   17   18 ar  
    33   17   58 1   
    34   18   19 1   
    35   19   20 1   
    36   19   59 1   
    37   20   54 1   
    38   21   22 1   
    39   21   53 1   
    40   21   74 1   
    41   22   23 2   
    42   22   24 1   
    43   24   25 ar  
    44   24   30 ar  
    45   25   26 1   
    46   25   27 ar  
    47   27   28 ar  
    48   27   61 1   
    49   28   29 ar  
    50   28   31 1   
    51   29   30 ar  
    52   29   62 1   
    53   30   60 1   
    54   31   32 1   
    55   31   36 1   
    56   32   33 1   
    57   32   63 1   
    58   32   64 1   
    59   33   34 1   
    60   33   67 1   
    61   33   68 1   
    62   34   35 1   
    63   34   37 1   
    64   35   36 1   
    65   35   69 1   
    66   35   70 1   
    67   36   65 1   
    68   36   66 1   
    69   37   38 ar  
    70   37   44 ar  
    71   38   39 ar  
    72   38   71 1   
    73   39   40 ar  
    74   39   73 1   
    75   40   41 1   
    76   40   42 ar  
    77   42   43 1   
    78   42   44 ar  
    79   44   72 1   
@<TRIPOS>SUBSTRUCTURE
     1 25S         1 TEMP              0 ****  ****    0 ROOT
