@<TRIPOS>MOLECULE
25S
   75    80     1     0     0
SMALL
bcc


@<TRIPOS>ATOM
      1 O1         -0.4770    1.3520   -0.7340 o         1 25S     -0.390100
      2 C5          0.3120    0.4430   -0.5250 c         1 25S      0.540100
      3 N1          0.2370   -0.7480   -1.4380 n4        1 25S     -0.532200
      4 C4          1.4550   -0.9450   -2.2320 ca        1 25S     -0.025400
      5 C3          2.3730   -1.9480   -1.8730 ca        1 25S     -0.234300
      6 C2          3.5020   -2.1210   -2.7010 ca        1 25S      0.446200
      7 N           3.7400   -1.3830   -3.8000 nb        1 25S     -0.587000
      8 C1          2.8460   -0.4330   -4.1280 ca        1 25S      0.446200
      9 C           1.6790   -0.1670   -3.3800 ca        1 25S     -0.234300
     10 C6          1.3550    0.4290    0.5950 c3        1 25S      0.082500
     11 C24         2.3660    1.5730    0.3270 c3        1 25S      0.005800
     12 C25         3.0450    2.0200    1.5420 cc        1 25S     -0.294400
     13 C28         3.7260    1.2110    2.5340 ca        1 25S     -0.115800
     14 C29         3.9030   -0.1620    2.7350 ca        1 25S     -0.154000
     15 C30         4.6500   -0.5930    3.8200 ca        1 25S     -0.106000
     16 C31         5.2310    0.3210    4.7210 ca        1 25S     -0.100000
     17 C32         5.0880    1.6890    4.5570 ca        1 25S     -0.103000
     18 C27         4.3350    2.1390    3.4590 ca        1 25S     -0.050200
     19 N5          4.0300    3.4410    3.0370 na        1 25S     -0.153400
     20 C26         3.2770    3.3650    1.8810 cd        1 25S     -0.023100
     21 N2          0.6880    0.5640    1.9280 n4        1 25S     -0.676800
     22 C7         -0.3090   -0.5620    2.2240 c         1 25S      0.601700
     23 O          -0.5250   -1.2710    1.2300 o         1 25S     -0.598100
     24 C8         -0.8420   -0.6400    3.5330 ca        1 25S     -0.345600
     25 C23        -1.7740   -1.7010    3.8250 ca        1 25S      0.299900
     26 F2         -2.0720   -2.5900    2.8590 f         1 25S     -0.095900
     27 C22        -2.3610   -1.8290    5.0710 ca        1 25S     -0.288000
     28 C11        -2.0830   -0.8980    6.1270 ca        1 25S      0.304600
     29 C10        -1.1050    0.1320    5.8330 ca        1 25S     -0.212000
     30 C9         -0.5330    0.2460    4.6010 ca        1 25S     -0.011000
     31 N3         -2.7090   -0.9700    7.3260 nh        1 25S     -0.568000
     32 C21        -2.3170   -0.0740    8.4060 c3        1 25S      0.184800
     33 C20        -3.2640   -0.0370    9.6240 c3        1 25S      0.168300
     34 N4         -3.7280   -1.3630    9.9820 nh        1 25S     -0.626000
     35 C13        -4.4650   -1.9570    8.8800 c3        1 25S      0.168300
     36 C12        -3.5990   -2.0890    7.6100 c3        1 25S      0.184800
     37 C14        -4.3570   -1.4880   11.2570 ca        1 25S      0.101600
     38 C19        -4.4430   -2.7710   11.8420 ca        1 25S     -0.122000
     39 C18        -4.9870   -2.9380   13.1080 ca        1 25S     -0.124000
     40 C17        -5.4580   -1.8330   13.8360 ca        1 25S      0.104900
     41 F1         -5.9810   -1.9950   15.0690 f         1 25S     -0.105900
     42 C16        -5.3770   -0.5390   13.2570 ca        1 25S      0.119900
     43 F          -5.8240    0.5390   13.9370 f         1 25S     -0.110900
     44 C15        -4.8360   -0.3770   11.9720 ca        1 25S     -0.185000
     45 H1         -0.5630   -0.6210   -2.0830 hn        1 25S      0.493300
     46 H6          1.9110   -0.5600    0.6100 hx        1 25S      0.134700
     47 H3          2.2300   -2.6050   -1.0020 ha        1 25S      0.174500
     48 H           0.9820    0.6170   -3.7170 ha        1 25S      0.174500
     49 H2          4.2530   -2.9050   -2.4690 h4        1 25S      0.076100
     50 HA          3.0670    0.1490   -5.0480 h4        1 25S      0.076100
     51 H241        1.8320    2.4390   -0.1540 hc        1 25S      0.091200
     52 H242        3.1140    1.1700   -0.4130 hc        1 25S      0.091200
     53 HB          0.2060    1.4690    1.9820 hn        1 25S      0.483300
     54 H26         2.9500    4.2710    1.3580 h4        1 25S      0.191000
     55 H29         3.4980   -0.8890    2.0190 ha        1 25S      0.108000
     56 H30         4.8110   -1.6710    3.9810 ha        1 25S      0.154000
     57 H31         5.8250   -0.0660    5.5660 ha        1 25S      0.165000
     58 H32         5.5580    2.3990    5.2540 ha        1 25S      0.165000
     59 H5          4.3920    4.2690    3.4420 hn        1 25S      0.331700
     60 H9          0.1980    1.0590    4.4520 ha        1 25S      0.127000
     61 H22        -3.0460   -2.6790    5.2290 ha        1 25S      0.186000
     62 H10        -0.8030    0.8390    6.6230 ha        1 25S      0.169000
     63 H211       -2.2720    0.9810    8.0080 h1        1 25S      0.074200
     64 H212       -1.2880   -0.3800    8.7550 h1        1 25S      0.074200
     65 H121       -4.3170   -2.2110    6.7470 h1        1 25S      0.074200
     66 H122       -2.9660   -3.0210    7.6940 h1        1 25S      0.074200
     67 H201       -4.1170    0.6660    9.3890 h1        1 25S      0.069450
     68 H202       -2.6800    0.3920   10.4870 h1        1 25S      0.069450
     69 H131       -5.3890   -1.3610    8.6230 h1        1 25S      0.069450
     70 H132       -4.7880   -2.9950    9.1730 h1        1 25S      0.069450
     71 H19        -4.0690   -3.6550   11.3020 ha        1 25S      0.148000
     72 H15        -4.8010    0.6420   11.5550 ha        1 25S      0.152000
     73 H18        -5.0500   -3.9410   13.5590 ha        1 25S      0.169000
     74 H12         0.0590   -1.5880   -0.8570 hn        1 25S      0.493300
     75 H221        1.4410    0.5590    2.6440 hn        1 25S      0.483300
@<TRIPOS>BOND
     1    1    2 2   
     2    2    3 1   
     3    2   10 1   
     4    3    4 1   
     5    3   45 1   
     6    3   74 1   
     7    4    5 ar  
     8    4    9 ar  
     9    5    6 ar  
    10    5   47 1   
    11    6    7 ar  
    12    6   49 1   
    13    7    8 ar  
    14    8    9 ar  
    15    8   50 1   
    16    9   48 1   
    17   10   11 1   
    18   10   21 1   
    19   10   46 1   
    20   11   12 1   
    21   11   51 1   
    22   11   52 1   
    23   12   13 1   
    24   12   20 2   
    25   13   14 ar  
    26   13   18 ar  
    27   14   15 ar  
    28   14   55 1   
    29   15   16 ar  
    30   15   56 1   
    31   16   17 ar  
    32   16   57 1   
    33   17   18 ar  
    34   17   58 1   
    35   18   19 1   
    36   19   20 1   
    37   19   59 1   
    38   20   54 1   
    39   21   22 1   
    40   21   53 1   
    41   21   75 1   
    42   22   23 2   
    43   22   24 1   
    44   24   25 ar  
    45   24   30 ar  
    46   25   26 1   
    47   25   27 ar  
    48   27   28 ar  
    49   27   61 1   
    50   28   29 ar  
    51   28   31 1   
    52   29   30 ar  
    53   29   62 1   
    54   30   60 1   
    55   31   32 1   
    56   31   36 1   
    57   32   33 1   
    58   32   63 1   
    59   32   64 1   
    60   33   34 1   
    61   33   67 1   
    62   33   68 1   
    63   34   35 1   
    64   34   37 1   
    65   35   36 1   
    66   35   69 1   
    67   35   70 1   
    68   36   65 1   
    69   36   66 1   
    70   37   38 ar  
    71   37   44 ar  
    72   38   39 ar  
    73   38   71 1   
    74   39   40 ar  
    75   39   73 1   
    76   40   41 1   
    77   40   42 ar  
    78   42   43 1   
    79   42   44 ar  
    80   44   72 1   
@<TRIPOS>SUBSTRUCTURE
     1 25S         1 TEMP              0 ****  ****    0 ROOT
