@<TRIPOS>MOLECULE
25T
   14    14     1     0     0
SMALL
bcc


@<TRIPOS>ATOM
      1 S1          0.0680    1.0770    0.0000 ss        1 25T      0.134200
      2 C2         -1.1990   -0.0910   -0.0000 cc        1 25T      0.156400
      3 N3         -0.6810   -1.3770   -0.0000 na        1 25T     -0.195100
      4 C4          0.7170   -1.3800    0.0000 cc        1 25T     -0.077300
      5 C5          1.2680   -0.1210    0.0000 cd        1 25T     -0.084400
      6 N          -2.5160    0.2090   -0.0010 nh        1 25T     -0.368200
      7 CM          2.7000    0.1940    0.0010 c3        1 25T     -0.046800
      8 HN3        -1.2270   -2.2120   -0.0000 hn        1 25T      0.345700
      9 H4          1.2440   -2.3480    0.0000 h4        1 25T      0.230000
     10 HN1        -2.8010    1.1640   -0.0010 hn        1 25T      0.327200
     11 HN2        -3.2200   -0.4960   -0.0010 hn        1 25T      0.327200
     12 HM1         2.8710    1.3000    0.0000 hc        1 25T      0.083367
     13 HM2         3.1960   -0.2370    0.9090 hc        1 25T      0.083367
     14 HM3         3.1970   -0.2380   -0.9070 hc        1 25T      0.083367
@<TRIPOS>BOND
     1    1    2 1   
     2    1    5 1   
     3    2    3 2   
     4    2    6 1   
     5    3    4 1   
     6    3    8 1   
     7    4    5 2   
     8    4    9 1   
     9    5    7 1   
    10    6   10 1   
    11    6   11 1   
    12    7   12 1   
    13    7   13 1   
    14    7   14 1   
@<TRIPOS>SUBSTRUCTURE
     1 25T         1 TEMP              0 ****  ****    0 ROOT
