@<TRIPOS>MOLECULE
25T
   14    14     1     0     0
SMALL
bcc


@<TRIPOS>ATOM
      1 S1         -0.0480    0.1760    0.0440 ss        1 25T      0.134200
      2 C2          1.6690    0.0260    0.0650 cc        1 25T      0.156400
      3 N3          2.1320   -0.1330    1.3630 na        1 25T     -0.195100
      4 C4          1.0910   -0.1310    2.2960 cc        1 25T     -0.077300
      5 C5         -0.1510    0.0280    1.7310 cd        1 25T     -0.084400
      6 N           2.4540    0.0610   -1.0340 nh        1 25T     -0.368200
      7 CM         -1.4280    0.0710    2.4510 c3        1 25T     -0.046800
      8 HN3         3.0910   -0.2390    1.6170 hn        1 25T      0.345700
      9 H4          1.3370   -0.2510    3.3630 h4        1 25T      0.230000
     10 HN1         2.0350    0.1800   -1.9300 hn        1 25T      0.327200
     11 HN2         3.4440   -0.0290   -0.9800 hn        1 25T      0.327200
     12 HM1        -2.2870    0.2000    1.7450 hc        1 25T      0.083367
     13 HM2        -1.4400    0.9270    3.1770 hc        1 25T      0.083367
     14 HM3        -1.5860   -0.8780    3.0270 hc        1 25T      0.083367
@<TRIPOS>BOND
     1    1    2 1   
     2    1    5 1   
     3    2    3 2   
     4    2    6 1   
     5    3    4 1   
     6    3    8 1   
     7    4    5 2   
     8    4    9 1   
     9    5    7 1   
    10    6   10 1   
    11    6   11 1   
    12    7   12 1   
    13    7   13 1   
    14    7   14 1   
@<TRIPOS>SUBSTRUCTURE
     1 25T         1 TEMP              0 ****  ****    0 ROOT
