@<TRIPOS>MOLECULE
25T
   15    15     1     0     0
SMALL
bcc


@<TRIPOS>ATOM
      1 S1         -0.0660   -0.0030    0.0500 ss        1 25T      0.586200
      2 C2          1.6140    0.0000    0.0710 cc        1 25T     -0.194800
      3 N3          2.1130    0.0040    1.3780 na        1 25T     -0.055100
      4 C4          1.1020    0.0040    2.2920 cc        1 25T     -0.002300
      5 C5         -0.1800    0.0010    1.6800 cd        1 25T     -0.109400
      6 N           2.4800   -0.0010   -1.0920 n4        1 25T     -0.674000
      7 CM         -1.4310   -0.0000    2.4450 c3        1 25T     -0.085800
      8 HN3         3.0910    0.0060    1.6230 hn        1 25T      0.379700
      9 H4          1.3120    0.0060    3.3850 h4        1 25T      0.281000
     10 HN1         3.0840   -0.8420   -1.1000 hn        1 25T      0.501467
     11 HN2         3.0820    0.8430   -1.1030 hn        1 25T      0.501467
     12 HM1        -2.3320   -0.0030    1.7780 hc        1 25T      0.123700
     13 HM2        -1.4870   -0.9060    3.1120 hc        1 25T      0.123700
     14 HM3        -1.4900    0.9080    3.1080 hc        1 25T      0.123700
     15 HN31        1.9050   -0.0030   -1.9510 hn        1 25T      0.501467
@<TRIPOS>BOND
     1    1    2 1   
     2    1    5 1   
     3    2    3 2   
     4    2    6 1   
     5    3    4 1   
     6    3    8 1   
     7    4    5 2   
     8    4    9 1   
     9    5    7 1   
    10    6   10 1   
    11    6   11 1   
    12    6   15 1   
    13    7   12 1   
    14    7   13 1   
    15    7   14 1   
@<TRIPOS>SUBSTRUCTURE
     1 25T         1 TEMP              0 ****  ****    0 ROOT
