@<TRIPOS>MOLECULE
25T
   14    14     1     0     0
SMALL
bcc


@<TRIPOS>ATOM
      1 S1         -0.0410   -0.1760    0.0410 ss        1 25T      0.134200
      2 C2          1.6750   -0.0280    0.0710 cc        1 25T      0.156400
      3 N3          2.1320    0.1350    1.3700 na        1 25T     -0.195100
      4 C4          1.0850    0.1360    2.2980 cc        1 25T     -0.077300
      5 C5         -0.1540   -0.0240    1.7260 cd        1 25T     -0.084400
      6 N           2.4660   -0.0660   -1.0240 nv        1 25T     -0.368200
      7 CM         -1.4340   -0.0640    2.4400 c3        1 25T     -0.046800
      8 HN3         3.0890    0.2410    1.6300 hn        1 25T      0.345700
      9 H4          1.3260    0.2580    3.3660 h4        1 25T      0.230000
     10 HN1         3.4560    0.0230   -0.9650 hn        1 25T      0.327200
     11 HN2         2.0530   -0.1870   -1.9220 hn        1 25T      0.327200
     12 HM1        -1.4490   -0.9140    3.1710 hc        1 25T      0.083367
     13 HM2        -2.2900   -0.1990    1.7300 hc        1 25T      0.083367
     14 HM3        -1.5970    0.8890    3.0070 hc        1 25T      0.083367
@<TRIPOS>BOND
     1    1    2 1   
     2    1    5 1   
     3    2    3 2   
     4    2    6 1   
     5    3    4 1   
     6    3    8 1   
     7    4    5 2   
     8    4    9 1   
     9    5    7 1   
    10    6   10 1   
    11    6   11 1   
    12    7   12 1   
    13    7   13 1   
    14    7   14 1   
@<TRIPOS>SUBSTRUCTURE
     1 25T         1 TEMP              0 ****  ****    0 ROOT
