@<TRIPOS>MOLECULE
25T
   14    10     1     0     0
SMALL
bcc


@<TRIPOS>ATOM
      1 S1         -0.4670    0.0400   -0.9910 ss        1 25T      0.674000
      2 C2          1.0760    0.0400   -0.9910 c1        1 25T     -0.044000
      3 N3          1.5160    0.0400    0.3690 n2        1 25T     -0.194000
      4 C4          0.2510    0.0400    1.2980 c1        1 25T     -0.053000
      5 C5         -0.9260    0.0400    0.4630 c1        1 25T     -0.347000
      6 N           1.9100   -0.0010   -2.1370 n2        1 25T     -0.314000
      7 CM         -2.3570   -0.0540    0.9430 c2        1 25T     -0.172000
      8 HN3         2.3840    0.0400    0.6490 DU        1 25T      0.263000
      9 H4          0.2580    0.0400    2.2740 DU        1 25T      0.263000
     10 HN1         2.7830    0.2580   -2.0760 hn        1 25T      0.277500
     11 HN2         1.5680   -0.2610   -2.9410 hn        1 25T      0.277500
     12 HM1        -2.5870    0.7540    1.4400 ha        1 25T      0.122667
     13 HM2        -2.9530   -0.1440    0.1750 ha        1 25T      0.122667
     14 HM3        -2.4550   -0.8320    1.5240 ha        1 25T      0.122667
@<TRIPOS>BOND
     1    1    2 1   
     2    1    5 1   
     3    2    3 1   
     4    3    4 1   
     5    4    5 1   
     6    6   10 1   
     7    6   11 1   
     8    7   12 1   
     9    7   13 1   
    10    7   14 1   
@<TRIPOS>SUBSTRUCTURE
     1 25T         1 TEMP              0 ****  ****    0 ROOT
