@<TRIPOS>MOLECULE
25U
   45    47     1     0     0
SMALL
bcc


@<TRIPOS>ATOM
      1 CAA         0.1590    1.2580    0.3200 c3        1 25U     -0.102100
      2 CAO         0.7640   -0.0390    0.7900 c3        1 25U     -0.149700
      3 C4          1.8430    0.0870    1.8240 ca        1 25U      0.535600
      4 N3          2.2350    1.2870    2.2750 nb        1 25U     -0.634000
      5 C2          3.2380    1.3030    3.2290 ca        1 25U      0.729900
      6 NAD         3.6460    2.6550    3.7090 n4        1 25U     -0.813300
      7 N1          3.8800    0.2360    3.7650 nb        1 25U     -0.660000
      8 C6          3.4670   -0.9850    3.2920 ca        1 25U      0.462200
      9 NAE         4.1410   -2.1720    3.8520 n4        1 25U     -0.814300
     10 C5          2.4510   -1.1420    2.3190 ca        1 25U     -0.011600
     11 CAF         2.0430   -2.3820    1.8550 cg        1 25U     -0.356000
     12 CAG         1.6180   -3.4160    1.3950 c1        1 25U      0.170900
     13 CBB         1.1220   -4.6500    0.8610 c3        1 25U     -0.008000
     14 CAY        -0.1780   -4.4740    0.1460 ca        1 25U     -0.129300
     15 CAN        -1.3670   -4.3950    0.8770 ca        1 25U     -0.119000
     16 CAM        -0.2100   -4.4440   -1.2510 ca        1 25U     -0.112000
     17 CAV        -1.4340   -4.3340   -1.9110 ca        1 25U     -0.111000
     18 CAL        -2.6210   -4.2490   -1.1870 ca        1 25U     -0.091000
     19 CAX        -2.5980   -4.2780    0.2170 cp        1 25U     -0.004000
     20 CAW        -3.8300   -4.1890    0.9810 cp        1 25U     -0.301600
     21 CAJ        -5.0310   -4.8070    0.5480 ca        1 25U      0.444700
     22 NAO        -6.1760   -4.7260    1.2500 nb        1 25U     -0.677500
     23 CAI        -6.1250   -4.0160    2.4110 ca        1 25U      0.653900
     24 NAP        -5.0330   -3.3840    2.9250 nb        1 25U     -0.677500
     25 CAK        -3.9010   -3.4800    2.2020 ca        1 25U      0.444700
     26 H1         -0.6300    1.0340   -0.4420 hc        1 25U      0.067700
     27 H2          0.9250    1.9170   -0.1550 hc        1 25U      0.067700
     28 H3         -0.3200    1.8130    1.1630 hc        1 25U      0.067700
     29 H4         -0.0390   -0.6990    1.2280 hc        1 25U      0.104700
     30 H5          1.2100   -0.5930   -0.0860 hc        1 25U      0.104700
     31 H6          2.8260    3.1230    4.1280 hn        1 25U      0.497467
     32 H7          3.9770    3.2120    2.9050 hn        1 25U      0.497467
     33 H8          3.7400   -3.0170    3.4150 hn        1 25U      0.490133
     34 H9          5.1530   -2.1330    3.6580 hn        1 25U      0.490133
     35 H10         0.9940   -5.3940    1.7040 hc        1 25U      0.116200
     36 H11         1.8960   -5.0800    0.1560 hc        1 25U      0.116200
     37 H12        -1.3450   -4.4520    1.9760 ha        1 25U      0.133000
     38 H13         0.7200   -4.5250   -1.8340 ha        1 25U      0.141000
     39 H14        -1.4620   -4.3220   -3.0130 ha        1 25U      0.161000
     40 H15        -3.5840   -4.1620   -1.7170 ha        1 25U      0.161000
     41 H16        -5.0710   -5.3920   -0.3900 h4        1 25U      0.025100
     42 H17        -7.0670   -3.9460    2.9970 h5        1 25U      0.076100
     43 H18        -3.0160   -2.9630    2.6120 h4        1 25U      0.025100
     44 HAD3        4.3970    2.5850    4.4110 hn        1 25U      0.497467
     45 HAE3        3.9980   -2.2150    4.8720 hn        1 25U      0.490133
@<TRIPOS>BOND
     1    1    2 1   
     2    1   26 1   
     3    1   27 1   
     4    1   28 1   
     5    2    3 1   
     6    2   29 1   
     7    2   30 1   
     8    3    4 ar  
     9    3   10 ar  
    10    4    5 ar  
    11    5    6 1   
    12    5    7 ar  
    13    6   31 1   
    14    6   32 1   
    15    6   44 1   
    16    7    8 ar  
    17    8    9 1   
    18    8   10 ar  
    19    9   33 1   
    20    9   34 1   
    21    9   45 1   
    22   10   11 1   
    23   11   12 3   
    24   12   13 1   
    25   13   14 1   
    26   13   35 1   
    27   13   36 1   
    28   14   15 ar  
    29   14   16 ar  
    30   15   19 ar  
    31   15   37 1   
    32   16   17 ar  
    33   16   38 1   
    34   17   18 ar  
    35   17   39 1   
    36   18   19 ar  
    37   18   40 1   
    38   19   20 1   
    39   20   21 ar  
    40   20   25 ar  
    41   21   22 ar  
    42   21   41 1   
    43   22   23 ar  
    44   23   24 ar  
    45   23   42 1   
    46   24   25 ar  
    47   25   43 1   
@<TRIPOS>SUBSTRUCTURE
     1 25U         1 TEMP              0 ****  ****    0 ROOT
