@<TRIPOS>MOLECULE
25U
   43    45     1     0     0
SMALL
bcc


@<TRIPOS>ATOM
      1 CAA         0.1290    0.9300    0.2690 c3        1 25U     -0.088100
      2 CAO         1.5960    0.5770    0.2250 c3        1 25U     -0.139700
      3 C4          2.1030    0.1980    1.5930 ca        1 25U      0.539600
      4 N3          2.4680    1.1900    2.4260 nb        1 25U     -0.790000
      5 C2          2.9140    0.8110    3.6900 ca        1 25U      0.917900
      6 NAD         3.1890    1.8310    4.6020 nv        1 25U     -0.932500
      7 N1          3.0570   -0.4880    4.1370 nb        1 25U     -0.831000
      8 C6          2.6940   -1.4780    3.2640 ca        1 25U      0.745200
      9 NAE         2.8780   -2.7930    3.6430 nv        1 25U     -0.952500
     10 C5          2.1770   -1.1720    1.9500 ca        1 25U     -0.340600
     11 CAF         1.7740   -2.1910    1.0850 cg        1 25U     -0.079000
     12 CAG         1.4200   -3.0680    0.3460 c1        1 25U     -0.161100
     13 CBB         1.0190   -4.1140   -0.5440 c3        1 25U      0.052000
     14 CAY        -0.4320   -4.4620   -0.4550 ca        1 25U     -0.077300
     15 CAN        -0.8360   -5.7790   -0.6950 ca        1 25U     -0.118000
     16 CAM        -1.3920   -3.4870   -0.1660 ca        1 25U     -0.110000
     17 CAV        -2.7430   -3.8290   -0.1170 ca        1 25U     -0.126000
     18 CAL        -3.1450   -5.1410   -0.3560 ca        1 25U     -0.118000
     19 CAX        -2.1920   -6.1280   -0.6470 cp        1 25U     -0.035000
     20 CAW        -2.6060   -7.4990   -0.8960 cp        1 25U     -0.261600
     21 CAJ        -1.9710   -8.3080   -1.8690 ca        1 25U      0.432200
     22 NAO        -2.3440   -9.5800   -2.1090 nb        1 25U     -0.689500
     23 CAI        -3.3770  -10.0520   -1.3590 ca        1 25U      0.625900
     24 NAP        -4.0620   -9.3710   -0.4000 nb        1 25U     -0.689500
     25 CAK        -3.6670   -8.1020   -0.1800 ca        1 25U      0.432200
     26 H1         -0.2200    1.2200   -0.7510 hc        1 25U      0.040700
     27 H2         -0.4770    0.0570    0.6150 hc        1 25U      0.040700
     28 H3         -0.0520    1.7850    0.9640 hc        1 25U      0.040700
     29 H4          2.1800    1.4500   -0.1720 hc        1 25U      0.063700
     30 H5          1.7620   -0.2850   -0.4750 hc        1 25U      0.063700
     31 H6          3.7190    1.5930    5.4070 hn        1 25U      0.431800
     32 H7          3.3110    2.7450    4.2350 hn        1 25U      0.431800
     33 H8          3.0870   -3.0040    4.5880 hn        1 25U      0.436300
     34 H9          2.4320   -3.4890    3.0960 hn        1 25U      0.436300
     35 H10         1.6420   -5.0320   -0.3370 hc        1 25U      0.068700
     36 H11         1.2420   -3.7980   -1.6060 hc        1 25U      0.068700
     37 H12        -0.0820   -6.5510   -0.9130 ha        1 25U      0.134000
     38 H13        -1.0760   -2.4500    0.0290 ha        1 25U      0.145000
     39 H14        -3.4950   -3.0590    0.1100 ha        1 25U      0.137000
     40 H15        -4.2140   -5.4030   -0.3240 ha        1 25U      0.136000
     41 H16        -1.1380   -7.9160   -2.4810 h4        1 25U      0.031600
     42 H17        -3.6930  -11.0980   -1.5490 h5        1 25U      0.056100
     43 H18        -4.2150   -7.5450    0.6020 h4        1 25U      0.031600
@<TRIPOS>BOND
     1    1    2 1   
     2    1   26 1   
     3    1   27 1   
     4    1   28 1   
     5    2    3 1   
     6    2   29 1   
     7    2   30 1   
     8    3    4 ar  
     9    3   10 ar  
    10    4    5 ar  
    11    5    6 1   
    12    5    7 ar  
    13    6   31 1   
    14    6   32 1   
    15    7    8 ar  
    16    8    9 1   
    17    8   10 ar  
    18    9   33 1   
    19    9   34 1   
    20   10   11 1   
    21   11   12 3   
    22   12   13 1   
    23   13   14 1   
    24   13   35 1   
    25   13   36 1   
    26   14   15 ar  
    27   14   16 ar  
    28   15   19 ar  
    29   15   37 1   
    30   16   17 ar  
    31   16   38 1   
    32   17   18 ar  
    33   17   39 1   
    34   18   19 ar  
    35   18   40 1   
    36   19   20 1   
    37   20   21 ar  
    38   20   25 ar  
    39   21   22 ar  
    40   21   41 1   
    41   22   23 ar  
    42   23   24 ar  
    43   23   42 1   
    44   24   25 ar  
    45   25   43 1   
@<TRIPOS>SUBSTRUCTURE
     1 25U         1 TEMP              0 ****  ****    0 ROOT
