@<TRIPOS>MOLECULE
25U
   43    45     1     0     0
SMALL
bcc


@<TRIPOS>ATOM
      1 CAA         5.2990    2.3430   -1.2390 c3        1 25U     -0.088100
      2 CAO         4.3930    1.2280   -1.7030 c3        1 25U     -0.138700
      3 C4          4.2540    0.1540   -0.6550 ca        1 25U      0.540600
      4 N3          5.3350   -0.6020   -0.3850 nb        1 25U     -0.793000
      5 C2          5.1850   -1.5870    0.5860 ca        1 25U      0.918900
      6 NAD         6.3240   -2.3080    0.9450 nh        1 25U     -0.933500
      7 N1          4.0150   -1.8820    1.2590 nb        1 25U     -0.834000
      8 C6          2.9330   -1.0890    0.9790 ca        1 25U      0.751200
      9 NAE         1.7660   -1.2980    1.6770 nh        1 25U     -0.961500
     10 C5          3.0070   -0.0330   -0.0060 ca        1 25U     -0.342600
     11 CAF         1.8860    0.7510   -0.2890 cg        1 25U     -0.074000
     12 CAG         0.9160    1.4170   -0.5230 c1        1 25U     -0.164100
     13 CBB        -0.2310    2.2240   -0.8160 c3        1 25U      0.054000
     14 CAY        -1.4170    1.8620    0.0210 ca        1 25U     -0.077300
     15 CAN        -2.3630    0.9540   -0.4590 ca        1 25U     -0.112000
     16 CAM        -1.5910    2.4430    1.2820 ca        1 25U     -0.113000
     17 CAV        -2.7050    2.1150    2.0530 ca        1 25U     -0.128000
     18 CAL        -3.6490    1.2090    1.5750 ca        1 25U     -0.117000
     19 CAX        -3.4850    0.6200    0.3130 cp        1 25U     -0.036000
     20 CAW        -4.4670   -0.3260   -0.1910 cp        1 25U     -0.263600
     21 CAJ        -4.8340   -0.3690   -1.5580 ca        1 25U      0.432700
     22 NAO        -5.7420   -1.2410   -2.0370 nb        1 25U     -0.689000
     23 CAI        -6.2970   -2.0870   -1.1270 ca        1 25U      0.626900
     24 NAP        -6.0260   -2.1380    0.2060 nb        1 25U     -0.689000
     25 CAK        -5.1140   -1.2560    0.6580 ca        1 25U      0.432700
     26 H1          5.3480    3.1370   -2.0230 hc        1 25U      0.041367
     27 H2          4.9140    2.8000   -0.2960 hc        1 25U      0.041367
     28 H3          6.3330    1.9640   -1.0520 hc        1 25U      0.041367
     29 H4          3.3780    1.6410   -1.9470 hc        1 25U      0.061700
     30 H5          4.8060    0.7740   -2.6440 hc        1 25U      0.061700
     31 H6          7.0960   -2.2760    0.3220 hn        1 25U      0.431800
     32 H7          6.1910   -3.1480    1.4570 hn        1 25U      0.431800
     33 H8          1.6740   -2.0840    2.2720 hn        1 25U      0.441300
     34 H9          0.9490   -0.8290    1.3710 hn        1 25U      0.441300
     35 H10         0.0280    3.3090   -0.6460 hc        1 25U      0.066200
     36 H11        -0.4920    2.1120   -1.9080 hc        1 25U      0.066200
     37 H12        -2.2230    0.4900   -1.4480 ha        1 25U      0.138000
     38 H13        -0.8470    3.1590    1.6630 ha        1 25U      0.141000
     39 H14        -2.8410    2.5760    3.0420 ha        1 25U      0.138000
     40 H15        -4.5310    0.9620    2.1860 ha        1 25U      0.136000
     41 H16        -4.3850    0.3260   -2.2900 h4        1 25U      0.032100
     42 H17        -7.0470   -2.8090   -1.5100 h5        1 25U      0.057100
     43 H18        -4.8840   -1.2960    1.7390 h4        1 25U      0.032100
@<TRIPOS>BOND
     1    1    2 1   
     2    1   26 1   
     3    1   27 1   
     4    1   28 1   
     5    2    3 1   
     6    2   29 1   
     7    2   30 1   
     8    3    4 ar  
     9    3   10 ar  
    10    4    5 ar  
    11    5    6 1   
    12    5    7 ar  
    13    6   31 1   
    14    6   32 1   
    15    7    8 ar  
    16    8    9 1   
    17    8   10 ar  
    18    9   33 1   
    19    9   34 1   
    20   10   11 1   
    21   11   12 3   
    22   12   13 1   
    23   13   14 1   
    24   13   35 1   
    25   13   36 1   
    26   14   15 ar  
    27   14   16 ar  
    28   15   19 ar  
    29   15   37 1   
    30   16   17 ar  
    31   16   38 1   
    32   17   18 ar  
    33   17   39 1   
    34   18   19 ar  
    35   18   40 1   
    36   19   20 1   
    37   20   21 ar  
    38   20   25 ar  
    39   21   22 ar  
    40   21   41 1   
    41   22   23 ar  
    42   23   24 ar  
    43   23   42 1   
    44   24   25 ar  
    45   25   43 1   
@<TRIPOS>SUBSTRUCTURE
     1 25U         1 TEMP              0 ****  ****    0 ROOT
