@<TRIPOS>MOLECULE
25U
   43    35     1     0     0
SMALL
bcc


@<TRIPOS>ATOM
      1 CAA        -1.2200    5.1160   -2.6090 c3        1 25U     -0.201000
      2 CAO        -0.8640    3.8030   -1.9430 c3        1 25U     -0.122000
      3 C4         -1.2290    3.8660   -0.4760 c2        1 25U      0.118000
      4 N3         -1.5050    5.0470    0.0960 n1        1 25U     -0.262000
      5 C2         -1.7820    5.1120    1.4280 c1        1 25U      0.199000
      6 NAD        -2.1450    6.3510    2.0160 n2        1 25U     -0.331000
      7 N1         -1.7790    3.9770    2.1820 n1        1 25U     -0.305000
      8 C6         -1.5030    2.7940    1.6120 c1        1 25U      0.226000
      9 NAE        -1.3930    1.6300    2.4170 n3        1 25U     -0.352000
     10 C5         -1.2260    2.7280    0.2780 c2        1 25U     -0.215000
     11 CAF        -1.0330    1.3830   -0.3870 c1        1 25U     -0.080000
     12 CAG        -0.8810    0.3240   -0.9110 c1        1 25U     -0.189000
     13 CBB        -0.6880   -1.0210   -1.5770 c2        1 25U     -0.005000
     14 CAY        -0.3210   -2.0550   -0.5300 c2        1 25U     -0.070000
     15 CAN         0.9100   -2.6910   -0.5900 c2        1 25U     -0.111000
     16 CAM        -1.2630   -2.4570    0.4050 c1        1 25U     -0.114000
     17 CAV        -0.9750   -3.4940    1.2780 c1        1 25U     -0.122500
     18 CAL         0.2550   -4.1290    1.2180 c1        1 25U     -0.122500
     19 CAX         1.1980   -3.7280    0.2850 c1        1 25U     -0.036000
     20 CAW         2.4940   -4.4920    0.1470 c1        1 25U     -0.133000
     21 CAJ         2.7580   -5.1860   -0.9980 c1        1 25U     -0.034000
     22 NAO         3.9320   -5.8180   -1.1420 n1        1 25U     -0.163000
     23 CAI         4.8590   -5.7680   -0.1460 c1        1 25U     -0.034000
     24 NAP         4.5960   -5.0760    0.9980 n1        1 25U     -0.163000
     25 CAK         3.4230   -4.4430    1.1440 c1        1 25U     -0.033000
     26 H1         -2.0500    5.0100   -3.1190 hc        1 25U      0.079667
     27 H2         -0.4960    5.3820   -3.2140 hc        1 25U      0.079667
     28 H3         -1.3430    5.8070   -1.9240 hc        1 25U      0.079667
     29 H4         -1.3580    3.0770   -2.3710 hc        1 25U      0.102000
     30 H5          0.0970    3.6420   -2.0330 hc        1 25U      0.102000
     31 H6         -2.3290    6.3960    2.9100 hn        1 25U      0.227000
     32 H7         -2.2270    7.0980    1.4950 hn        1 25U      0.227000
     33 H8         -1.4230    1.7000    3.3270 hn        1 25U      0.232500
     34 H9         -1.3050    0.8100    2.0240 hn        1 25U      0.232500
     35 H10        -1.5180   -1.2870   -2.0200 ha        1 25U      0.105000
     36 H11         0.0290   -0.9580   -2.2380 ha        1 25U      0.105000
     37 H12         1.5730   -2.4090   -1.2470 ha        1 25U      0.138000
     38 H13        -2.1300   -2.0090    0.4470 ha        1 25U      0.140000
     39 H14        -1.6380   -3.7760    1.9360 ha        1 25U      0.137000
     40 H15         0.4580   -4.8600    1.8350 ha        1 25U      0.137000
     41 H16         2.0940   -5.2210   -1.7120 ha        1 25U      0.181500
     42 H17         5.7130   -6.2290   -0.2510 ha        1 25U      0.181500
     43 H18         3.2350   -3.9470    1.9630 ha        1 25U      0.168000
@<TRIPOS>BOND
     1    1    2 1   
     2    1   26 1   
     3    1   27 1   
     4    1   28 1   
     5    2    3 1   
     6    2   29 1   
     7    2   30 1   
     8    3    4 1   
     9    3   10 1   
    10    5    7 1   
    11    6   31 1   
    12    6   32 1   
    13    8    9 1   
    14    8   10 1   
    15    9   33 1   
    16    9   34 1   
    17   10   11 1   
    18   11   12 1   
    19   13   14 1   
    20   13   35 1   
    21   13   36 1   
    22   14   15 1   
    23   14   16 1   
    24   15   19 1   
    25   15   37 1   
    26   16   38 1   
    27   17   18 1   
    28   17   39 1   
    29   18   40 1   
    30   20   25 1   
    31   21   22 1   
    32   21   41 1   
    33   23   24 1   
    34   23   42 1   
    35   25   43 1   
@<TRIPOS>SUBSTRUCTURE
     1 25U         1 TEMP              0 ****  ****    0 ROOT
