@<TRIPOS>MOLECULE
25U
   43    45     1     0     0
SMALL
bcc


@<TRIPOS>ATOM
      1 CAA        -0.6370    0.4460    1.5070 c3        1 25U     -0.086100
      2 CAO         0.7190    0.3030    0.8600 c3        1 25U     -0.141700
      3 C4          1.8080    0.1430    1.8890 ca        1 25U      0.542600
      4 N3          2.1470    1.2230    2.6170 nb        1 25U     -0.792000
      5 C2          3.1570    1.0540    3.5600 ca        1 25U      0.921900
      6 NAD         3.5790    2.1860    4.2540 nh        1 25U     -0.935500
      7 N1          3.8090   -0.1340    3.8350 nb        1 25U     -0.834000
      8 C6          3.4620   -1.2120    3.0650 ca        1 25U      0.750200
      9 NAE         4.1420   -2.3970    3.2490 nh        1 25U     -0.959500
     10 C5          2.4300   -1.1210    2.0580 ca        1 25U     -0.345600
     11 CAF         2.0750   -2.2380    1.2990 cg        1 25U     -0.077000
     12 CAG         1.7740   -3.2030    0.6530 c1        1 25U     -0.165100
     13 CBB         1.4380   -4.3490   -0.1370 c3        1 25U      0.053000
     14 CAY        -0.0110   -4.7090   -0.1140 ca        1 25U     -0.075300
     15 CAN        -0.8280   -4.3660    0.9660 ca        1 25U     -0.106000
     16 CAM        -0.5510   -5.4280   -1.1880 ca        1 25U     -0.123000
     17 CAV        -1.8940   -5.7990   -1.1750 ca        1 25U     -0.126000
     18 CAL        -2.7090   -5.4580   -0.0970 ca        1 25U     -0.118000
     19 CAX        -2.1810   -4.7360    0.9830 cp        1 25U     -0.034000
     20 CAW        -3.0250   -4.3710    2.1080 cp        1 25U     -0.262600
     21 CAJ        -2.8880   -3.1310    2.7770 ca        1 25U      0.432700
     22 NAO        -3.6640   -2.7810    3.8200 nb        1 25U     -0.690000
     23 CAI        -4.5990   -3.6930    4.2020 ca        1 25U      0.625900
     24 NAP        -4.8240   -4.9110    3.6390 nb        1 25U     -0.690000
     25 CAK        -4.0330   -5.2360    2.5980 ca        1 25U      0.432700
     26 H1         -0.8750   -0.4480    2.1320 hc        1 25U      0.040033
     27 H2         -1.4220    0.5440    0.7180 hc        1 25U      0.040033
     28 H3         -0.6740    1.3520    2.1590 hc        1 25U      0.040033
     29 H4          0.9330    1.2100    0.2310 hc        1 25U      0.065200
     30 H5          0.7230   -0.5870    0.1770 hc        1 25U      0.065200
     31 H6          2.9840    2.9800    4.2370 hn        1 25U      0.433800
     32 H7          4.1330    2.0490    5.0650 hn        1 25U      0.433800
     33 H8          4.7620   -2.4990    4.0150 hn        1 25U      0.438800
     34 H9          3.7760   -3.2110    2.8210 hn        1 25U      0.438800
     35 H10         1.7580   -4.1630   -1.2040 hc        1 25U      0.068200
     36 H11         2.0300   -5.2370    0.2330 hc        1 25U      0.068200
     37 H12        -0.4030   -3.8030    1.8120 ha        1 25U      0.145000
     38 H13         0.0860   -5.6970   -2.0430 ha        1 25U      0.134000
     39 H14        -2.3150   -6.3620   -2.0210 ha        1 25U      0.136000
     40 H15        -3.7710   -5.7470   -0.0990 ha        1 25U      0.135000
     41 H16        -2.1290   -2.3910    2.4570 h4        1 25U      0.033100
     42 H17        -5.2450   -3.4140    5.0610 h5        1 25U      0.056100
     43 H18        -4.2050   -6.2270    2.1390 h4        1 25U      0.033100
@<TRIPOS>BOND
     1    1    2 1   
     2    1   26 1   
     3    1   27 1   
     4    1   28 1   
     5    2    3 1   
     6    2   29 1   
     7    2   30 1   
     8    3    4 ar  
     9    3   10 ar  
    10    4    5 ar  
    11    5    6 1   
    12    5    7 ar  
    13    6   31 1   
    14    6   32 1   
    15    7    8 ar  
    16    8    9 1   
    17    8   10 ar  
    18    9   33 1   
    19    9   34 1   
    20   10   11 1   
    21   11   12 3   
    22   12   13 1   
    23   13   14 1   
    24   13   35 1   
    25   13   36 1   
    26   14   15 ar  
    27   14   16 ar  
    28   15   19 ar  
    29   15   37 1   
    30   16   17 ar  
    31   16   38 1   
    32   17   18 ar  
    33   17   39 1   
    34   18   19 ar  
    35   18   40 1   
    36   19   20 1   
    37   20   21 ar  
    38   20   25 ar  
    39   21   22 ar  
    40   21   41 1   
    41   22   23 ar  
    42   23   24 ar  
    43   23   42 1   
    44   24   25 ar  
    45   25   43 1   
@<TRIPOS>SUBSTRUCTURE
     1 25U         1 TEMP              0 ****  ****    0 ROOT
