@<TRIPOS>MOLECULE
25V
   38    31     1     0     0
SMALL
bcc


@<TRIPOS>ATOM
      1 O1          3.8800    3.0690   -1.1400 o         1 25V     -0.347000
      2 C1          4.0580    2.0460   -1.7720 c1        1 25V      0.310000
      3 C           4.9520    2.0570   -2.9940 c3        1 25V     -0.247000
      4 N           3.3900    0.8530   -1.3930 n2        1 25V     -0.330000
      5 C2          2.5140    0.8550   -0.2780 c1        1 25V      0.079000
      6 C17         2.8000    1.6420    0.8260 c1        1 25V     -0.151000
      7 C16         1.9250    1.6730    1.9010 c1        1 25V     -0.118000
      8 C15         0.7630    0.9170    1.8700 c1        1 25V     -0.118000
      9 C4          0.4770    0.1300    0.7660 c1        1 25V     -0.038500
     10 C3          1.3520    0.0990   -0.3080 c1        1 25V     -0.128500
     11 C5         -0.7830   -0.7060    0.7390 c1        1 25V     -0.038500
     12 C14        -1.9770   -0.2000    0.2460 c1        1 25V      0.006000
     13 C13        -2.0310    1.1110   -0.2650 c1        1 25V     -0.118000
     14 C12        -3.2280    1.6160   -0.7570 c1        1 25V     -0.118000
     15 C11        -4.3740    0.8270   -0.7440 c1        1 25V     -0.118000
     16 C10        -4.3220   -0.4660   -0.2400 c1        1 25V     -0.118000
     17 C9         -3.1100   -0.9800    0.2590 c1        1 25V     -0.080000
     18 N1         -3.0580   -2.2680    0.7630 n3        1 25V      0.349000
     19 O          -4.1330   -3.0050    0.3570 o         1 25V     -0.436000
     20 C7         -1.8830   -2.7660    1.2490 c1        1 25V     -0.147000
     21 C8         -1.9340   -4.1910    1.7560 c3        1 25V     -0.159000
     22 C6         -0.7350   -1.9790    1.2380 c1        1 25V     -0.128500
     23 H1          5.8520    1.7610   -2.7430 hc        1 25V      0.109333
     24 H2          4.5860    1.4510   -3.6710 hc        1 25V      0.109333
     25 H3          4.9960    2.9660   -3.3580 hc        1 25V      0.109333
     26 H4          3.5440    0.0790   -1.8500 hn        1 25V      0.229000
     27 H5          3.6180    2.1740    0.8480 ha        1 25V      0.176000
     28 H6          2.1260    2.2270    2.6780 ha        1 25V      0.146500
     29 H7          0.1470    0.9390    2.6270 ha        1 25V      0.146500
     30 H8          1.1510   -0.4560   -1.0860 ha        1 25V      0.146000
     31 H9         -1.2270    1.6650   -0.2740 ha        1 25V      0.146500
     32 H10        -3.2650    2.5250   -1.1110 ha        1 25V      0.146500
     33 H11        -5.2160    1.1830   -1.0900 ha        1 25V      0.146500
     34 H12        -5.1270   -1.0190   -0.2310 ha        1 25V      0.146500
     35 H14        -1.0460   -4.4550    2.0770 hc        1 25V      0.097333
     36 H15        -2.2090   -4.7870    1.0290 hc        1 25V      0.097333
     37 H16        -2.5790   -4.2530    2.4910 hc        1 25V      0.097333
     38 H17         0.1050   -2.3360    1.5850 ha        1 25V      0.146000
@<TRIPOS>BOND
     1    1    2 1   
     2    2    3 1   
     3    3   23 1   
     4    3   24 1   
     5    3   25 1   
     6    4    5 1   
     7    4   26 1   
     8    5    6 1   
     9    6   27 1   
    10    7    8 1   
    11    7   28 1   
    12    8   29 1   
    13    9   10 1   
    14    9   11 1   
    15   10   30 1   
    16   11   22 1   
    17   12   17 1   
    18   13   14 1   
    19   13   31 1   
    20   14   32 1   
    21   15   16 1   
    22   15   33 1   
    23   16   34 1   
    24   17   18 1   
    25   18   19 1   
    26   18   20 1   
    27   20   21 1   
    28   21   35 1   
    29   21   36 1   
    30   21   37 1   
    31   22   38 1   
@<TRIPOS>SUBSTRUCTURE
     1 25V         1 TEMP              0 ****  ****    0 ROOT
