@<TRIPOS>MOLECULE
25V
   38    40     1     0     0
SMALL
bcc


@<TRIPOS>ATOM
      1 O1          0.5730   -1.3160    0.3020 o         1 25V     -0.587100
      2 C1          1.4390   -0.4340    0.1630 c         1 25V      0.665100
      3 C           2.2900    0.0150    1.3290 c3        1 25V     -0.178100
      4 N           1.6850    0.2010   -1.0490 ns        1 25V     -0.477100
      5 C2          1.0610   -0.0510   -2.2810 ca        1 25V      0.070600
      6 C17         1.6650    0.4520   -3.4600 ca        1 25V     -0.181000
      7 C16         1.0700    0.2340   -4.6970 ca        1 25V     -0.105000
      8 C15        -0.1240   -0.4750   -4.8010 ca        1 25V     -0.147000
      9 C4         -0.7380   -0.9720   -3.6450 cp        1 25V     -0.012000
     10 C3         -0.1500   -0.7650   -2.3920 ca        1 25V     -0.143000
     11 C5         -1.9780   -1.7460   -3.7300 cp        1 25V     -0.066000
     12 C14        -3.1450   -1.2320   -4.3740 ca        1 25V      0.008000
     13 C13        -3.2050    0.0790   -4.9180 ca        1 25V     -0.130000
     14 C12        -4.3430    0.5430   -5.5320 ca        1 25V     -0.108000
     15 C11        -5.4870   -0.2790   -5.6330 ca        1 25V     -0.138000
     16 C10        -5.4780   -1.5490   -5.1090 ca        1 25V     -0.083000
     17 C9         -4.3060   -2.0460   -4.4620 ca        1 25V     -0.104300
     18 N1         -4.3270   -3.3610   -3.9050 na        1 25V      0.246600
     19 O          -5.3350   -4.0500   -4.0020 o         1 25V     -0.287000
     20 C7         -3.1940   -3.8140   -3.2640 ca        1 25V     -0.176600
     21 C8         -3.2040   -5.1760   -2.6590 c3        1 25V     -0.033800
     22 C6         -2.0320   -3.0070   -3.1780 ca        1 25V     -0.075000
     23 H1          3.3710   -0.1750    1.1240 hc        1 25V      0.069700
     24 H2          2.1400    1.1040    1.5280 hc        1 25V      0.069700
     25 H3          1.9850   -0.5640    2.2350 hc        1 25V      0.069700
     26 H4          2.4420    0.8460   -1.0760 hn        1 25V      0.315500
     27 H5          2.6080    1.0160   -3.4090 ha        1 25V      0.130000
     28 H6          1.5540    0.6250   -5.6060 ha        1 25V      0.135000
     29 H7         -0.5800   -0.6530   -5.7860 ha        1 25V      0.142000
     30 H8         -0.6470   -1.1700   -1.4940 ha        1 25V      0.176000
     31 H9         -2.3150    0.7220   -4.8290 ha        1 25V      0.150000
     32 H10        -4.3760    1.5620   -5.9480 ha        1 25V      0.137000
     33 H11        -6.3880    0.1080   -6.1320 ha        1 25V      0.141000
     34 H12        -6.3660   -2.2010   -5.1730 ha        1 25V      0.170000
     35 H14        -2.2260   -5.3820   -2.1620 hc        1 25V      0.058367
     36 H15        -4.0260   -5.2600   -1.9030 hc        1 25V      0.058367
     37 H16        -3.3870   -5.9490   -3.4480 hc        1 25V      0.058367
     38 H17        -1.1580   -3.4260   -2.6510 ha        1 25V      0.161000
@<TRIPOS>BOND
     1    1    2 2   
     2    2    3 1   
     3    2    4 1   
     4    3   23 1   
     5    3   24 1   
     6    3   25 1   
     7    4    5 1   
     8    4   26 1   
     9    5    6 ar  
    10    5   10 ar  
    11    6    7 ar  
    12    6   27 1   
    13    7    8 ar  
    14    7   28 1   
    15    8    9 ar  
    16    8   29 1   
    17    9   10 ar  
    18    9   11 1   
    19   10   30 1   
    20   11   12 ar  
    21   11   22 ar  
    22   12   13 ar  
    23   12   17 ar  
    24   13   14 ar  
    25   13   31 1   
    26   14   15 ar  
    27   14   32 1   
    28   15   16 ar  
    29   15   33 1   
    30   16   17 ar  
    31   16   34 1   
    32   17   18 1   
    33   18   19 1   
    34   18   20 2   
    35   20   21 1   
    36   20   22 ar  
    37   21   35 1   
    38   21   36 1   
    39   21   37 1   
    40   22   38 1   
@<TRIPOS>SUBSTRUCTURE
     1 25V         1 TEMP              0 ****  ****    0 ROOT
