@<TRIPOS>MOLECULE
25V
   39    41     1     0     0
SMALL
bcc


@<TRIPOS>ATOM
      1 O1          2.8770    1.4360   -0.1640 o         1 25V     -0.401100
      2 C1          1.9470    0.6490   -0.2070 c         1 25V      0.561100
      3 C           0.6310    0.7060    0.4810 c3        1 25V     -0.184100
      4 N           2.1940   -0.5780   -1.0830 n4        1 25V     -0.553200
      5 C2          1.4130   -0.5190   -2.3220 ca        1 25V     -0.061400
      6 C17         1.9000    0.2260   -3.4100 ca        1 25V     -0.103000
      7 C16         1.1500    0.2660   -4.5840 ca        1 25V     -0.101000
      8 C15        -0.0610   -0.4160   -4.6810 ca        1 25V     -0.069000
      9 C4         -0.5480   -1.1610   -3.5950 cp        1 25V      0.027000
     10 C3          0.1960   -1.2170   -2.4090 ca        1 25V     -0.119000
     11 C5         -1.8020   -1.9050   -3.6910 cp        1 25V     -0.138000
     12 C14        -3.0300   -1.2540   -4.0210 ca        1 25V      0.022000
     13 C13        -3.1300    0.1450   -4.2330 ca        1 25V     -0.159000
     14 C12        -4.3310    0.7350   -4.5490 ca        1 25V     -0.079000
     15 C11        -5.5020   -0.0460   -4.6660 ca        1 25V     -0.130000
     16 C10        -5.4540   -1.4040   -4.4590 ca        1 25V     -0.068000
     17 C9         -4.2160   -2.0320   -4.1270 ca        1 25V     -0.113300
     18 N1         -4.1940   -3.4450   -3.9060 na        1 25V      0.268600
     19 O          -5.2190   -4.0920   -4.0030 o         1 25V     -0.225000
     20 C7         -2.9860   -4.0370   -3.5780 ca        1 25V     -0.196600
     21 C8         -2.9500   -5.5090   -3.3500 c3        1 25V     -0.037800
     22 C6         -1.8070   -3.2670   -3.4710 ca        1 25V     -0.049000
     23 H1         -0.2020    0.3500   -0.1780 hc        1 25V      0.116367
     24 H2          0.4310    1.7710    0.7790 hc        1 25V      0.116367
     25 H3          0.6650    0.0780    1.4090 hc        1 25V      0.116367
     26 H4          3.1940   -0.6250   -1.3240 hn        1 25V      0.462800
     27 H5          2.8550    0.7730   -3.3530 ha        1 25V      0.163000
     28 H6          1.5280    0.8430   -5.4460 ha        1 25V      0.174000
     29 H7         -0.6430   -0.3820   -5.6190 ha        1 25V      0.179000
     30 H8         -0.1890   -1.8140   -1.5670 ha        1 25V      0.154000
     31 H9         -2.2220    0.7590   -4.1380 ha        1 25V      0.132000
     32 H10        -4.3930    1.8220   -4.7140 ha        1 25V      0.149000
     33 H11        -6.4550    0.4420   -4.9250 ha        1 25V      0.159000
     34 H12        -6.3630   -2.0260   -4.5440 ha        1 25V      0.182000
     35 H14        -3.2900   -6.0530   -4.2690 hc        1 25V      0.065033
     36 H15        -3.6390   -5.7920   -2.5140 hc        1 25V      0.065033
     37 H16        -1.9130   -5.8340   -3.0970 hc        1 25V      0.065033
     38 H17        -0.8770   -3.8010   -3.2190 ha        1 25V      0.147000
     39 HN3         1.9350   -1.4220   -0.5610 hn        1 25V      0.462800
@<TRIPOS>BOND
     1    1    2 2   
     2    2    3 1   
     3    2    4 1   
     4    3   23 1   
     5    3   24 1   
     6    3   25 1   
     7    4    5 1   
     8    4   26 1   
     9    4   39 1   
    10    5    6 ar  
    11    5   10 ar  
    12    6    7 ar  
    13    6   27 1   
    14    7    8 ar  
    15    7   28 1   
    16    8    9 ar  
    17    8   29 1   
    18    9   10 ar  
    19    9   11 1   
    20   10   30 1   
    21   11   12 ar  
    22   11   22 ar  
    23   12   13 ar  
    24   12   17 ar  
    25   13   14 ar  
    26   13   31 1   
    27   14   15 ar  
    28   14   32 1   
    29   15   16 ar  
    30   15   33 1   
    31   16   17 ar  
    32   16   34 1   
    33   17   18 1   
    34   18   19 1   
    35   18   20 2   
    36   20   21 1   
    37   20   22 ar  
    38   21   35 1   
    39   21   36 1   
    40   21   37 1   
    41   22   38 1   
@<TRIPOS>SUBSTRUCTURE
     1 25V         1 TEMP              0 ****  ****    0 ROOT
