@<TRIPOS>MOLECULE
25V
   38    40     1     0     0
SMALL
bcc


@<TRIPOS>ATOM
      1 O1          0.5750   -1.3200    0.3010 o         1 25V     -0.587100
      2 C1          1.4400   -0.4380    0.1630 c         1 25V      0.665100
      3 C           2.2920    0.0100    1.3300 c3        1 25V     -0.178100
      4 N           1.6860    0.1980   -1.0480 n         1 25V     -0.477100
      5 C2          1.0610   -0.0510   -2.2810 ca        1 25V      0.070600
      6 C17         1.6630    0.4550   -3.4590 ca        1 25V     -0.181000
      7 C16         1.0680    0.2390   -4.6960 ca        1 25V     -0.105000
      8 C15        -0.1250   -0.4710   -4.8000 ca        1 25V     -0.147000
      9 C4         -0.7380   -0.9700   -3.6450 cp        1 25V     -0.012000
     10 C3         -0.1500   -0.7650   -2.3920 ca        1 25V     -0.143000
     11 C5         -1.9780   -1.7460   -3.7310 cp        1 25V     -0.066000
     12 C14        -3.1460   -1.2300   -4.3730 ca        1 25V      0.008000
     13 C13        -3.2070    0.0820   -4.9140 ca        1 25V     -0.130000
     14 C12        -4.3460    0.5470   -5.5250 ca        1 25V     -0.108000
     15 C11        -5.4900   -0.2760   -5.6270 ca        1 25V     -0.138000
     16 C10        -5.4790   -1.5460   -5.1060 ca        1 25V     -0.083000
     17 C9         -4.3070   -2.0450   -4.4610 ca        1 25V     -0.104300
     18 N1         -4.3260   -3.3610   -3.9080 na        1 25V      0.246600
     19 O          -5.3330   -4.0500   -4.0060 o         1 25V     -0.287000
     20 C7         -3.1920   -3.8150   -3.2680 ca        1 25V     -0.176600
     21 C8         -3.2010   -5.1780   -2.6680 c3        1 25V     -0.033800
     22 C6         -2.0300   -3.0080   -3.1820 ca        1 25V     -0.075000
     23 H1          1.9880   -0.5720    2.2340 hc        1 25V      0.069700
     24 H2          2.1400    1.0980    1.5310 hc        1 25V      0.069700
     25 H3          3.3730   -0.1780    1.1240 hc        1 25V      0.069700
     26 H4          2.4430    0.8440   -1.0750 hn        1 25V      0.315500
     27 H5          2.6070    1.0190   -3.4070 ha        1 25V      0.130000
     28 H6          1.5510    0.6320   -5.6040 ha        1 25V      0.135000
     29 H7         -0.5820   -0.6470   -5.7850 ha        1 25V      0.142000
     30 H8         -0.6460   -1.1730   -1.4940 ha        1 25V      0.176000
     31 H9         -2.3170    0.7260   -4.8230 ha        1 25V      0.150000
     32 H10        -4.3800    1.5670   -5.9390 ha        1 25V      0.137000
     33 H11        -6.3910    0.1120   -6.1240 ha        1 25V      0.141000
     34 H12        -6.3670   -2.1990   -5.1710 ha        1 25V      0.170000
     35 H14        -3.3850   -5.9500   -3.4580 hc        1 25V      0.058367
     36 H15        -2.2220   -5.3860   -2.1730 hc        1 25V      0.058367
     37 H16        -4.0210   -5.2650   -1.9110 hc        1 25V      0.058367
     38 H17        -1.1560   -3.4280   -2.6570 ha        1 25V      0.161000
@<TRIPOS>BOND
     1    1    2 2   
     2    2    3 1   
     3    2    4 1   
     4    3   23 1   
     5    3   24 1   
     6    3   25 1   
     7    4    5 1   
     8    4   26 1   
     9    5    6 ar  
    10    5   10 ar  
    11    6    7 ar  
    12    6   27 1   
    13    7    8 ar  
    14    7   28 1   
    15    8    9 ar  
    16    8   29 1   
    17    9   10 ar  
    18    9   11 1   
    19   10   30 1   
    20   11   12 ar  
    21   11   22 ar  
    22   12   13 ar  
    23   12   17 ar  
    24   13   14 ar  
    25   13   31 1   
    26   14   15 ar  
    27   14   32 1   
    28   15   16 ar  
    29   15   33 1   
    30   16   17 ar  
    31   16   34 1   
    32   17   18 1   
    33   18   19 1   
    34   18   20 2   
    35   20   21 1   
    36   20   22 ar  
    37   21   35 1   
    38   21   36 1   
    39   21   37 1   
    40   22   38 1   
@<TRIPOS>SUBSTRUCTURE
     1 25V         1 TEMP              0 ****  ****    0 ROOT
