@<TRIPOS>MOLECULE
25V
   38    40     1     0     0
SMALL
bcc


@<TRIPOS>ATOM
      1 O1          3.4130    2.1890   -0.8200 o         1 25V     -0.587100
      2 C1          4.3640    1.3920   -0.7410 c         1 25V      0.665100
      3 C           5.7450    1.7730   -1.2210 c3        1 25V     -0.178100
      4 N           4.2340    0.1080   -0.2220 n         1 25V     -0.477100
      5 C2          3.0760   -0.4770    0.3150 ca        1 25V      0.070600
      6 C17         3.2110   -1.6550    1.0900 ca        1 25V     -0.181000
      7 C16         2.0880   -2.2710    1.6280 ca        1 25V     -0.105000
      8 C15         0.8150   -1.7470    1.4140 ca        1 25V     -0.147000
      9 C4          0.6630   -0.5880    0.6440 cp        1 25V     -0.012000
     10 C3          1.7850    0.0470    0.0980 ca        1 25V     -0.143000
     11 C5         -0.6610   -0.0000    0.4300 cp        1 25V     -0.066000
     12 C14        -1.7400   -0.7550   -0.1250 ca        1 25V      0.008000
     13 C13        -1.5900   -2.0990   -0.5610 ca        1 25V     -0.130000
     14 C12        -2.6480   -2.7970   -1.0900 ca        1 25V     -0.108000
     15 C11        -3.9170   -2.1880   -1.2140 ca        1 25V     -0.138000
     16 C10        -4.1040   -0.8870   -0.8170 ca        1 25V     -0.083000
     17 C9         -3.0140   -0.1430   -0.2710 ca        1 25V     -0.104300
     18 N1         -3.2260    1.2150    0.1150 na        1 25V      0.246600
     19 O          -4.3350    1.7200   -0.0090 o         1 25V     -0.287000
     20 C7         -2.1560    1.9240    0.6180 ca        1 25V     -0.176600
     21 C8         -2.3540    3.3490    1.0070 c3        1 25V     -0.033800
     22 C6         -0.8840    1.3160    0.7690 ca        1 25V     -0.075000
     23 H1          5.7070    2.8170   -1.6180 hc        1 25V      0.069700
     24 H2          6.4790    1.7320   -0.3810 hc        1 25V      0.069700
     25 H3          6.0810    1.0880   -2.0360 hc        1 25V      0.069700
     26 H4          5.0650   -0.4330   -0.1400 hn        1 25V      0.315500
     27 H5          4.2040   -2.0920    1.2760 ha        1 25V      0.130000
     28 H6          2.2080   -3.1820    2.2340 ha        1 25V      0.135000
     29 H7         -0.0670   -2.2340    1.8550 ha        1 25V      0.142000
     30 H8          1.6430    0.9630   -0.5000 ha        1 25V      0.176000
     31 H9         -0.5970   -2.5680   -0.4740 ha        1 25V      0.150000
     32 H10        -2.5180   -3.8370   -1.4260 ha        1 25V      0.137000
     33 H11        -4.7540   -2.7650   -1.6350 ha        1 25V      0.141000
     34 H12        -5.0870   -0.3950   -0.9130 ha        1 25V      0.170000
     35 H14        -3.1240    3.4260    1.8160 hc        1 25V      0.058367
     36 H15        -1.3930    3.7840    1.3710 hc        1 25V      0.058367
     37 H16        -2.7180    3.9440    0.1310 hc        1 25V      0.058367
     38 H17        -0.0690    1.9360    1.1770 ha        1 25V      0.161000
@<TRIPOS>BOND
     1    1    2 2   
     2    2    3 1   
     3    2    4 1   
     4    3   23 1   
     5    3   24 1   
     6    3   25 1   
     7    4    5 1   
     8    4   26 1   
     9    5    6 ar  
    10    5   10 ar  
    11    6    7 ar  
    12    6   27 1   
    13    7    8 ar  
    14    7   28 1   
    15    8    9 ar  
    16    8   29 1   
    17    9   10 ar  
    18    9   11 1   
    19   10   30 1   
    20   11   12 ar  
    21   11   22 ar  
    22   12   13 ar  
    23   12   17 ar  
    24   13   14 ar  
    25   13   31 1   
    26   14   15 ar  
    27   14   32 1   
    28   15   16 ar  
    29   15   33 1   
    30   16   17 ar  
    31   16   34 1   
    32   17   18 1   
    33   18   19 1   
    34   18   20 2   
    35   20   21 1   
    36   20   22 ar  
    37   21   35 1   
    38   21   36 1   
    39   21   37 1   
    40   22   38 1   
@<TRIPOS>SUBSTRUCTURE
     1 25V         1 TEMP              0 ****  ****    0 ROOT
