@<TRIPOS>MOLECULE
25W
   25    25     1     0     0
SMALL
bcc


@<TRIPOS>ATOM
      1 O1          0.0820   -0.0540   -0.2160 oh        1 25W     -0.590800
      2 O2          1.7700   -1.1260   -2.2390 oh        1 25W     -0.599800
      3 O3          4.1600   -2.3020   -1.3700 oh        1 25W     -0.635800
      4 C5          3.5900   -1.1600   -0.7600 c3        1 25W      0.131100
      5 C           3.9900   -1.2140    0.7350 c3        1 25W      0.119500
      6 N           5.4810   -1.3530    0.8660 nz        1 25W     -0.835600
      7 C4          2.0550   -1.1640   -0.8540 c3        1 25W      0.123100
      8 C3          1.4880    0.0680   -0.1330 c3        1 25W      0.110100
      9 C2          1.9350    0.0760    1.3410 c3        1 25W      0.116100
     10 O           1.4680    1.3040    1.8670 oh        1 25W     -0.580800
     11 C1          3.4620    0.0210    1.4580 c3        1 25W     -0.146400
     12 H1         -0.2950    0.7450    0.1810 ho        1 25W      0.443000
     13 H2          0.8100   -1.0140   -2.3280 ho        1 25W      0.456000
     14 H3          3.6880   -2.4590   -2.2040 ho        1 25W      0.476000
     15 H4          3.9980   -0.2320   -1.2530 h1        1 25W      0.080700
     16 H5          3.5470   -2.1520    1.1920 hx        1 25W      0.122700
     17 H6          5.7850   -2.1460    0.2820 hn        1 25W      0.466467
     18 H7          5.7370   -1.5190    1.8410 hn        1 25W      0.466467
     19 H9          1.6310   -2.1070   -0.4070 h1        1 25W      0.075700
     20 H10         1.8270    1.0140   -0.6400 h1        1 25W      0.078700
     21 H11         1.4710   -0.7950    1.8820 h1        1 25W      0.067700
     22 H12         1.4150    1.2130    2.8280 ho        1 25W      0.426000
     23 H13         3.7410   -0.0060    2.5450 hc        1 25W      0.081200
     24 H14         3.8880    0.9600    1.0150 hc        1 25W      0.081200
     25 HN3         5.9440   -0.5020    0.5330 hn        1 25W      0.466467
@<TRIPOS>BOND
     1    1    8 1   
     2    1   12 1   
     3    2    7 1   
     4    2   13 1   
     5    3    4 1   
     6    3   14 1   
     7    4    5 1   
     8    4    7 1   
     9    4   15 1   
    10    5    6 1   
    11    5   11 1   
    12    5   16 1   
    13    6   17 1   
    14    6   18 1   
    15    6   25 1   
    16    7    8 1   
    17    7   19 1   
    18    8    9 1   
    19    8   20 1   
    20    9   10 1   
    21    9   11 1   
    22    9   21 1   
    23   10   22 1   
    24   11   23 1   
    25   11   24 1   
@<TRIPOS>SUBSTRUCTURE
     1 25W         1 TEMP              0 ****  ****    0 ROOT
