@<TRIPOS>MOLECULE
25W
   25    25     1     0     0
SMALL
bcc


@<TRIPOS>ATOM
      1 O1          0.0120   -0.2870   -0.1370 oh        1 25W     -0.590800
      2 O2          1.6990   -1.3250   -2.1780 oh        1 25W     -0.599800
      3 O3          4.1750   -2.3420   -1.3480 oh        1 25W     -0.635800
      4 C5          3.5590   -1.2150   -0.7550 c3        1 25W      0.131100
      5 C           4.0040   -1.2020    0.7290 c3        1 25W      0.119500
      6 N           5.5040   -1.2540    0.8180 n4        1 25W     -0.835600
      7 C4          2.0250   -1.3050   -0.8020 c3        1 25W      0.123100
      8 C3          1.4110   -0.0860   -0.1000 c3        1 25W      0.110100
      9 C2          1.8990   -0.0090    1.3600 c3        1 25W      0.116100
     10 O           1.3800    1.2070    1.8640 oh        1 25W     -0.580800
     11 C1          3.4290    0.0230    1.4320 c3        1 25W     -0.146400
     12 H1         -0.3970    0.5010    0.2480 ho        1 25W      0.443000
     13 H2          0.7330   -1.2690   -2.2410 ho        1 25W      0.456000
     14 H3          3.6880   -2.5490   -2.1630 ho        1 25W      0.476000
     15 H4          3.9010   -0.2810   -1.2860 h1        1 25W      0.080700
     16 H5          3.6270   -2.1490    1.2250 hx        1 25W      0.122700
     17 H6          5.7970   -1.3770    1.7900 hn        1 25W      0.466467
     18 H7          5.8350   -2.0470    0.2480 hn        1 25W      0.466467
     19 H9          1.6680   -2.2560   -0.3160 h1        1 25W      0.075700
     20 H10         1.6820    0.8620   -0.6430 h1        1 25W      0.078700
     21 H11         1.5000   -0.8870    1.9390 h1        1 25W      0.067700
     22 H12         1.3590    1.1430    2.8280 ho        1 25W      0.426000
     23 H13         3.7900    0.9710    0.9500 hc        1 25W      0.081200
     24 H14         3.7400    0.0450    2.5100 hc        1 25W      0.081200
     25 HN3         5.9090   -0.3900    0.4480 hn        1 25W      0.466467
@<TRIPOS>BOND
     1    1    8 1   
     2    1   12 1   
     3    2    7 1   
     4    2   13 1   
     5    3    4 1   
     6    3   14 1   
     7    4    5 1   
     8    4    7 1   
     9    4   15 1   
    10    5    6 1   
    11    5   11 1   
    12    5   16 1   
    13    6   17 1   
    14    6   18 1   
    15    6   25 1   
    16    7    8 1   
    17    7   19 1   
    18    8    9 1   
    19    8   20 1   
    20    9   10 1   
    21    9   11 1   
    22    9   21 1   
    23   10   22 1   
    24   11   23 1   
    25   11   24 1   
@<TRIPOS>SUBSTRUCTURE
     1 25W         1 TEMP              0 ****  ****    0 ROOT
