@<TRIPOS>MOLECULE
25W
   24    24     1     0     0
SMALL
bcc


@<TRIPOS>ATOM
      1 O1         -2.6770    0.8480   -0.3570 oh        1 25W     -0.611800
      2 O2         -1.1200   -0.1980   -2.5010 oh        1 25W     -0.611800
      3 O3          1.0920   -1.7750   -1.6420 oh        1 25W     -0.607800
      4 C5          0.7400   -0.5440   -1.0380 c3        1 25W      0.105100
      5 C           1.2320   -0.5440    0.4020 c3        1 25W      0.175500
      6 N           2.6630   -0.5440    0.4020 n3        1 25W     -0.892800
      7 C4         -0.7690   -0.3600   -1.1390 c3        1 25W      0.115100
      8 C3         -1.2600    0.8480   -0.3570 c3        1 25W      0.115100
      9 C2         -0.7680    0.8480    1.0830 c3        1 25W      0.107100
     10 O          -1.1200    2.0790    1.6870 oh        1 25W     -0.609800
     11 C1          0.7400    0.6640    1.1830 c3        1 25W     -0.113400
     12 H1         -2.9730    0.2500    0.2280 ho        1 25W      0.428000
     13 H2         -1.7100   -0.8200   -2.7310 ho        1 25W      0.429000
     14 H3          0.5520   -2.4150   -1.3460 ho        1 25W      0.426000
     15 H4          1.1790    0.1820   -1.5220 h1        1 25W      0.048700
     16 H5          0.9160   -1.3550    0.8430 h1        1 25W      0.071700
     17 H6          2.9680   -1.3590    0.1300 hn        1 25W      0.356800
     18 H7          2.9670   -0.3710    1.2450 hn        1 25W      0.356800
     19 H9         -1.2080   -1.1600   -0.7920 h1        1 25W      0.062700
     20 H10        -0.9440    1.6590   -0.7990 h1        1 25W      0.062700
     21 H11        -1.2070    0.1220    1.5670 h1        1 25W      0.052700
     22 H12        -1.4580    1.9280    2.4930 ho        1 25W      0.412000
     23 H13         1.1790    1.4640    0.8370 hc        1 25W      0.061200
     24 H14         0.9830    0.5530    2.1220 hc        1 25W      0.061200
@<TRIPOS>BOND
     1    1    8 1   
     2    1   12 1   
     3    2    7 1   
     4    2   13 1   
     5    3    4 1   
     6    3   14 1   
     7    4    5 1   
     8    4    7 1   
     9    4   15 1   
    10    5    6 1   
    11    5   11 1   
    12    5   16 1   
    13    6   17 1   
    14    6   18 1   
    15    7    8 1   
    16    7   19 1   
    17    8    9 1   
    18    8   20 1   
    19    9   10 1   
    20    9   11 1   
    21    9   21 1   
    22   10   22 1   
    23   11   23 1   
    24   11   24 1   
@<TRIPOS>SUBSTRUCTURE
     1 25W         1 TEMP              0 ****  ****    0 ROOT
