@<TRIPOS>MOLECULE
25W
   24    24     1     0     0
SMALL
bcc


@<TRIPOS>ATOM
      1 O1          2.3190   -1.2230   -0.3130 oh        1 25W     -0.612800
      2 O2         -0.1410   -2.4650    0.3380 oh        1 25W     -0.610800
      3 O3         -2.4550   -1.0070   -0.2460 oh        1 25W     -0.609800
      4 C5         -1.2790   -0.3960    0.2610 c3        1 25W      0.141100
      5 C          -1.2510    1.0550   -0.2820 c3        1 25W      0.183500
      6 N          -2.4190    1.8130    0.1370 n3        1 25W     -0.910800
      7 C4         -0.0420   -1.1680   -0.2290 c3        1 25W      0.112100
      8 C3          1.2450   -0.4710    0.2290 c3        1 25W      0.116100
      9 C2          1.2630    0.9740   -0.2910 c3        1 25W      0.105100
     10 O           2.4670    1.5420    0.2100 oh        1 25W     -0.609800
     11 C1          0.0410    1.7360    0.1970 c3        1 25W     -0.112400
     12 H1          3.1280   -0.7360   -0.1060 ho        1 25W      0.428000
     13 H2          0.6790   -2.9260    0.1170 ho        1 25W      0.429000
     14 H3         -2.4270   -1.9320    0.0350 ho        1 25W      0.427000
     15 H4         -1.3050   -0.4000    1.3860 h1        1 25W      0.064700
     16 H5         -1.1980    0.9750   -1.4130 h1        1 25W      0.026700
     17 H6         -2.5940    2.5540   -0.5120 hn        1 25W      0.361800
     18 H7         -3.2210    1.2150    0.1850 hn        1 25W      0.361800
     19 H9         -0.0530   -1.2520   -1.3520 h1        1 25W      0.061700
     20 H10         1.3160   -0.4740    1.3520 h1        1 25W      0.064700
     21 H11         1.3040    0.9680   -1.4170 h1        1 25W      0.049700
     22 H12         2.4520    2.4800   -0.0110 ho        1 25W      0.411000
     23 H13         0.0800    2.7860   -0.1940 hc        1 25W      0.062200
     24 H14         0.0560    1.7920    1.3160 hc        1 25W      0.062200
@<TRIPOS>BOND
     1    1    8 1   
     2    1   12 1   
     3    2    7 1   
     4    2   13 1   
     5    3    4 1   
     6    3   14 1   
     7    4    5 1   
     8    4    7 1   
     9    4   15 1   
    10    5    6 1   
    11    5   11 1   
    12    5   16 1   
    13    6   17 1   
    14    6   18 1   
    15    7    8 1   
    16    7   19 1   
    17    8    9 1   
    18    8   20 1   
    19    9   10 1   
    20    9   11 1   
    21    9   21 1   
    22   10   22 1   
    23   11   23 1   
    24   11   24 1   
@<TRIPOS>SUBSTRUCTURE
     1 25W         1 TEMP              0 ****  ****    0 ROOT
