@<TRIPOS>MOLECULE
25Z
   39    41     1     0     0
SMALL
bcc


@<TRIPOS>ATOM
      1 C1         -0.6700    1.2710    2.0670 ca        1 25Z     -0.012000
      2 F1         -1.2520    0.6810   -0.6530 f         1 25Z     -0.212300
      3 N1          3.4330   -2.4250    6.9620 nc        1 25Z     -0.577000
      4 O1          3.8530   -0.6990    3.1060 o         1 25Z     -0.516100
      5 S1          1.3040   -1.3410    5.9500 ss        1 25Z      0.422700
      6 C2          0.2610    0.6300    1.2510 ca        1 25Z     -0.160300
      7 F2          0.5370   -0.5420   -0.8590 f         1 25Z     -0.212300
      8 N2          1.4630   -2.7040    8.3920 n4        1 25Z     -0.574100
      9 C3          1.3960    0.0280    1.7990 ca        1 25Z      0.002000
     10 F3          0.6920    1.6290   -0.9210 f         1 25Z     -0.212300
     11 N3          5.1270   -1.9280    5.2370 n4        1 25Z     -0.800300
     12 C4          1.5850    0.0430    3.1890 ca        1 25Z     -0.215600
     13 C5          0.6540    0.7020    4.0110 ca        1 25Z     -0.107000
     14 C6         -0.4630    1.3100    3.4530 ca        1 25Z     -0.116000
     15 C7          0.0600    0.6010   -0.2700 c3        1 25Z      0.691200
     16 C8          2.7850   -0.6020    3.7250 c         1 25Z      0.639300
     17 C9          2.6820   -1.2260    5.0710 cd        1 25Z     -0.300000
     18 C10         2.1030   -2.2070    7.1740 cd        1 25Z      0.338300
     19 C11         3.7620   -1.8600    5.7460 cc        1 25Z      0.434200
     20 C12         0.0300   -2.3790    8.4450 ca        1 25Z     -0.116400
     21 C13        -0.9060   -3.2940    7.9250 ca        1 25Z     -0.098000
     22 C14        -2.2640   -3.0200    8.0660 ca        1 25Z     -0.098000
     23 C15        -2.6910   -1.8610    8.7210 ca        1 25Z     -0.044000
     24 C16        -1.7540   -0.9620    9.2380 ca        1 25Z     -0.098000
     25 C17        -0.3890   -1.2110    9.1110 ca        1 25Z     -0.098000
     26 H1         -1.5610    1.7520    1.6220 ha        1 25Z      0.192000
     27 HN2         1.9350   -2.2900    9.2160 hn        1 25Z      0.487800
     28 H3          2.1380   -0.4610    1.1400 ha        1 25Z      0.187000
     29 HN3         5.1060   -1.8210    4.2000 hn        1 25Z      0.498133
     30 HN3A        5.6810   -1.1590    5.6420 hn        1 25Z      0.498133
     31 H5          0.8310    0.8100    5.0960 ha        1 25Z      0.119000
     32 H6         -1.1850    1.8440    4.0930 ha        1 25Z      0.171000
     33 H13        -0.5910   -4.2270    7.4280 ha        1 25Z      0.164500
     34 H14        -3.0060   -3.7360    7.6680 ha        1 25Z      0.189500
     35 H15        -3.7720   -1.6620    8.8410 ha        1 25Z      0.191000
     36 H16        -2.0930   -0.0530    9.7680 ha        1 25Z      0.189500
     37 H17         0.3330   -0.5020    9.5510 ha        1 25Z      0.164500
     38 H22         1.5780   -3.7320    8.4370 hn        1 25Z      0.487800
     39 H33         5.5650   -2.8280    5.4840 hn        1 25Z      0.498133
@<TRIPOS>BOND
     1    1    6 ar  
     2    1   14 ar  
     3    1   26 1   
     4    2   15 1   
     5    3   18 2   
     6    3   19 1   
     7    4   16 2   
     8    5   17 1   
     9    5   18 1   
    10    6    9 ar  
    11    6   15 1   
    12    7   15 1   
    13    8   18 1   
    14    8   20 1   
    15    8   27 1   
    16    8   38 1   
    17    9   12 ar  
    18    9   28 1   
    19   10   15 1   
    20   11   19 1   
    21   11   29 1   
    22   11   30 1   
    23   11   39 1   
    24   12   13 ar  
    25   12   16 1   
    26   13   14 ar  
    27   13   31 1   
    28   14   32 1   
    29   16   17 1   
    30   17   19 2   
    31   20   21 ar  
    32   20   25 ar  
    33   21   22 ar  
    34   21   33 1   
    35   22   23 ar  
    36   22   34 1   
    37   23   24 ar  
    38   23   35 1   
    39   24   25 ar  
    40   24   36 1   
    41   25   37 1   
@<TRIPOS>SUBSTRUCTURE
     1 25Z         1 TEMP              0 ****  ****    0 ROOT
