@<TRIPOS>MOLECULE
25Z
   37    39     1     0     0
SMALL
bcc


@<TRIPOS>ATOM
      1 C1         -0.1440   -0.1150    0.0530 ca        1 25Z     -0.068000
      2 F1          1.3650   -0.0240   -2.3780 f         1 25Z     -0.235967
      3 N1          1.6000   -0.8450    7.1550 nc        1 25Z     -0.760000
      4 O1          3.1400    1.1360    3.6220 o         1 25Z     -0.587100
      5 S1          0.2180   -1.1270    4.9500 ss        1 25Z     -0.154300
      6 C2          1.2520   -0.1890    0.0520 ca        1 25Z     -0.176300
      7 F2          2.1450   -1.8410   -1.4940 f         1 25Z     -0.235967
      8 N2         -0.3360   -2.3160    7.3150 nh        1 25Z     -0.700300
      9 C3          1.9760    0.0080    1.2280 ca        1 25Z     -0.036000
     10 F3          3.2590    0.0100   -1.3230 f         1 25Z     -0.235967
     11 N3          3.3790    0.5990    6.3960 nh        1 25Z     -0.939500
     12 C4          1.2950    0.2610    2.4260 ca        1 25Z     -0.153600
     13 C5         -0.1010    0.3410    2.4280 ca        1 25Z     -0.081000
     14 C6         -0.8160    0.1570    1.2440 ca        1 25Z     -0.141000
     15 C7          1.9850   -0.4980   -1.2470 c3        1 25Z      0.688200
     16 C8          2.0910    0.4650    3.6670 c         1 25Z      0.643300
     17 C9          1.6080   -0.1640    4.8640 cd        1 25Z     -0.424000
     18 C10         0.5080   -1.4470    6.6420 cd        1 25Z      0.710300
     19 C11         2.2470   -0.1070    6.1380 cc        1 25Z      0.737200
     20 C12        -0.2730   -2.5280    8.7130 ca        1 25Z      0.123600
     21 C13        -1.4640   -2.4970    9.4730 ca        1 25Z     -0.138500
     22 C14        -1.4320   -2.7830   10.8340 ca        1 25Z     -0.113500
     23 C15        -0.2280   -3.0950   11.4630 ca        1 25Z     -0.138000
     24 C16         0.9510   -3.1270   10.7200 ca        1 25Z     -0.113500
     25 C17         0.9400   -2.8520    9.3540 ca        1 25Z     -0.138500
     26 H1         -0.7030   -0.2620   -0.8840 ha        1 25Z      0.153000
     27 HN2        -1.2560   -2.3700    6.9280 hn        1 25Z      0.433800
     28 H3          3.0790   -0.0230    1.2210 ha        1 25Z      0.169000
     29 HN3         3.7930    0.5830    7.2940 hn        1 25Z      0.460800
     30 HN3A        3.8150    1.0880    5.6480 hn        1 25Z      0.460800
     31 H5         -0.6410    0.5690    3.3630 ha        1 25Z      0.151000
     32 H6         -1.9140    0.2280    1.2490 ha        1 25Z      0.144000
     33 H13        -2.4250   -2.2500    8.9980 ha        1 25Z      0.143000
     34 H14        -2.3660   -2.7580   11.4150 ha        1 25Z      0.136000
     35 H15        -0.2080   -3.3150   12.5400 ha        1 25Z      0.136000
     36 H16         1.9040   -3.3740   11.2110 ha        1 25Z      0.136000
     37 H17         1.8830   -2.8900    8.7880 ha        1 25Z      0.143000
@<TRIPOS>BOND
     1    1    6 ar  
     2    1   14 ar  
     3    1   26 1   
     4    2   15 1   
     5    3   18 2   
     6    3   19 1   
     7    4   16 2   
     8    5   17 1   
     9    5   18 1   
    10    6    9 ar  
    11    6   15 1   
    12    7   15 1   
    13    8   18 1   
    14    8   20 1   
    15    8   27 1   
    16    9   12 ar  
    17    9   28 1   
    18   10   15 1   
    19   11   19 1   
    20   11   29 1   
    21   11   30 1   
    22   12   13 ar  
    23   12   16 1   
    24   13   14 ar  
    25   13   31 1   
    26   14   32 1   
    27   16   17 1   
    28   17   19 2   
    29   20   21 ar  
    30   20   25 ar  
    31   21   22 ar  
    32   21   33 1   
    33   22   23 ar  
    34   22   34 1   
    35   23   24 ar  
    36   23   35 1   
    37   24   25 ar  
    38   24   36 1   
    39   25   37 1   
@<TRIPOS>SUBSTRUCTURE
     1 25Z         1 TEMP              0 ****  ****    0 ROOT
