@<TRIPOS>MOLECULE
25Z
   37    34     1     0     0
SMALL
bcc


@<TRIPOS>ATOM
      1 C1          0.3770   -4.3260   -1.4820 c1        1 25Z     -0.068000
      2 F1         -2.9860   -4.0800   -0.2330 f         1 25Z     -0.165000
      3 N1         -0.0050    3.1600   -1.1160 n2        1 25Z     -0.246000
      4 O1         -1.2920   -0.2350   -3.7450 o         1 25Z     -0.347000
      5 S1          0.6060    0.8780   -0.6640 ss        1 25Z      0.488000
      6 C2         -0.8950   -3.8360   -1.2330 c1        1 25Z     -0.169000
      7 F2         -2.2310   -5.7340   -1.4470 f         1 25Z     -0.165000
      8 N2          1.4920    2.8110    0.9040 nh        1 25Z     -0.217000
      9 C3         -1.2240   -2.5420   -1.6030 c1        1 25Z     -0.036000
     10 F3         -1.3430   -5.3190    0.5080 f         1 25Z     -0.165000
     11 N3         -1.1810    3.1870   -3.1060 nh        1 25Z     -0.336000
     12 C4         -0.2800   -1.7360   -2.2210 c1        1 25Z     -0.134000
     13 C5          0.9930   -2.2270   -2.4690 c1        1 25Z     -0.116250
     14 C6          1.3210   -3.5220   -2.0990 c1        1 25Z     -0.116250
     15 C7         -1.8920   -4.7690   -0.5830 c3        1 25Z      0.467000
     16 C8         -0.6670   -0.3580   -2.7110 c2        1 25Z      0.364000
     17 C9         -0.2260    0.8710   -1.9420 c2        1 25Z     -0.624000
     18 C10         0.7130    2.3440   -0.1880 c2        1 25Z     -0.081000
     19 C11        -0.6040    2.2330   -2.2310 c2        1 25Z      0.213000
     20 C12         1.0610    2.5750    2.2350 c2        1 25Z      0.038000
     21 C13         1.3810    1.3830    2.8650 c2        1 25Z     -0.149000
     22 C14         1.0490    1.1910    4.1960 c1        1 25Z     -0.104000
     23 C15         0.3960    2.1910    4.8990 c1        1 25Z     -0.116250
     24 C16         0.0760    3.3830    4.2700 c1        1 25Z     -0.116250
     25 C17         0.4080    3.5760    2.9380 c1        1 25Z     -0.160000
     26 H1          0.6080   -5.2380   -1.2220 ha        1 25Z      0.152000
     27 HN2         2.2560    3.2850    0.7490 hn        1 25Z      0.237000
     28 H3         -2.1200   -2.1970   -1.4280 ha        1 25Z      0.169000
     29 HN3        -1.6400    2.9100   -3.8470 hn        1 25Z      0.253000
     30 HN3A       -1.1020    4.0800   -2.9250 hn        1 25Z      0.253000
     31 H5          1.6580   -1.6600   -2.9040 ha        1 25Z      0.143500
     32 H6          2.2170   -3.8670   -2.2740 ha        1 25Z      0.143500
     33 H13         1.8400    0.6780    2.3700 ha        1 25Z      0.144000
     34 H14         1.2740    0.3510    4.6390 ha        1 25Z      0.139000
     35 H15         0.1620    2.0560    5.8360 ha        1 25Z      0.143500
     36 H16        -0.3830    4.0880    4.7650 ha        1 25Z      0.143500
     37 H17         0.1830    4.4150    2.4960 ha        1 25Z      0.138000
@<TRIPOS>BOND
     1    1    6 1   
     2    1   26 1   
     3    2   15 1   
     4    3   18 1   
     5    3   19 1   
     6    4   16 1   
     7    5   17 1   
     8    5   18 1   
     9    6   15 1   
    10    7   15 1   
    11    8   18 1   
    12    8   20 1   
    13    8   27 1   
    14    9   12 1   
    15    9   28 1   
    16   10   15 1   
    17   11   19 1   
    18   11   29 1   
    19   11   30 1   
    20   12   16 1   
    21   13   14 1   
    22   13   31 1   
    23   14   32 1   
    24   16   17 1   
    25   17   19 1   
    26   20   21 1   
    27   20   25 1   
    28   21   22 1   
    29   21   33 1   
    30   22   34 1   
    31   23   24 1   
    32   23   35 1   
    33   24   36 1   
    34   25   37 1   
@<TRIPOS>SUBSTRUCTURE
     1 25Z         1 TEMP              0 ****  ****    0 ROOT
