@<TRIPOS>MOLECULE
25Z
   37    39     1     0     0
SMALL
bcc


@<TRIPOS>ATOM
      1 C1         -3.9950    1.8430   -0.4350 ca        1 25Z     -0.068000
      2 F1         -6.0890    1.3550    1.4580 f         1 25Z     -0.236300
      3 N1          2.6850   -1.2140   -0.2640 nc        1 25Z     -0.760000
      4 O1         -1.4090   -2.4040   -1.0360 o         1 25Z     -0.587100
      5 S1          0.8680    0.6640   -0.1310 ss        1 25Z     -0.154300
      6 C2         -4.2200    0.5730    0.1030 ca        1 25Z     -0.176300
      7 F2         -5.4710   -0.6990    1.7680 f         1 25Z     -0.236300
      8 N2          3.4970    0.9780    0.4190 nh        1 25Z     -0.700300
      9 C3         -3.2580   -0.4310   -0.0160 ca        1 25Z     -0.035000
     10 F3         -6.5420   -0.1480   -0.0340 f         1 25Z     -0.236300
     11 N3          1.3320   -3.1140   -0.8850 nh        1 25Z     -0.939500
     12 C4         -2.0480   -0.1560   -0.6640 ca        1 25Z     -0.153600
     13 C5         -1.8250    1.1120   -1.2110 ca        1 25Z     -0.081000
     14 C6         -2.7970    2.1060   -1.0960 ca        1 25Z     -0.141000
     15 C7         -5.5400    0.2780    0.8050 c3        1 25Z      0.688200
     16 C8         -1.0380   -1.2440   -0.7750 c         1 25Z      0.643300
     17 C9          0.3340   -0.8890   -0.5400 cd        1 25Z     -0.423000
     18 C10         2.5140    0.0960    0.0030 cd        1 25Z      0.710300
     19 C11         1.4350   -1.7950   -0.5730 cc        1 25Z      0.737200
     20 C12         4.8760    0.6560    0.4220 ca        1 25Z      0.123600
     21 C13         5.8020    1.5710   -0.1290 ca        1 25Z     -0.138500
     22 C14         7.1660    1.3090   -0.0620 ca        1 25Z     -0.113500
     23 C15         7.6340    0.1400    0.5380 ca        1 25Z     -0.138000
     24 C16         6.7260   -0.7660    1.0810 ca        1 25Z     -0.113500
     25 C17         5.3560   -0.5190    1.0340 ca        1 25Z     -0.138500
     26 H1         -4.7630    2.6270   -0.3320 ha        1 25Z      0.153000
     27 HN2         3.2950    1.9370    0.2180 hn        1 25Z      0.433800
     28 H3         -3.4440   -1.4380    0.3940 ha        1 25Z      0.169000
     29 HN3         2.1270   -3.7030   -0.8680 hn        1 25Z      0.460800
     30 HN3A        0.4300   -3.4890   -1.0750 hn        1 25Z      0.460800
     31 H5         -0.8850    1.3250   -1.7490 ha        1 25Z      0.151000
     32 H6         -2.6190    3.1010   -1.5310 ha        1 25Z      0.144000
     33 H13         5.4550    2.4980   -0.6100 ha        1 25Z      0.143000
     34 H14         7.8780    2.0300   -0.4920 ha        1 25Z      0.136000
     35 H15         8.7130   -0.0640    0.5820 ha        1 25Z      0.136000
     36 H16         7.0890   -1.6890    1.5580 ha        1 25Z      0.136000
     37 H17         4.6590   -1.2480    1.4770 ha        1 25Z      0.143000
@<TRIPOS>BOND
     1    1    6 ar  
     2    1   14 ar  
     3    1   26 1   
     4    2   15 1   
     5    3   18 2   
     6    3   19 1   
     7    4   16 2   
     8    5   17 1   
     9    5   18 1   
    10    6    9 ar  
    11    6   15 1   
    12    7   15 1   
    13    8   18 1   
    14    8   20 1   
    15    8   27 1   
    16    9   12 ar  
    17    9   28 1   
    18   10   15 1   
    19   11   19 1   
    20   11   29 1   
    21   11   30 1   
    22   12   13 ar  
    23   12   16 1   
    24   13   14 ar  
    25   13   31 1   
    26   14   32 1   
    27   16   17 1   
    28   17   19 2   
    29   20   21 ar  
    30   20   25 ar  
    31   21   22 ar  
    32   21   33 1   
    33   22   23 ar  
    34   22   34 1   
    35   23   24 ar  
    36   23   35 1   
    37   24   25 ar  
    38   24   36 1   
    39   25   37 1   
@<TRIPOS>SUBSTRUCTURE
     1 25Z         1 TEMP              0 ****  ****    0 ROOT
