@<TRIPOS>MOLECULE
25Z
   37    39     1     0     0
SMALL
bcc


@<TRIPOS>ATOM
      1 C1         -0.1370   -0.1110    0.0520 ca        1 25Z     -0.068000
      2 F1          1.3760   -0.0210   -2.3780 f         1 25Z     -0.235967
      3 N1          1.5980   -0.8460    7.1550 nc        1 25Z     -0.760000
      4 O1          3.1450    1.1330    3.6240 o         1 25Z     -0.587100
      5 S1          0.2180   -1.1250    4.9490 ss        1 25Z     -0.154300
      6 C2          1.2580   -0.1880    0.0520 ca        1 25Z     -0.176300
      7 F2          2.1480   -1.8420   -1.4950 f         1 25Z     -0.235967
      8 N2         -0.3400   -2.3130    7.3120 nu        1 25Z     -0.700300
      9 C3          1.9820    0.0070    1.2290 ca        1 25Z     -0.036000
     10 F3          3.2680    0.0050   -1.3210 f         1 25Z     -0.235967
     11 N3          3.3800    0.5960    6.3990 nv        1 25Z     -0.939500
     12 C4          1.3000    0.2610    2.4260 ca        1 25Z     -0.153600
     13 C5         -0.0960    0.3440    2.4260 ca        1 25Z     -0.081000
     14 C6         -0.8100    0.1610    1.2420 ca        1 25Z     -0.141000
     15 C7          1.9930   -0.4980   -1.2460 c3        1 25Z      0.688200
     16 C8          2.0950    0.4640    3.6680 c         1 25Z      0.643300
     17 C9          1.6100   -0.1640    4.8640 cd        1 25Z     -0.424000
     18 C10         0.5060   -1.4460    6.6410 cd        1 25Z      0.710300
     19 C11         2.2470   -0.1080    6.1390 cc        1 25Z      0.737200
     20 C12        -0.2800   -2.5260    8.7110 ca        1 25Z      0.123600
     21 C13        -1.4720   -2.4930    9.4690 ca        1 25Z     -0.138500
     22 C14        -1.4420   -2.7790   10.8300 ca        1 25Z     -0.113500
     23 C15        -0.2390   -3.0920   11.4610 ca        1 25Z     -0.138000
     24 C16         0.9400   -3.1250   10.7200 ca        1 25Z     -0.113500
     25 C17         0.9320   -2.8500    9.3540 ca        1 25Z     -0.138500
     26 H1         -0.6950   -0.2580   -0.8870 ha        1 25Z      0.153000
     27 HN2        -1.2600   -2.3670    6.9240 hn        1 25Z      0.433800
     28 H3          3.0840   -0.0250    1.2230 ha        1 25Z      0.169000
     29 HN3         3.8180    1.0850    5.6510 hn        1 25Z      0.460800
     30 HN3A        3.7930    0.5800    7.2980 hn        1 25Z      0.460800
     31 H5         -0.6360    0.5730    3.3610 ha        1 25Z      0.151000
     32 H6         -1.9070    0.2340    1.2450 ha        1 25Z      0.144000
     33 H13        -2.4330   -2.2460    8.9920 ha        1 25Z      0.143000
     34 H14        -2.3770   -2.7530   11.4090 ha        1 25Z      0.136000
     35 H15        -0.2220   -3.3120   12.5380 ha        1 25Z      0.136000
     36 H16         1.8920   -3.3730   11.2130 ha        1 25Z      0.136000
     37 H17         1.8760   -2.8900    8.7890 ha        1 25Z      0.143000
@<TRIPOS>BOND
     1    1    6 ar  
     2    1   14 ar  
     3    1   26 1   
     4    2   15 1   
     5    3   18 2   
     6    3   19 1   
     7    4   16 2   
     8    5   17 1   
     9    5   18 1   
    10    6    9 ar  
    11    6   15 1   
    12    7   15 1   
    13    8   18 1   
    14    8   20 1   
    15    8   27 1   
    16    9   12 ar  
    17    9   28 1   
    18   10   15 1   
    19   11   19 1   
    20   11   29 1   
    21   11   30 1   
    22   12   13 ar  
    23   12   16 1   
    24   13   14 ar  
    25   13   31 1   
    26   14   32 1   
    27   16   17 1   
    28   17   19 2   
    29   20   21 ar  
    30   20   25 ar  
    31   21   22 ar  
    32   21   33 1   
    33   22   23 ar  
    34   22   34 1   
    35   23   24 ar  
    36   23   35 1   
    37   24   25 ar  
    38   24   36 1   
    39   25   37 1   
@<TRIPOS>SUBSTRUCTURE
     1 25Z         1 TEMP              0 ****  ****    0 ROOT
