@<TRIPOS>MOLECULE
260
   15    15     1     0     0
SMALL
bcc


@<TRIPOS>ATOM
      1 BRAC       -2.1310    0.0030    0.2180 br        1 260     -0.157400
      2 CAG        -0.7070    0.0030   -1.0880 c3        1 260      0.036300
      3 CAJ         0.6350    0.0010   -0.4740 ca        1 260     -0.161300
      4 CAH         1.3000   -1.2110   -0.1790 ca        1 260      0.165900
      5 FAA         0.7070   -2.3930   -0.4680 f         1 260     -0.128900
      6 CAE         2.5790   -1.2120    0.4060 ca        1 260     -0.180000
      7 CAD         3.2040   -0.0030    0.6970 ca        1 260     -0.074000
      8 CAF         2.5820    1.2070    0.4090 ca        1 260     -0.180000
      9 CAI         1.3020    1.2100   -0.1760 ca        1 260      0.165900
     10 FAB         0.7120    2.3940   -0.4620 f         1 260     -0.128900
     11 HAG1       -0.8610   -0.9090   -1.7140 h1        1 260      0.092700
     12 HAG2       -0.8590    0.9160   -1.7120 h1        1 260      0.092700
     13 HAE         3.0700   -2.1700    0.6280 ha        1 260      0.156000
     14 HAD         4.2040   -0.0050    1.1590 ha        1 260      0.147000
     15 HAF         3.0750    2.1640    0.6330 ha        1 260      0.156000
@<TRIPOS>BOND
     1    1    2 1   
     2    2    3 1   
     3    2   11 1   
     4    2   12 1   
     5    3    4 ar  
     6    3    9 ar  
     7    4    5 1   
     8    4    6 ar  
     9    6    7 ar  
    10    6   13 1   
    11    7    8 ar  
    12    7   14 1   
    13    8    9 ar  
    14    8   15 1   
    15    9   10 1   
@<TRIPOS>SUBSTRUCTURE
     1 260         1 TEMP              0 ****  ****    0 ROOT
