@<TRIPOS>MOLECULE
260
   15    13     1     0     0
SMALL
bcc


@<TRIPOS>ATOM
      1 BRAC        0.3110   -1.1430   -3.0960 br        1 260     -0.030000
      2 CAG        -0.7560    0.0390   -2.0380 c3        1 260     -0.177000
      3 CAJ        -0.2510    0.0330   -0.6110 c2        1 260     -0.154000
      4 CAH         0.6690    0.9830   -0.1970 c2        1 260      0.131000
      5 FAA         1.1320    1.8900   -1.0670 f         1 260     -0.094000
      6 CAE         1.1180    0.9870    1.1140 c1        1 260     -0.180000
      7 CAD         0.6480    0.0410    2.0110 c1        1 260     -0.127000
      8 CAF        -0.2730   -0.9090    1.5970 c1        1 260     -0.127000
      9 CAI        -0.7220   -0.9130    0.2860 c1        1 260      0.131000
     10 FAB        -1.6200   -1.8240   -0.1110 f         1 260     -0.094000
     11 HAG1       -0.6950    0.9460   -2.4010 h1        1 260      0.132000
     12 HAG2       -1.6870   -0.2580   -2.0560 h1        1 260      0.132000
     13 HAE         1.7660    1.6570    1.4060 ha        1 260      0.156000
     14 HAD         0.9640    0.0440    2.9340 ha        1 260      0.151500
     15 HAF        -0.6040   -1.5750    2.2290 ha        1 260      0.151500
@<TRIPOS>BOND
     1    1    2 1   
     2    2    3 1   
     3    2   11 1   
     4    2   12 1   
     5    3    4 1   
     6    3    9 1   
     7    4    5 1   
     8    4    6 1   
     9    6   13 1   
    10    7    8 1   
    11    7   14 1   
    12    8   15 1   
    13    9   10 1   
@<TRIPOS>SUBSTRUCTURE
     1 260         1 TEMP              0 ****  ****    0 ROOT
