@<TRIPOS>MOLECULE
261
   20    20     1     0     0
SMALL
bcc


@<TRIPOS>ATOM
      1 CAA         0.0160    0.0160    0.2090 c3        1 261     -0.102100
      2 CAG         1.5160    0.0380    0.0280 c3        1 261      0.135400
      3 OAH         2.0680    0.3540    1.3140 os        1 261     -0.353900
      4 CAJ         3.4370    0.1850    1.4290 ca        1 261      0.042100
      5 CAF         4.3290    0.1260    0.3570 ca        1 261     -0.158000
      6 CAD         5.6950   -0.0090    0.6070 ca        1 261     -0.137000
      7 CAC         6.1720   -0.0810    1.9150 ca        1 261     -0.125000
      8 CAE         5.2930   -0.0210    2.9940 ca        1 261     -0.138000
      9 CAI         3.9190    0.1090    2.7570 ca        1 261      0.111100
     10 OAB         3.0920    0.1700    3.8530 oh        1 261     -0.497100
     11 HAA1       -0.4680   -0.1860   -0.7760 hc        1 261      0.049367
     12 HAA2       -0.3450    0.9980    0.5990 hc        1 261      0.049367
     13 HAA3       -0.2810   -0.7800    0.9330 hc        1 261      0.049367
     14 HAG1        1.9010   -0.9570   -0.3170 h1        1 261      0.040200
     15 HAG2        1.8240    0.8330   -0.7010 h1        1 261      0.040200
     16 HAF         3.9640    0.1860   -0.6780 ha        1 261      0.137000
     17 HAD         6.3980   -0.0560   -0.2380 ha        1 261      0.134000
     18 HAC         7.2510   -0.1850    2.1010 ha        1 261      0.135000
     19 HAE         5.6550   -0.0770    4.0300 ha        1 261      0.152000
     20 HAB         2.1770    0.2240    3.5360 ho        1 261      0.436000
@<TRIPOS>BOND
     1    1    2 1   
     2    1   11 1   
     3    1   12 1   
     4    1   13 1   
     5    2    3 1   
     6    2   14 1   
     7    2   15 1   
     8    3    4 1   
     9    4    5 ar  
    10    4    9 ar  
    11    5    6 ar  
    12    5   16 1   
    13    6    7 ar  
    14    6   17 1   
    15    7    8 ar  
    16    7   18 1   
    17    8    9 ar  
    18    8   19 1   
    19    9   10 1   
    20   10   20 1   
@<TRIPOS>SUBSTRUCTURE
     1 261         1 TEMP              0 ****  ****    0 ROOT
