@<TRIPOS>MOLECULE
261
   20    20     1     0     0
SMALL
bcc


@<TRIPOS>ATOM
      1 CAA         3.6500    0.1370   -0.0050 c3        1 261     -0.102100
      2 CAG         2.3520   -0.6360   -0.0360 c3        1 261      0.135400
      3 OAH         1.3260    0.3200   -0.3430 os        1 261     -0.353900
      4 CAJ         0.0270   -0.1320   -0.1800 ca        1 261      0.042100
      5 CAF        -0.3540   -1.4740   -0.1360 ca        1 261     -0.158000
      6 CAD        -1.7040   -1.8000   -0.0060 ca        1 261     -0.137000
      7 CAC        -2.6700   -0.7980    0.0750 ca        1 261     -0.125000
      8 CAE        -2.3030    0.5460    0.0310 ca        1 261     -0.138000
      9 CAI        -0.9510    0.8870   -0.0950 ca        1 261      0.110100
     10 OAB        -0.6390    2.2240   -0.1410 oh        1 261     -0.497100
     11 HAA1        3.6270    0.9100    0.7990 hc        1 261      0.049367
     12 HAA2        4.4910   -0.5700    0.1900 hc        1 261      0.049367
     13 HAA3        3.8220    0.6500   -0.9820 hc        1 261      0.049367
     14 HAG1        2.3650   -1.4190   -0.8400 h1        1 261      0.040200
     15 HAG2        2.1390   -1.1190    0.9530 h1        1 261      0.040200
     16 HAF         0.3990   -2.2720   -0.2030 ha        1 261      0.137000
     17 HAD        -2.0040   -2.8570    0.0290 ha        1 261      0.134000
     18 HAC        -3.7320   -1.0660    0.1760 ha        1 261      0.135000
     19 HAE        -3.0550    1.3450    0.0940 ha        1 261      0.152000
     20 HAB         0.3260    2.3050   -0.1930 ho        1 261      0.436000
@<TRIPOS>BOND
     1    1    2 1   
     2    1   11 1   
     3    1   12 1   
     4    1   13 1   
     5    2    3 1   
     6    2   14 1   
     7    2   15 1   
     8    3    4 1   
     9    4    5 ar  
    10    4    9 ar  
    11    5    6 ar  
    12    5   16 1   
    13    6    7 ar  
    14    6   17 1   
    15    7    8 ar  
    16    7   18 1   
    17    8    9 ar  
    18    8   19 1   
    19    9   10 1   
    20   10   20 1   
@<TRIPOS>SUBSTRUCTURE
     1 261         1 TEMP              0 ****  ****    0 ROOT
