@<TRIPOS>MOLECULE
261
   20    20     1     0     0
SMALL
bcc


@<TRIPOS>ATOM
      1 CAA         0.0130    0.0540    0.2150 c3        1 261     -0.102100
      2 CAG         1.5130    0.0840    0.0330 c3        1 261      0.135400
      3 OAH         2.0670    0.3450    1.3300 os        1 261     -0.353900
      4 CAJ         3.4380    0.1740    1.4340 ca        1 261      0.042100
      5 CAF         4.3270    0.1590    0.3580 ca        1 261     -0.158000
      6 CAD         5.6940    0.0170    0.6000 ca        1 261     -0.137000
      7 CAC         6.1740   -0.1060    1.9020 ca        1 261     -0.125000
      8 CAE         5.2970   -0.0910    2.9860 ca        1 261     -0.138000
      9 CAI         3.9230    0.0460    2.7570 ca        1 261      0.110100
     10 OAB         3.0990    0.0610    3.8570 oh        1 261     -0.497100
     11 HAA1       -0.4720   -0.1060   -0.7770 hc        1 261      0.049367
     12 HAA2       -0.3470    1.0180    0.6480 hc        1 261      0.049367
     13 HAA3       -0.2810   -0.7730    0.9050 hc        1 261      0.049367
     14 HAG1        1.8980   -0.8950   -0.3560 h1        1 261      0.040200
     15 HAG2        1.8200    0.9100   -0.6620 h1        1 261      0.040200
     16 HAF         3.9590    0.2600   -0.6720 ha        1 261      0.137000
     17 HAD         6.3940    0.0050   -0.2480 ha        1 261      0.134000
     18 HAC         7.2530   -0.2160    2.0820 ha        1 261      0.135000
     19 HAE         5.6630   -0.1880    4.0180 ha        1 261      0.152000
     20 HAB         2.1830    0.1270    3.5450 ho        1 261      0.436000
@<TRIPOS>BOND
     1    1    2 1   
     2    1   11 1   
     3    1   12 1   
     4    1   13 1   
     5    2    3 1   
     6    2   14 1   
     7    2   15 1   
     8    3    4 1   
     9    4    5 ar  
    10    4    9 ar  
    11    5    6 ar  
    12    5   16 1   
    13    6    7 ar  
    14    6   17 1   
    15    7    8 ar  
    16    7   18 1   
    17    8    9 ar  
    18    8   19 1   
    19    9   10 1   
    20   10   20 1   
@<TRIPOS>SUBSTRUCTURE
     1 261         1 TEMP              0 ****  ****    0 ROOT
