@<TRIPOS>MOLECULE
261
   20    18     1     0     0
SMALL
bcc


@<TRIPOS>ATOM
      1 CAA        -3.2570   -0.6670   -0.5190 c3        1 261     -0.221000
      2 CAG        -1.7480   -0.7850   -0.5120 c3        1 261     -0.016000
      3 OAH        -1.1810    0.4700   -0.2170 os        1 261     -0.217000
      4 CAJ         0.2170    0.4440   -0.0790 c2        1 261      0.057000
      5 CAF         1.0220    0.3230   -1.2010 c2        1 261     -0.125000
      6 CAD         2.4020    0.3540   -1.0700 c1        1 261     -0.137000
      7 CAC         2.9770    0.5070    0.1820 c1        1 261     -0.153500
      8 CAE         2.1720    0.6290    1.3030 c1        1 261     -0.153500
      9 CAI         0.7920    0.5970    1.1730 c1        1 261      0.022000
     10 OAB        -0.0250    0.7280    2.3110 oh        1 261     -0.259000
     11 HAA1       -3.5780   -0.5240    0.3960 hc        1 261      0.085000
     12 HAA2       -3.6480   -1.4920   -0.8760 hc        1 261      0.085000
     13 HAA3       -3.5230    0.0910   -1.0810 hc        1 261      0.085000
     14 HAG1       -1.4400   -1.0840   -1.3920 h1        1 261      0.088000
     15 HAG2       -1.4750   -1.4350    0.1680 h1        1 261      0.088000
     16 HAF         0.6180    0.2150   -2.0820 ha        1 261      0.151000
     17 HAD         2.9690    0.2680   -1.8600 ha        1 261      0.136000
     18 HAC         3.9480    0.5290    0.2730 ha        1 261      0.133500
     19 HAE         2.5760    0.7360    2.1850 ha        1 261      0.133500
     20 HAB         0.1820    0.0940    2.8980 ho        1 261      0.218000
@<TRIPOS>BOND
     1    1    2 1   
     2    1   11 1   
     3    1   12 1   
     4    1   13 1   
     5    2    3 1   
     6    2   14 1   
     7    2   15 1   
     8    3    4 1   
     9    4    5 1   
    10    4    9 1   
    11    5    6 1   
    12    5   16 1   
    13    6   17 1   
    14    7    8 1   
    15    7   18 1   
    16    8   19 1   
    17    9   10 1   
    18   10   20 1   
@<TRIPOS>SUBSTRUCTURE
     1 261         1 TEMP              0 ****  ****    0 ROOT
