@<TRIPOS>MOLECULE
262
   18    15     1     0     0
SMALL
bcc


@<TRIPOS>ATOM
      1 C1         -0.0400    0.2870   -2.0230 c1        1 262      0.032500
      2 C2          1.3440    0.2690   -2.0820 c1        1 262     -0.154000
      3 C3          2.0880    0.2930   -0.9130 c1        1 262     -0.154000
      4 C4          1.4470    0.3360    0.3150 c1        1 262     -0.196500
      5 C5          0.0630    0.3540    0.3750 c1        1 262      0.364600
      6 C6         -0.6810    0.3300   -0.7950 cg        1 262     -0.373200
      7 C7         -2.1910    0.3980   -0.7320 c         1 262      0.553100
      8 O8         -0.5860    0.4150    1.6190 os        1 262     -0.267000
      9 P9         -0.5650   -0.8670    2.5430 p5        1 262      1.285900
     10 O10        -1.9090   -1.0260    3.2130 o         1 262     -0.845167
     11 O11        -0.2730   -2.0870    1.7040 o         1 262     -0.845167
     12 O14         0.5060   -0.7100    3.5960 o         1 262     -0.845167
     13 O12        -2.7540    0.4360    0.3460 o         1 262     -0.609100
     14 H1         -0.5640    0.2700   -2.8470 ha        1 262      0.007500
     15 H2          1.7960    0.2380   -2.9470 ha        1 262      0.017500
     16 H3          3.0630    0.2800   -0.9550 ha        1 262      0.017500
     17 H4          1.9710    0.3530    1.1390 ha        1 262      0.118500
     18 H7         -2.7140    0.4320   -1.5580 h4        1 262     -0.108800
@<TRIPOS>BOND
     1    1    6 3   
     2    1   14 1   
     3    2    3 3   
     4    2   15 1   
     5    3   16 1   
     6    4    5 3   
     7    4   17 1   
     8    5    8 1   
     9    6    7 1   
    10    7   13 2   
    11    7   18 1   
    12    8    9 1   
    13    9   10 1   
    14    9   11 1   
    15    9   12 1   
@<TRIPOS>SUBSTRUCTURE
     1 262         1 TEMP              0 ****  ****    0 ROOT
