@<TRIPOS>MOLECULE
262
   18    17     1     0     0
SMALL
bcc


@<TRIPOS>ATOM
      1 C1          0.1390   -0.0040   -3.0350 ca        1 262     -0.003000
      2 C2          1.5120    0.0580   -3.1250 ca        1 262     -0.329000
      3 C3          2.2770    0.0820   -1.9310 ca        1 262     -0.084000
      4 C4          1.6810    0.0440   -0.7070 ca        1 262     -0.266000
      5 C5          0.2310   -0.0210   -0.5670 ca        1 262      0.330000
      6 C6         -0.5280   -0.0450   -1.7980 ca        1 262     -0.403000
      7 C7         -1.9620   -0.1090   -1.7340 c2        1 262      0.249000
      8 O8         -0.3100   -0.0550    0.5780 o         1 262     -0.515000
      9 P9          0.0670   -0.0590    2.9010 p3        1 262      2.481000
     10 O10        -0.5620   -1.3630    3.2050 o         1 262     -1.167667
     11 O11        -0.6760    1.1790    3.2270 o         1 262     -1.167667
     12 O14         1.5390    0.0080    2.7580 o         1 262     -1.167667
     13 O12        -2.7330   -0.1350   -2.7200 o         1 262     -0.461000
     14 H1         -0.4780   -0.0240   -3.9480 ha        1 262      0.093000
     15 H2          2.0180    0.0890   -4.0960 ha        1 262      0.078000
     16 H3          3.3730    0.1310   -2.0150 ha        1 262      0.074000
     17 H4          2.2570    0.0620    0.2330 ha        1 262      0.163000
     18 H7         -2.3860   -0.1370   -0.7020 h4        1 262      0.095000
@<TRIPOS>BOND
     1    1    2 1   
     2    1    6 1   
     3    1   14 1   
     4    2    3 1   
     5    2   15 1   
     6    3    4 1   
     7    3   16 1   
     8    4    5 1   
     9    4   17 1   
    10    5    6 1   
    11    5    8 1   
    12    6    7 1   
    13    7   13 1   
    14    7   18 1   
    15    9   10 1   
    16    9   11 1   
    17    9   12 1   
@<TRIPOS>SUBSTRUCTURE
     1 262         1 TEMP              0 ****  ****    0 ROOT
