@<TRIPOS>MOLECULE
262
   18    17     1     0     0
SMALL
bcc


@<TRIPOS>ATOM
      1 C1          0.0750   -0.4480   -0.2140 ca        1 262     -0.003000
      2 C2          1.4500   -0.4720   -0.1530 ca        1 262     -0.329000
      3 C3          2.0920   -0.0190    1.0280 ca        1 262     -0.084000
      4 C4          1.3760    0.4350    2.0940 ca        1 262     -0.266000
      5 C5         -0.0820    0.4770    2.0700 ca        1 262      0.330000
      6 C6         -0.7130    0.0100    0.8560 ca        1 262     -0.403000
      7 C7         -2.1470    0.0230    0.7640 c2        1 262      0.249000
      8 O8         -0.7360    0.9020    3.0690 o         1 262     -0.515000
      9 P9         -0.5940    1.7750    5.2500 p3        1 262      2.481000
     10 O10        -1.3490    0.7080    5.9430 o         1 262     -1.167667
     11 O11        -1.2670    3.0670    4.9930 o         1 262     -1.167667
     12 O14         0.8860    1.7320    5.2730 o         1 262     -1.167667
     13 O12        -2.8160   -0.3520   -0.2260 o         1 262     -0.461000
     14 H1         -0.4480   -0.7950   -1.1210 ha        1 262      0.093000
     15 H2          2.0520   -0.8320   -0.9940 ha        1 262      0.078000
     16 H3          3.1920   -0.0420    1.0660 ha        1 262      0.074000
     17 H4          1.8550    0.7910    3.0200 ha        1 262      0.163000
     18 H7         -2.6740    0.4070    1.6710 h4        1 262      0.095000
@<TRIPOS>BOND
     1    1    2 1   
     2    1    6 1   
     3    1   14 1   
     4    2    3 1   
     5    2   15 1   
     6    3    4 1   
     7    3   16 1   
     8    4    5 1   
     9    4   17 1   
    10    5    6 1   
    11    5    8 1   
    12    6    7 1   
    13    7   13 1   
    14    7   18 1   
    15    9   10 1   
    16    9   11 1   
    17    9   12 1   
@<TRIPOS>SUBSTRUCTURE
     1 262         1 TEMP              0 ****  ****    0 ROOT
