@<TRIPOS>MOLECULE
263
   20    20     1     0     0
SMALL
bcc


@<TRIPOS>ATOM
      1 C4          0.1560    0.0850   -0.0340 ca        1 263     -0.113000
      2 C14         1.5240   -0.1970   -0.0210 ca        1 263     -0.122300
      3 C5          2.1760   -0.4180    1.1960 ca        1 263     -0.124000
      4 C6          1.4590   -0.3550    2.3900 ca        1 263     -0.127000
      5 C11         0.0950   -0.0710    2.3760 ca        1 263     -0.123000
      6 C7         -0.5670    0.1510    1.1620 ca        1 263     -0.076300
      7 C8         -2.0200    0.4370    1.1430 c3        1 263     -0.055800
      8 C13         2.2840   -0.2880   -1.3100 c3        1 263      0.206100
      9 N1          2.3050    0.8990   -2.1430 n2        1 263     -0.446200
     10 N2          2.6750    2.0120   -1.6990 n1        1 263      0.221000
     11 N3          2.9600    3.0920   -1.4930 n1        1 263     -0.057000
     12 H4         -0.3560    0.2570   -0.9940 ha        1 263      0.142000
     13 H5          3.2520   -0.6440    1.2150 ha        1 263      0.132000
     14 H6          1.9720   -0.5300    3.3470 ha        1 263      0.134000
     15 H11        -0.4670   -0.0190    3.3210 ha        1 263      0.134000
     16 H81        -2.5960   -0.5220    1.1040 hc        1 263      0.046367
     17 H82        -2.2970    1.0490    0.2500 hc        1 263      0.046367
     18 H83        -2.3290    0.9930    2.0630 hc        1 263      0.046367
     19 H131        3.3320   -0.6530   -1.1010 h1        1 263      0.068700
     20 H132        1.7830   -1.0450   -1.9840 h1        1 263      0.068700
@<TRIPOS>BOND
     1    1    2 ar  
     2    1    6 ar  
     3    1   12 1   
     4    2    3 ar  
     5    2    8 1   
     6    3    4 ar  
     7    3   13 1   
     8    4    5 ar  
     9    4   14 1   
    10    5    6 ar  
    11    5   15 1   
    12    6    7 1   
    13    7   16 1   
    14    7   17 1   
    15    7   18 1   
    16    8    9 1   
    17    8   19 1   
    18    8   20 1   
    19    9   10 1   
    20   10   11 3   
@<TRIPOS>SUBSTRUCTURE
     1 263         1 TEMP              0 ****  ****    0 ROOT
