@<TRIPOS>MOLECULE
263
   20    17     1     0     0
SMALL
bcc


@<TRIPOS>ATOM
      1 C4         -0.7710    0.0580   -0.3460 c1        1 263     -0.063500
      2 C14         0.6340    0.1180   -0.3160 c1        1 263     -0.088100
      3 C5          1.2780    0.1630    0.8610 c1        1 263     -0.058500
      4 C6          0.5460    0.1510    2.0750 c1        1 263     -0.067500
      5 C11        -0.7780    0.0940    2.0510 c1        1 263     -0.067500
      6 C7         -1.4690    0.0450    0.8030 c1        1 263     -0.042100
      7 C8         -3.0420    0.2340    0.7680 c3        1 263     -0.089000
      8 C13         1.4320    0.2030   -1.6230 c3        1 263      0.171900
      9 N1          2.3780   -0.8390   -1.6850 n2        1 263     -0.445200
     10 N2          2.8800   -1.0970   -2.6970 n1        1 263      0.221000
     11 N3          3.4820   -1.4070   -3.9110 n1        1 263     -0.058000
     12 H4         -1.1680    0.0320   -1.0720 ha        1 263      0.074500
     13 H5          2.3050    0.2100    0.8820 ha        1 263      0.084500
     14 H6          1.0840    0.1910    3.0520 ha        1 263      0.076500
     15 H11        -1.3060    0.0840    2.9340 ha        1 263      0.076500
     16 H81        -3.5700   -0.8300    0.7120 hc        1 263      0.045700
     17 H82        -3.3230    0.6820    1.5540 hc        1 263      0.045700
     18 H83        -3.3050    0.7870   -0.0510 hc        1 263      0.045700
     19 H131        0.8580    0.1370   -2.3420 h1        1 263      0.068700
     20 H132        1.8540    0.9820   -1.6490 h1        1 263      0.068700
@<TRIPOS>BOND
     1    1    6 3   
     2    1   12 1   
     3    2    3 3   
     4    2    8 1   
     5    3   13 1   
     6    4    5 3   
     7    4   14 1   
     8    5   15 1   
     9    6    7 1   
    10    7   16 1   
    11    7   17 1   
    12    7   18 1   
    13    8    9 1   
    14    8   19 1   
    15    8   20 1   
    16    9   10 1   
    17   10   11 3   
@<TRIPOS>SUBSTRUCTURE
     1 263         1 TEMP              0 ****  ****    0 ROOT
