@<TRIPOS>MOLECULE
263
   20    20     1     0     0
SMALL
bcc


@<TRIPOS>ATOM
      1 C4          0.1570    0.0710   -0.0320 ca        1 263     -0.113000
      2 C14         1.5300   -0.1900   -0.0180 ca        1 263     -0.122300
      3 C5          2.1870   -0.3880    1.2000 ca        1 263     -0.124000
      4 C6          1.4710   -0.3240    2.3950 ca        1 263     -0.127000
      5 C11         0.1030   -0.0610    2.3800 ca        1 263     -0.123000
      6 C7         -0.5650    0.1370    1.1650 ca        1 263     -0.076300
      7 C8         -2.0220    0.4000    1.1460 c3        1 263     -0.055800
      8 C13         2.2890   -0.2820   -1.3070 c3        1 263      0.206100
      9 N1          2.2900    0.8970   -2.1530 n2        1 263     -0.446200
     10 N2          2.6430    2.0200   -1.7200 n1        1 263      0.221000
     11 N3          2.9110    3.1060   -1.5260 n1        1 263     -0.057000
     12 H4         -0.3590    0.2240   -0.9920 ha        1 263      0.142000
     13 H5          3.2670   -0.5970    1.2190 ha        1 263      0.132000
     14 H6          1.9890   -0.4800    3.3530 ha        1 263      0.134000
     15 H11        -0.4580   -0.0090    3.3250 ha        1 263      0.134000
     16 H81        -2.5830   -0.5680    1.1320 hc        1 263      0.046367
     17 H82        -2.3130    0.9860    0.2400 hc        1 263      0.046367
     18 H83        -2.3360    0.9720    2.0540 hc        1 263      0.046367
     19 H131        3.3440   -0.6280   -1.0970 h1        1 263      0.068700
     20 H132        1.8000   -1.0540   -1.9730 h1        1 263      0.068700
@<TRIPOS>BOND
     1    1    2 ar  
     2    1    6 ar  
     3    1   12 1   
     4    2    3 ar  
     5    2    8 1   
     6    3    4 ar  
     7    3   13 1   
     8    4    5 ar  
     9    4   14 1   
    10    5    6 ar  
    11    5   15 1   
    12    6    7 1   
    13    7   16 1   
    14    7   17 1   
    15    7   18 1   
    16    8    9 1   
    17    8   19 1   
    18    8   20 1   
    19    9   10 1   
    20   10   11 3   
@<TRIPOS>SUBSTRUCTURE
     1 263         1 TEMP              0 ****  ****    0 ROOT
