@<TRIPOS>MOLECULE
264
   18    18     1     0     0
SMALL
bcc


@<TRIPOS>ATOM
      1 CAF        -1.1640   -1.2540   -0.2550 ca        1 264     -0.165000
      2 CAD        -2.4750   -1.1430    0.1950 ca        1 264     -0.102500
      3 CAC        -3.0190    0.1050    0.4950 ca        1 264     -0.152000
      4 CAE        -2.2390    1.2480    0.3350 ca        1 264     -0.102500
      5 CAG        -0.9270    1.1580   -0.1200 ca        1 264     -0.165000
      6 CAJ        -0.3640   -0.1000   -0.4250 ca        1 264      0.113600
      7 NAI         0.9300   -0.2150   -0.9870 nh        1 264     -0.705600
      8 CAH         2.0010    0.5680   -0.4250 c3        1 264      0.241900
      9 CAB         2.5120    0.1370    0.8770 c1        1 264      0.163700
     10 NAA         2.9330   -0.1930    1.9090 n1        1 264     -0.356800
     11 HAF        -0.7570   -2.2510   -0.4830 ha        1 264      0.132500
     12 HAD        -3.0840   -2.0510    0.3180 ha        1 264      0.133000
     13 HAC        -4.0540    0.1860    0.8550 ha        1 264      0.134000
     14 HAE        -2.6620    2.2380    0.5690 ha        1 264      0.133000
     15 HAG        -0.3430    2.0810   -0.2490 ha        1 264      0.132500
     16 HAI         1.1960   -1.1740   -1.1130 hn        1 264      0.392800
     17 HAH1        2.8600    0.5300   -1.1620 h1        1 264      0.086700
     18 HAH2        1.6710    1.6450   -0.3300 h1        1 264      0.086700
@<TRIPOS>BOND
     1    1    2 ar  
     2    1    6 ar  
     3    1   11 1   
     4    2    3 ar  
     5    2   12 1   
     6    3    4 ar  
     7    3   13 1   
     8    4    5 ar  
     9    4   14 1   
    10    5    6 ar  
    11    5   15 1   
    12    6    7 1   
    13    7    8 1   
    14    7   16 1   
    15    8    9 1   
    16    8   17 1   
    17    8   18 1   
    18    9   10 3   
@<TRIPOS>SUBSTRUCTURE
     1 264         1 TEMP              0 ****  ****    0 ROOT
