@<TRIPOS>MOLECULE
264
   19    19     1     0     0
SMALL
bcc


@<TRIPOS>ATOM
      1 CAF        -0.1360   -0.3850    0.2640 ca        1 264     -0.101000
      2 CAD         1.2420   -0.5860    0.2020 ca        1 264     -0.099000
      3 CAC         2.0660   -0.1700    1.2490 ca        1 264     -0.063000
      4 CAE         1.5140    0.4520    2.3710 ca        1 264     -0.099000
      5 CAG         0.1400    0.6640    2.4580 ca        1 264     -0.101000
      6 CAJ        -0.6810    0.2440    1.3970 ca        1 264     -0.073400
      7 NAI        -2.1280    0.4780    1.4670 n4        1 264     -0.628400
      8 CAH        -2.8370   -0.6800    2.1100 c3        1 264      0.192900
      9 CAB        -4.2670   -0.4570    2.1830 c1        1 264      0.113700
     10 NAA        -5.4190   -0.3270    2.2660 n1        1 264     -0.200800
     11 HAF        -0.7710   -0.7160   -0.5740 ha        1 264      0.158000
     12 HAD         1.6780   -1.0750   -0.6860 ha        1 264      0.177000
     13 HAC         3.1560   -0.3330    1.1900 ha        1 264      0.177000
     14 HAE         2.1670    0.7820    3.1980 ha        1 264      0.177000
     15 HAG        -0.2770    1.1610    3.3500 ha        1 264      0.158000
     16 HAI        -2.3060    1.3330    2.0110 hn        1 264      0.464800
     17 HAH1       -2.4100   -0.8230    3.1510 hx        1 264      0.140700
     18 HAH2       -2.6180   -1.6110    1.5020 hx        1 264      0.140700
     19 HAI2       -2.4940    0.6180    0.5150 hn        1 264      0.464800
@<TRIPOS>BOND
     1    1    2 ar  
     2    1    6 ar  
     3    1   11 1   
     4    2    3 ar  
     5    2   12 1   
     6    3    4 ar  
     7    3   13 1   
     8    4    5 ar  
     9    4   14 1   
    10    5    6 ar  
    11    5   15 1   
    12    6    7 1   
    13    7    8 1   
    14    7   16 1   
    15    7   19 1   
    16    8    9 1   
    17    8   17 1   
    18    8   18 1   
    19    9   10 3   
@<TRIPOS>SUBSTRUCTURE
     1 264         1 TEMP              0 ****  ****    0 ROOT
