@<TRIPOS>MOLECULE
264
   18    18     1     0     0
SMALL
bcc


@<TRIPOS>ATOM
      1 CAF        -0.1680    0.2610    0.0730 ca        1 264     -0.164500
      2 CAD         1.1190   -0.2420   -0.0860 ca        1 264     -0.102500
      3 CAC         1.8840   -0.5980    1.0230 ca        1 264     -0.152000
      4 CAE         1.3520   -0.4400    2.3010 ca        1 264     -0.102500
      5 CAG         0.0690    0.0690    2.4810 ca        1 264     -0.164500
      6 CAJ        -0.7160    0.4300    1.3650 ca        1 264      0.113600
      7 NAI        -1.9820    1.0460    1.5210 nh        1 264     -0.705600
      8 CAH        -2.9020    0.5010    2.4860 c3        1 264      0.241900
      9 CAB        -3.5470   -0.7650    2.1320 c1        1 264      0.163700
     10 NAA        -4.0700   -1.7690    1.8670 n1        1 264     -0.356800
     11 HAF        -0.7530    0.5320   -0.8190 ha        1 264      0.132500
     12 HAD         1.5310   -0.3640   -1.1000 ha        1 264      0.133000
     13 HAC         2.8980   -1.0010    0.8910 ha        1 264      0.134000
     14 HAE         1.9500   -0.7170    3.1830 ha        1 264      0.133000
     15 HAG        -0.3150    0.1950    3.5040 ha        1 264      0.132500
     16 HAI        -2.4250    1.2110    0.6360 hn        1 264      0.392800
     17 HAH1       -2.3730    0.3570    3.4740 h1        1 264      0.086700
     18 HAH2       -3.7180    1.2710    2.6360 h1        1 264      0.086700
@<TRIPOS>BOND
     1    1    2 ar  
     2    1    6 ar  
     3    1   11 1   
     4    2    3 ar  
     5    2   12 1   
     6    3    4 ar  
     7    3   13 1   
     8    4    5 ar  
     9    4   14 1   
    10    5    6 ar  
    11    5   15 1   
    12    6    7 1   
    13    7    8 1   
    14    7   16 1   
    15    8    9 1   
    16    8   17 1   
    17    8   18 1   
    18    9   10 3   
@<TRIPOS>SUBSTRUCTURE
     1 264         1 TEMP              0 ****  ****    0 ROOT
