@<TRIPOS>MOLECULE
264
   18    18     1     0     0
SMALL
bcc


@<TRIPOS>ATOM
      1 CAF        -0.1800   -0.2490    0.0690 ca        1 264     -0.164500
      2 CAD         1.1140    0.2400   -0.0790 ca        1 264     -0.102500
      3 CAC         1.8770    0.5780    1.0370 ca        1 264     -0.152000
      4 CAE         1.3370    0.4160    2.3110 ca        1 264     -0.102500
      5 CAG         0.0470   -0.0790    2.4800 ca        1 264     -0.164500
      6 CAJ        -0.7370   -0.4220    1.3580 ca        1 264      0.113600
      7 NAI        -2.0110   -1.0230    1.5010 nu        1 264     -0.705600
      8 CAH        -2.9290   -0.4760    2.4670 c3        1 264      0.241900
      9 CAB        -3.5560    0.8020    2.1230 c1        1 264      0.163700
     10 NAA        -4.0650    1.8140    1.8650 n1        1 264     -0.356800
     11 HAF        -0.7630   -0.5060   -0.8280 ha        1 264      0.132500
     12 HAD         1.5330    0.3640   -1.0890 ha        1 264      0.133000
     13 HAC         2.8970    0.9690    0.9130 ha        1 264      0.134000
     14 HAE         1.9340    0.6790    3.1980 ha        1 264      0.133000
     15 HAG        -0.3450   -0.2080    3.5000 ha        1 264      0.132500
     16 HAI        -2.4510   -1.1740    0.6130 hn        1 264      0.392800
     17 HAH1       -3.7550   -1.2370    2.6050 h1        1 264      0.086700
     18 HAH2       -2.4030   -0.3490    3.4590 h1        1 264      0.086700
@<TRIPOS>BOND
     1    1    2 ar  
     2    1    6 ar  
     3    1   11 1   
     4    2    3 ar  
     5    2   12 1   
     6    3    4 ar  
     7    3   13 1   
     8    4    5 ar  
     9    4   14 1   
    10    5    6 ar  
    11    5   15 1   
    12    6    7 1   
    13    7    8 1   
    14    7   16 1   
    15    8    9 1   
    16    8   17 1   
    17    8   18 1   
    18    9   10 3   
@<TRIPOS>SUBSTRUCTURE
     1 264         1 TEMP              0 ****  ****    0 ROOT
