@<TRIPOS>MOLECULE
264
   18    15     1     0     0
SMALL
bcc


@<TRIPOS>ATOM
      1 CAF         0.6260    0.3930   -1.2480 c1        1 264     -0.099500
      2 CAD         2.0090    0.4630   -1.3350 c1        1 264     -0.075000
      3 CAC         2.7890    0.3690   -0.1790 c1        1 264     -0.075000
      4 CAE         2.1820    0.2050    1.0580 c1        1 264     -0.075000
      5 CAG         0.7810    0.1340    1.1490 c1        1 264     -0.075000
      6 CAJ         0.0080    0.2270    0.0050 c1        1 264      0.087800
      7 NAI        -1.4110    0.2960    0.1100 n3        1 264     -0.679800
      8 CAH        -2.2090   -0.8840   -0.0920 c3        1 264      0.241900
      9 CAB        -3.6050   -0.6690    0.5220 c1        1 264      0.163700
     10 NAA        -4.6550   -0.5090    0.9830 n1        1 264     -0.356800
     11 HAF         0.0710    0.4600   -2.0740 ha        1 264      0.075500
     12 HAD         2.4370    0.5790   -2.2040 ha        1 264      0.075500
     13 HAC         3.7830    0.4190   -0.2430 ha        1 264      0.075500
     14 HAE         2.7320    0.1390    1.8720 ha        1 264      0.075500
     15 HAG         0.3490    0.0170    2.0310 ha        1 264      0.075500
     16 HAI        -1.8130    1.0810    0.3650 hn        1 264      0.392800
     17 HAH1       -1.7730   -1.6570    0.3450 h1        1 264      0.086700
     18 HAH2       -2.3000   -1.0620   -1.0650 h1        1 264      0.086700
@<TRIPOS>BOND
     1    1    6 3   
     2    1   11 1   
     3    2    3 3   
     4    2   12 1   
     5    3   13 1   
     6    4    5 3   
     7    4   14 1   
     8    5   15 1   
     9    6    7 1   
    10    7    8 1   
    11    7   16 1   
    12    8    9 1   
    13    8   17 1   
    14    8   18 1   
    15    9   10 3   
@<TRIPOS>SUBSTRUCTURE
     1 264         1 TEMP              0 ****  ****    0 ROOT
