@<TRIPOS>MOLECULE
265
   11    11     1     0     0
SMALL
bcc


@<TRIPOS>ATOM
      1 CAE        -0.4980   -1.4240    0.0010 cc        1 265     -0.068000
      2 CAC        -1.9090   -1.2740    0.0000 cc        1 265     -0.169000
      3 CAD        -2.2770    0.0630   -0.0000 cd        1 265     -0.172100
      4 SAF        -0.9850    1.0860   -0.0010 ss        1 265      0.192200
      5 CAG         0.1340   -0.1770    0.0000 cd        1 265     -0.263300
      6 NAH         1.5800   -0.0010    0.0000 no        1 265      0.358200
      7 OAB         2.2870   -0.9740    0.0010 o         1 265     -0.208000
      8 OAA         2.0320    1.1150   -0.0000 o         1 265     -0.208000
      9 HAE         0.0280   -2.3840    0.0010 ha        1 265      0.185000
     10 HAC        -2.6030   -2.1170    0.0010 ha        1 265      0.168000
     11 HAD        -3.3110    0.4150   -0.0010 h4        1 265      0.185000
@<TRIPOS>BOND
     1    1    2 1   
     2    1    5 2   
     3    1    9 1   
     4    2    3 2   
     5    2   10 1   
     6    3    4 1   
     7    3   11 1   
     8    4    5 1   
     9    5    6 1   
    10    6    7 1   
    11    6    8 1   
@<TRIPOS>SUBSTRUCTURE
     1 265         1 TEMP              0 ****  ****    0 ROOT
