@<TRIPOS>MOLECULE
265
   11     7     1     0     0
SMALL
bcc


@<TRIPOS>ATOM
      1 CAE        -0.1390   -0.0450   -1.0070 cg        1 265     -0.118500
      2 CAC         1.4510   -0.1160   -0.9460 cg        1 265     -0.118500
      3 CAD         1.8580   -0.0150    0.4430 c1        1 265     -0.239900
      4 SAF         0.5770    0.1210    1.3080 ss        1 265      0.281800
      5 CAG        -0.6410    0.0960    0.3460 c1        1 265     -0.239900
      6 NAH        -2.0070    0.1230    0.7300 n2        1 265      0.504400
      7 OAB        -2.5010   -0.8400    1.5630 o         1 265     -0.303700
      8 OAA        -2.7410    1.0080    0.3160 o         1 265     -0.303700
      9 HAE        -0.6820   -0.0900   -1.8170 DU        1 265      0.179333
     10 HAC         2.0490   -0.2110   -1.7110 DU        1 265      0.179333
     11 HAD         2.7760   -0.0300    0.7750 DU        1 265      0.179333
@<TRIPOS>BOND
     1    1    2 1   
     2    1    5 3   
     3    2    3 3   
     4    3    4 1   
     5    4    5 1   
     6    6    7 2   
     7    6    8 2   
@<TRIPOS>SUBSTRUCTURE
     1 265         1 TEMP              0 ****  ****    0 ROOT
