@<TRIPOS>MOLECULE
265
   11    11     1     0     0
SMALL
bcc


@<TRIPOS>ATOM
      1 CAE        -0.0230    0.0010   -0.0800 cc        1 265     -0.068000
      2 CAC         1.3950   -0.0020   -0.0440 cc        1 265     -0.169000
      3 CAD         1.8700   -0.0030    1.2590 cd        1 265     -0.172100
      4 SAF         0.6650   -0.0000    2.3820 ss        1 265      0.192200
      5 CAG        -0.5530    0.0020    1.2140 cd        1 265     -0.263300
      6 NAH        -1.9800    0.0050    1.5060 no        1 265      0.358200
      7 OAB        -2.7620    0.0070    0.5930 o         1 265     -0.208000
      8 OAA        -2.3400    0.0060    2.6550 o         1 265     -0.208000
      9 HAE        -0.6240    0.0020   -0.9950 ha        1 265      0.185000
     10 HAC         2.0200   -0.0030   -0.9400 ha        1 265      0.168000
     11 HAD         2.9290   -0.0050    1.5260 h4        1 265      0.185000
@<TRIPOS>BOND
     1    1    2 1   
     2    1    5 2   
     3    1    9 1   
     4    2    3 2   
     5    2   10 1   
     6    3    4 1   
     7    3   11 1   
     8    4    5 1   
     9    5    6 1   
    10    6    7 1   
    11    6    8 1   
@<TRIPOS>SUBSTRUCTURE
     1 265         1 TEMP              0 ****  ****    0 ROOT
