@<TRIPOS>MOLECULE
266
   19    18     1     0     0
SMALL
bcc


@<TRIPOS>ATOM
      1 CAA        -3.0450    0.0000   -1.7450 c3        1 266     -0.092100
      2 CAC        -1.5320    0.0000   -1.7450 c3        1 266     -0.072400
      3 CAE        -1.0270    0.0000   -0.3180 c3        1 266     -0.004300
      4 SAG         0.7460    0.0000   -0.3180 ss        1 266     -0.312200
      5 CAF         1.3370   -0.0000    1.3530 c3        1 266     -0.018300
      6 CAD         2.8500   -0.0010    1.3530 c3        1 266      0.143400
      7 OAB         3.3200   -0.0010    2.6830 oh        1 266     -0.601800
      8 HAA1       -3.3700   -0.7970   -1.2850 hc        1 266      0.036033
      9 HAA2       -3.3700    0.0000   -2.6650 hc        1 266      0.036033
     10 HAA3       -3.3700    0.7970   -1.2850 hc        1 266      0.036033
     11 HAC1       -1.2060   -0.7970   -2.2050 hc        1 266      0.054700
     12 HAC2       -1.2060    0.7970   -2.2050 hc        1 266      0.054700
     13 HAE1       -1.3530   -0.7970    0.1420 h1        1 266      0.060700
     14 HAE2       -1.3530    0.7970    0.1420 h1        1 266      0.060700
     15 HAF1        1.0120    0.7970    1.8140 h1        1 266      0.072700
     16 HAF2        1.0110   -0.7970    1.8130 h1        1 266      0.072700
     17 HAD1        3.1750    0.7960    0.8930 h1        1 266      0.035700
     18 HAD2        3.1750   -0.7980    0.8930 h1        1 266      0.035700
     19 HAB         4.2070   -0.0010    2.6830 ho        1 266      0.403000
@<TRIPOS>BOND
     1    1    2 1   
     2    1    8 1   
     3    1    9 1   
     4    1   10 1   
     5    2    3 1   
     6    2   11 1   
     7    2   12 1   
     8    3    4 1   
     9    3   13 1   
    10    3   14 1   
    11    4    5 1   
    12    5    6 1   
    13    5   15 1   
    14    5   16 1   
    15    6    7 1   
    16    6   17 1   
    17    6   18 1   
    18    7   19 1   
@<TRIPOS>SUBSTRUCTURE
     1 266         1 TEMP              0 ****  ****    0 ROOT
