@<TRIPOS>MOLECULE
266
   19    18     1     0     0
SMALL
bcc


@<TRIPOS>ATOM
      1 CAA         3.9070   -0.5400    0.0010 c3        1 266     -0.092100
      2 CAC         2.6830    0.3420   -0.0000 c3        1 266     -0.072400
      3 CAE         1.4190   -0.4810    0.0000 c3        1 266     -0.004300
      4 SAG         0.0510    0.6430   -0.0010 ss        1 266     -0.312200
      5 CAF        -1.3140   -0.4800    0.0000 c3        1 266     -0.018300
      6 CAD        -2.5820    0.3460   -0.0000 c3        1 266      0.143400
      7 OAB        -3.6670   -0.5720    0.0010 oh        1 266     -0.601800
      8 HAA1        3.9230   -1.1930    0.9060 hc        1 266      0.036033
      9 HAA2        3.9230   -1.1940   -0.9040 hc        1 266      0.036033
     10 HAA3        4.8310    0.0870    0.0000 hc        1 266      0.036033
     11 HAC1        2.6990    1.0080    0.9030 hc        1 266      0.054700
     12 HAC2        2.6990    1.0070   -0.9050 hc        1 266      0.054700
     13 HAE1        1.3780   -1.1400   -0.9010 h1        1 266      0.060700
     14 HAE2        1.3780   -1.1380    0.9030 h1        1 266      0.060700
     15 HAF1       -1.2870   -1.1410   -0.9000 h1        1 266      0.072700
     16 HAF2       -1.2870   -1.1390    0.9020 h1        1 266      0.072700
     17 HAD1       -2.6330    0.9970    0.9140 h1        1 266      0.035700
     18 HAD2       -2.6330    0.9940   -0.9170 h1        1 266      0.035700
     19 HAB        -4.4730   -0.0430    0.0000 ho        1 266      0.403000
@<TRIPOS>BOND
     1    1    2 1   
     2    1    8 1   
     3    1    9 1   
     4    1   10 1   
     5    2    3 1   
     6    2   11 1   
     7    2   12 1   
     8    3    4 1   
     9    3   13 1   
    10    3   14 1   
    11    4    5 1   
    12    5    6 1   
    13    5   15 1   
    14    5   16 1   
    15    6    7 1   
    16    6   17 1   
    17    6   18 1   
    18    7   19 1   
@<TRIPOS>SUBSTRUCTURE
     1 266         1 TEMP              0 ****  ****    0 ROOT
