@<TRIPOS>MOLECULE
266
   19    18     1     0     0
SMALL
bcc


@<TRIPOS>ATOM
      1 CAA         0.0700   -0.0000    0.0120 c3        1 266     -0.092100
      2 CAC         1.5770   -0.0000    0.0720 c3        1 266     -0.072400
      3 CAE         2.0640   -0.0000    1.4990 c3        1 266     -0.004300
      4 SAG         3.8350   -0.0000    1.4570 ss        1 266     -0.312200
      5 CAF         4.2170   -0.0010    3.1830 c3        1 266     -0.018300
      6 CAD         5.7250   -0.0020    3.3150 c3        1 266      0.143400
      7 OAB         6.0130   -0.0020    4.7070 oh        1 266     -0.601800
      8 HAA1       -0.3460   -0.9050    0.5160 hc        1 266      0.036033
      9 HAA2       -0.3460    0.9050    0.5160 hc        1 266      0.036033
     10 HAA3       -0.2710    0.0000   -1.0520 hc        1 266      0.036033
     11 HAC1        1.9750    0.9040   -0.4620 hc        1 266      0.054700
     12 HAC2        1.9750   -0.9040   -0.4620 hc        1 266      0.054700
     13 HAE1        1.6920   -0.9020    2.0420 h1        1 266      0.060700
     14 HAE2        1.6920    0.9020    2.0420 h1        1 266      0.060700
     15 HAF1        3.7900    0.9000    3.6860 h1        1 266      0.072700
     16 HAF2        3.7880   -0.9010    3.6860 h1        1 266      0.072700
     17 HAD1        6.1650   -0.9180    2.8350 h1        1 266      0.035700
     18 HAD2        6.1660    0.9130    2.8350 h1        1 266      0.035700
     19 HAB         6.9730   -0.0030    4.7870 ho        1 266      0.403000
@<TRIPOS>BOND
     1    1    2 1   
     2    1    8 1   
     3    1    9 1   
     4    1   10 1   
     5    2    3 1   
     6    2   11 1   
     7    2   12 1   
     8    3    4 1   
     9    3   13 1   
    10    3   14 1   
    11    4    5 1   
    12    5    6 1   
    13    5   15 1   
    14    5   16 1   
    15    6    7 1   
    16    6   17 1   
    17    6   18 1   
    18    7   19 1   
@<TRIPOS>SUBSTRUCTURE
     1 266         1 TEMP              0 ****  ****    0 ROOT
