@<TRIPOS>MOLECULE
267
   20    20     1     0     0
SMALL
bcc


@<TRIPOS>ATOM
      1 C4          0.9120   -0.8100   -0.2460 ca        1 267     -0.113000
      2 C14        -0.0280    0.1110   -0.7170 ca        1 267     -0.122300
      3 C5          0.2710    1.4760   -0.7040 ca        1 267     -0.124000
      4 C6          1.5040    1.9140   -0.2220 ca        1 267     -0.127000
      5 C11         2.4390    0.9950    0.2490 ca        1 267     -0.123000
      6 C7          2.1500   -0.3750    0.2400 ca        1 267     -0.076300
      7 C8          3.1500   -1.3540    0.7250 c3        1 267     -0.055800
      8 C13        -1.3410   -0.3690   -1.2570 c3        1 267      0.206100
      9 N1         -2.1910   -1.1150   -0.3480 n2        1 267     -0.446200
     10 N2         -2.5180   -0.6610    0.7740 n1        1 267      0.221000
     11 N3         -2.9150   -0.4390    1.8150 n1        1 267     -0.057000
     12 H4          0.6760   -1.8860   -0.2590 ha        1 267      0.142000
     13 H5         -0.4630    2.2070   -1.0760 ha        1 267      0.132000
     14 H6          1.7380    2.9890   -0.2140 ha        1 267      0.134000
     15 H11         3.4100    1.3450    0.6310 ha        1 267      0.134000
     16 H81         3.8390   -1.6400   -0.1090 hc        1 267      0.046367
     17 H82         3.7640   -0.9200    1.5530 hc        1 267      0.046367
     18 H83         2.6530   -2.2820    1.1020 hc        1 267      0.046367
     19 H131       -1.9010    0.5030   -1.7070 h1        1 267      0.068700
     20 H132       -1.1530   -1.1200   -2.0810 h1        1 267      0.068700
@<TRIPOS>BOND
     1    1    2 ar  
     2    1    6 ar  
     3    1   12 1   
     4    2    3 ar  
     5    2    8 1   
     6    3    4 ar  
     7    3   13 1   
     8    4    5 ar  
     9    4   14 1   
    10    5    6 ar  
    11    5   15 1   
    12    6    7 1   
    13    7   16 1   
    14    7   17 1   
    15    7   18 1   
    16    8    9 1   
    17    8   19 1   
    18    8   20 1   
    19    9   10 1   
    20   10   11 3   
@<TRIPOS>SUBSTRUCTURE
     1 267         1 TEMP              0 ****  ****    0 ROOT
