@<TRIPOS>MOLECULE
267
   20    13     1     0     0
SMALL
bcc


@<TRIPOS>ATOM
      1 C4         -0.7120   -0.1670   -0.3640 c1        1 267     -0.118500
      2 C14         0.6670   -0.1220   -0.2960 c1        1 267     -0.092000
      3 C5          1.3020   -0.0920    0.9470 c1        1 267     -0.118500
      4 C6          0.5490   -0.1090    2.1050 c1        1 267     -0.125000
      5 C11        -0.8320   -0.1530    2.0330 c1        1 267     -0.125000
      6 C7         -1.4630   -0.1820    0.7970 c1        1 267     -0.092000
      7 C8         -2.9190   -0.2310    0.7240 c1        1 267     -0.109000
      8 C13         1.4500   -0.1300   -1.5120 c1        1 267     -0.109000
      9 N1          1.7120    1.2060   -1.9140 n1        1 267     -0.172000
     10 N2          2.5960    1.2050   -2.8920 n2        1 267      0.221000
     11 N3          3.4060    1.2030   -3.7850 n1        1 267     -0.172000
     12 H4         -1.1500   -0.1870   -1.2160 ha        1 267      0.137000
     13 H5          2.2930   -0.0600    0.9990 ha        1 267      0.137000
     14 H6          0.9910   -0.0880    2.9760 ha        1 267      0.134000
     15 H11        -1.3790   -0.1650    2.8750 ha        1 267      0.134000
     16 H81        -3.2040   -0.1430   -0.2190 DU        1 267      0.083000
     17 H82        -3.2380   -1.0910    1.0860 ha        1 267      0.097000
     18 H83        -3.3020    0.5140    1.2550 ha        1 267      0.097000
     19 H131        2.2980   -0.5960   -1.3510 ha        1 267      0.097000
     20 H132        0.9320   -0.6110   -2.2470 ha        1 267      0.097000
@<TRIPOS>BOND
     1    1    6 1   
     2    1   12 1   
     3    2    3 1   
     4    3   13 1   
     5    4    5 1   
     6    4   14 1   
     7    5   15 1   
     8    7   17 1   
     9    7   18 1   
    10    8   19 1   
    11    8   20 1   
    12    9   10 1   
    13   10   11 1   
@<TRIPOS>SUBSTRUCTURE
     1 267         1 TEMP              0 ****  ****    0 ROOT
