@<TRIPOS>MOLECULE
267
   20    19     1     0     0
SMALL
bcc


@<TRIPOS>ATOM
      1 C4         -0.3200   -0.2390    0.1450 ca        1 267     -0.049000
      2 C14         0.9940    0.2540   -0.0340 ca        1 267     -0.201000
      3 C5          1.6600    0.8250    1.0710 ca        1 267      0.010000
      4 C6          1.0280    0.8980    2.3110 ca        1 267     -0.182000
      5 C11        -0.2660    0.4080    2.4670 ca        1 267     -0.043000
      6 C7         -0.9520   -0.1660    1.3830 ca        1 267     -0.115000
      7 C8         -2.3280   -0.6800    1.5740 c3        1 267     -0.181000
      8 C13         1.6730    0.2000   -1.2710 c1        1 267     -0.097000
      9 N1          4.3480    1.2730   -1.3750 n2        1 267     -0.395000
     10 N2          4.8610    1.1830   -2.4900 n2        1 267      0.234000
     11 N3          5.4830    1.1820   -3.4460 n1        1 267     -0.148000
     12 H4         -0.8450   -0.6860   -0.7150 ha        1 267      0.137000
     13 H5          2.6860    1.2110    0.9390 ha        1 267      0.169000
     14 H6          1.5530    1.3450    3.1690 ha        1 267      0.146000
     15 H11        -0.7630    0.4680    3.4480 ha        1 267      0.140000
     16 H81        -2.3350   -1.4890    2.3480 hc        1 267      0.088000
     17 H82        -2.7410   -1.0990    0.6240 hc        1 267      0.088000
     18 H83        -3.0040    0.1400    1.9210 hc        1 267      0.088000
     19 H131        3.3810    0.8930   -1.3070 hn        1 267      0.254000
     20 H132        1.1440   -0.2470   -2.1240 ha        1 267      0.057000
@<TRIPOS>BOND
     1    1    2 1   
     2    1    6 1   
     3    1   12 1   
     4    2    3 1   
     5    2    8 1   
     6    3    4 1   
     7    3   13 1   
     8    4    5 1   
     9    4   14 1   
    10    5    6 1   
    11    5   15 1   
    12    6    7 1   
    13    7   16 1   
    14    7   17 1   
    15    7   18 1   
    16    8   20 1   
    17    9   10 1   
    18    9   19 1   
    19   10   11 1   
@<TRIPOS>SUBSTRUCTURE
     1 267         1 TEMP              0 ****  ****    0 ROOT
