@<TRIPOS>MOLECULE
267
   20    19     1     0     0
SMALL
bcc


@<TRIPOS>ATOM
      1 C4         -0.4230    0.1390    0.1170 ca        1 267     -0.049000
      2 C14         0.9570    0.4070   -0.0360 ca        1 267     -0.201000
      3 C5          1.7920    0.3290    1.0990 ca        1 267      0.009000
      4 C6          1.2580   -0.0060    2.3420 ca        1 267     -0.182000
      5 C11        -0.1030   -0.2660    2.4720 ca        1 267     -0.043000
      6 C7         -0.9570   -0.1960    1.3590 ca        1 267     -0.115000
      7 C8         -2.4030   -0.4720    1.5230 c3        1 267     -0.181000
      8 C13         1.5400    0.7490   -1.2750 c1        1 267     -0.097000
      9 N1          4.3800    1.2500   -1.3220 n2        1 267     -0.395000
     10 N2          4.8010    1.5430   -2.4410 n2        1 267      0.234000
     11 N3          5.3560    1.8270   -3.3960 n1        1 267     -0.148000
     12 H4         -1.0810    0.1980   -0.7660 ha        1 267      0.137000
     13 H5          2.8700    0.5370    0.9870 ha        1 267      0.169000
     14 H6          1.9150   -0.0650    3.2230 ha        1 267      0.146000
     15 H11        -0.5220   -0.5310    3.4560 ha        1 267      0.140000
     16 H81        -2.5570   -1.4660    2.0120 hc        1 267      0.088333
     17 H82        -2.9300   -0.4790    0.5370 hc        1 267      0.088333
     18 H83        -2.8750    0.3110    2.1680 hc        1 267      0.088333
     19 H131        3.3570    1.0630   -1.2740 hn        1 267      0.254000
     20 H132        0.8800    0.8060   -2.1510 ha        1 267      0.057000
@<TRIPOS>BOND
     1    1    2 1   
     2    1    6 1   
     3    1   12 1   
     4    2    3 1   
     5    2    8 1   
     6    3    4 1   
     7    3   13 1   
     8    4    5 1   
     9    4   14 1   
    10    5    6 1   
    11    5   15 1   
    12    6    7 1   
    13    7   16 1   
    14    7   17 1   
    15    7   18 1   
    16    8   20 1   
    17    9   10 1   
    18    9   19 1   
    19   10   11 1   
@<TRIPOS>SUBSTRUCTURE
     1 267         1 TEMP              0 ****  ****    0 ROOT
