@<TRIPOS>MOLECULE
268
   20    20     1     0     0
SMALL
bcc


@<TRIPOS>ATOM
      1 CAE        -0.1820    0.0490    0.0450 ca        1 268     -0.179500
      2 CAC         1.2020    0.0040   -0.0740 ca        1 268     -0.097000
      3 CAB         2.0100   -0.0760    1.0640 ca        1 268     -0.163000
      4 CAD         1.4270   -0.1110    2.3280 ca        1 268     -0.097000
      5 CAF         0.0400   -0.0680    2.4730 ca        1 268     -0.179500
      6 CAJ        -0.7600    0.0120    1.3280 ca        1 268      0.126100
      7 OAI        -2.1420    0.0620    1.3380 os        1 268     -0.343900
      8 CAH        -2.7630    0.0240    2.6270 c3        1 268      0.084400
      9 CAG        -4.2640    0.0790    2.3540 c3        1 268      0.130400
     10 OAA        -4.7310   -1.1170    1.7690 oh        1 268     -0.596800
     11 HAE        -0.8300    0.1120   -0.8400 ha        1 268      0.142000
     12 HAC         1.6630    0.0320   -1.0720 ha        1 268      0.133000
     13 HAB         3.1030   -0.1110    0.9590 ha        1 268      0.134000
     14 HAD         2.0620   -0.1740    3.2250 ha        1 268      0.133000
     15 HAF        -0.4040   -0.0970    3.4770 ha        1 268      0.142000
     16 HAH1       -2.4380    0.9090    3.2320 h1        1 268      0.051700
     17 HAH2       -2.4870   -0.9280    3.1500 h1        1 268      0.051700
     18 HAG1       -4.8180    0.1650    3.3270 h1        1 268      0.057200
     19 HAG2       -4.5030    0.9550    1.6950 h1        1 268      0.057200
     20 HAA        -4.2400   -1.2400    0.9460 ho        1 268      0.413000
@<TRIPOS>BOND
     1    1    2 ar  
     2    1    6 ar  
     3    1   11 1   
     4    2    3 ar  
     5    2   12 1   
     6    3    4 ar  
     7    3   13 1   
     8    4    5 ar  
     9    4   14 1   
    10    5    6 ar  
    11    5   15 1   
    12    6    7 1   
    13    7    8 1   
    14    8    9 1   
    15    8   16 1   
    16    8   17 1   
    17    9   10 1   
    18    9   18 1   
    19    9   19 1   
    20   10   20 1   
@<TRIPOS>SUBSTRUCTURE
     1 268         1 TEMP              0 ****  ****    0 ROOT
