@<TRIPOS>MOLECULE
268
   20    20     1     0     0
SMALL
bcc


@<TRIPOS>ATOM
      1 CAE        -0.1530   -0.0010    0.0590 ca        1 268     -0.179500
      2 CAC         1.2330   -0.0340   -0.0320 ca        1 268     -0.097000
      3 CAB         2.0200   -0.0610    1.1220 ca        1 268     -0.163000
      4 CAD         1.4150   -0.0550    2.3760 ca        1 268     -0.097000
      5 CAF         0.0250   -0.0220    2.4940 ca        1 268     -0.179500
      6 CAJ        -0.7550    0.0040    1.3320 ca        1 268      0.126100
      7 OAI        -2.1370    0.0380    1.3150 os        1 268     -0.343900
      8 CAH        -2.7810    0.0410    2.5930 c3        1 268      0.084400
      9 CAG        -4.2770    0.0670    2.2920 c3        1 268      0.130400
     10 OAA        -4.7190   -1.1560    1.7430 oh        1 268     -0.596800
     11 HAE        -0.7850    0.0210   -0.8390 ha        1 268      0.142000
     12 HAC         1.7120   -0.0380   -1.0230 ha        1 268      0.133000
     13 HAB         3.1160   -0.0860    1.0380 ha        1 268      0.134000
     14 HAD         2.0330   -0.0760    3.2860 ha        1 268      0.133000
     15 HAF        -0.4380   -0.0190    3.4900 ha        1 268      0.142000
     16 HAH1       -2.4780    0.9520    3.1710 h1        1 268      0.051700
     17 HAH2       -2.5050   -0.8880    3.1570 h1        1 268      0.051700
     18 HAG1       -4.8510    0.1820    3.2500 h1        1 268      0.057200
     19 HAG2       -4.5150    0.9150    1.5950 h1        1 268      0.057200
     20 HAA        -4.2120   -1.3020    0.9340 ho        1 268      0.413000
@<TRIPOS>BOND
     1    1    2 ar  
     2    1    6 ar  
     3    1   11 1   
     4    2    3 ar  
     5    2   12 1   
     6    3    4 ar  
     7    3   13 1   
     8    4    5 ar  
     9    4   14 1   
    10    5    6 ar  
    11    5   15 1   
    12    6    7 1   
    13    7    8 1   
    14    8    9 1   
    15    8   16 1   
    16    8   17 1   
    17    9   10 1   
    18    9   18 1   
    19    9   19 1   
    20   10   20 1   
@<TRIPOS>SUBSTRUCTURE
     1 268         1 TEMP              0 ****  ****    0 ROOT
