@<TRIPOS>MOLECULE
268
   20    20     1     0     0
SMALL
bcc


@<TRIPOS>ATOM
      1 CAE        -1.1900   -1.2650    0.1500 ca        1 268     -0.179500
      2 CAC        -2.5630   -1.1450   -0.0250 ca        1 268     -0.097000
      3 CAB        -3.1460    0.1090   -0.2290 ca        1 268     -0.163000
      4 CAD        -2.3480    1.2490   -0.2580 ca        1 268     -0.097000
      5 CAF        -0.9660    1.1550   -0.0850 ca        1 268     -0.179500
      6 CAJ        -0.3920   -0.1050    0.1190 ca        1 268      0.126100
      7 OAI         0.9590   -0.3310    0.3040 os        1 268     -0.343900
      8 CAH         1.8000    0.8270    0.2740 c3        1 268      0.084400
      9 CAG         3.2180    0.3030    0.4860 c3        1 268      0.130400
     10 OAA         3.6780   -0.4220   -0.6340 oh        1 268     -0.596800
     11 HAE        -0.7170   -2.2440    0.3120 ha        1 268      0.142000
     12 HAC        -3.1940   -2.0460   -0.0020 ha        1 268      0.133000
     13 HAB        -4.2330    0.1920   -0.3660 ha        1 268      0.134000
     14 HAD        -2.8050    2.2370   -0.4180 ha        1 268      0.133000
     15 HAF        -0.3500    2.0640   -0.1110 ha        1 268      0.142000
     16 HAH1        1.7080    1.3350   -0.7220 h1        1 268      0.051700
     17 HAH2        1.5110    1.5290    1.0970 h1        1 268      0.051700
     18 HAG1        3.9260    1.1680    0.5850 h1        1 268      0.057200
     19 HAG2        3.2580   -0.3360    1.4070 h1        1 268      0.057200
     20 HAA         3.0620   -1.1530   -0.7700 ho        1 268      0.413000
@<TRIPOS>BOND
     1    1    2 ar  
     2    1    6 ar  
     3    1   11 1   
     4    2    3 ar  
     5    2   12 1   
     6    3    4 ar  
     7    3   13 1   
     8    4    5 ar  
     9    4   14 1   
    10    5    6 ar  
    11    5   15 1   
    12    6    7 1   
    13    7    8 1   
    14    8    9 1   
    15    8   16 1   
    16    8   17 1   
    17    9   10 1   
    18    9   18 1   
    19    9   19 1   
    20   10   20 1   
@<TRIPOS>SUBSTRUCTURE
     1 268         1 TEMP              0 ****  ****    0 ROOT
