@<TRIPOS>MOLECULE
268
   20    17     1     0     0
SMALL
bcc


@<TRIPOS>ATOM
      1 CAE         1.1910   -0.4350   -1.2160 c1        1 268     -0.144500
      2 CAC         2.5720   -0.4230   -1.2300 c1        1 268     -0.071500
      3 CAB         3.2800   -0.4880   -0.0370 c1        1 268     -0.071500
      4 CAD         2.5980   -0.5660    1.1710 c1        1 268     -0.071500
      5 CAF         1.2150   -0.5780    1.1840 c1        1 268     -0.071500
      6 CAJ         0.5100   -0.5120   -0.0100 c1        1 268      0.110600
      7 OAI        -0.9170   -0.6300   -0.0050 os        1 268     -0.319400
      8 CAH        -1.5860    0.5960   -0.0060 c3        1 268      0.126400
      9 CAG        -3.0760    0.3590    0.0060 c3        1 268      0.126400
     10 OAA        -3.7630    1.6120   -0.2130 oh        1 268     -0.601800
     11 HAE         0.7010   -0.3890   -2.0430 ha        1 268      0.082500
     12 HAC         3.0600   -0.3660   -2.0950 ha        1 268      0.078750
     13 HAB         4.2430   -0.4800   -0.0470 ha        1 268      0.078750
     14 HAD         3.1040   -0.6140    2.0280 ha        1 268      0.078750
     15 HAF         0.7210   -0.6340    2.0550 ha        1 268      0.078750
     16 HAH1       -1.3330    1.1010    0.7760 h1        1 268      0.053700
     17 HAH2       -1.3470    1.0910   -0.7980 h1        1 268      0.053700
     18 HAG1       -3.3420   -0.0140    0.8740 h1        1 268      0.038700
     19 HAG2       -3.3120   -0.2730   -0.7080 h1        1 268      0.038700
     20 HAA        -4.5190    1.6450    0.3140 ho        1 268      0.407000
@<TRIPOS>BOND
     1    1    6 3   
     2    1   11 1   
     3    2    3 3   
     4    2   12 1   
     5    3   13 1   
     6    4    5 3   
     7    4   14 1   
     8    5   15 1   
     9    6    7 1   
    10    7    8 1   
    11    8    9 1   
    12    8   16 1   
    13    8   17 1   
    14    9   10 1   
    15    9   18 1   
    16    9   19 1   
    17   10   20 1   
@<TRIPOS>SUBSTRUCTURE
     1 268         1 TEMP              0 ****  ****    0 ROOT
