@<TRIPOS>MOLECULE
269
   22    19     1     0     0
SMALL
bcc


@<TRIPOS>ATOM
      1 CAF         1.1910    0.3570   -1.2550 c1        1 269     -0.060500
      2 CAD         2.5770    0.3570   -1.2550 c1        1 269     -0.067250
      3 CAC         3.2700    0.3570   -0.0550 c1        1 269     -0.067250
      4 CAE         2.5770    0.3570    1.1450 c1        1 269     -0.067250
      5 CAG         1.1910    0.3570    1.1450 c1        1 269     -0.067250
      6 CAJ         0.4980    0.3570   -0.0550 c1        1 269     -0.099100
      7 CAK        -1.0120    0.4180   -0.0550 c3        1 269      0.154200
      8 OAA        -1.4490    1.2440    0.9980 oh        1 269     -0.601800
      9 CAI        -1.5720   -0.9740    0.1310 c3        1 269     -0.083400
     10 CAH        -3.0540   -0.9660   -0.1710 c3        1 269      0.040000
     11 CLAB       -3.6880   -2.5840   -0.0190 cl        1 269     -0.201400
     12 HAF         0.7030    0.3570   -2.1010 ha        1 269      0.075500
     13 HAD         3.0650    0.3570   -2.1010 ha        1 269      0.079500
     14 HAC         4.2460    0.3570   -0.0550 ha        1 269      0.079500
     15 HAE         3.0650    0.3570    1.9910 ha        1 269      0.079500
     16 HAG         0.7030    0.3570    1.9910 ha        1 269      0.079500
     17 HAK        -1.3230    0.7830   -0.9050 h1        1 269      0.040700
     18 HAA        -1.7250    2.0210    0.6700 ho        1 269      0.408000
     19 HAI1       -1.1200   -1.5910   -0.4760 hc        1 269      0.068700
     20 HAI2       -1.4300   -1.2620    1.0530 hc        1 269      0.068700
     21 HAH1       -3.2000   -0.6440   -1.0810 h1        1 269      0.071200
     22 HAH2       -3.5120   -0.3770    0.4600 h1        1 269      0.071200
@<TRIPOS>BOND
     1    1    6 3   
     2    1   12 1   
     3    2    3 3   
     4    2   13 1   
     5    3   14 1   
     6    4    5 3   
     7    4   15 1   
     8    5   16 1   
     9    6    7 1   
    10    7    8 1   
    11    7    9 1   
    12    7   17 1   
    13    8   18 1   
    14    9   10 1   
    15    9   19 1   
    16    9   20 1   
    17   10   11 1   
    18   10   21 1   
    19   10   22 1   
@<TRIPOS>SUBSTRUCTURE
     1 269         1 TEMP              0 ****  ****    0 ROOT
