@<TRIPOS>MOLECULE
269
   22    22     1     0     0
SMALL
bcc


@<TRIPOS>ATOM
      1 CAF        -2.0340    0.5990   -1.1680 ca        1 269     -0.117500
      2 CAD        -3.3060    1.0060   -0.7660 ca        1 269     -0.127000
      3 CAC        -3.7830    0.6660    0.4990 ca        1 269     -0.123000
      4 CAE        -2.9830   -0.0810    1.3650 ca        1 269     -0.127000
      5 CAG        -1.7110   -0.4860    0.9660 ca        1 269     -0.117500
      6 CAJ        -1.2290   -0.1480   -0.3030 ca        1 269     -0.119300
      7 CAK         0.1410   -0.5790   -0.7430 c3        1 269      0.185400
      8 OAA         0.2890   -1.9910   -0.7260 oh        1 269     -0.590800
      9 CAI         1.2130    0.0910    0.1200 c3        1 269     -0.120400
     10 CAH         2.5880   -0.2310   -0.4130 c3        1 269      0.039000
     11 CLAB        3.8490    0.4060    0.6290 cl        1 269     -0.199400
     12 HAF        -1.6660    0.8640   -2.1710 ha        1 269      0.130500
     13 HAD        -3.9340    1.5940   -1.4520 ha        1 269      0.134500
     14 HAC        -4.7860    0.9870    0.8150 ha        1 269      0.134000
     15 HAE        -3.3570   -0.3510    2.3640 ha        1 269      0.134500
     16 HAG        -1.0830   -1.0710    1.6550 ha        1 269      0.130500
     17 HAK         0.3060   -0.3140   -1.8280 h1        1 269      0.080700
     18 HAA         0.0570   -2.3000    0.1580 ho        1 269      0.401000
     19 HAI1        1.0430    1.1990    0.1200 hc        1 269      0.063700
     20 HAI2        1.1150   -0.2670    1.1790 hc        1 269      0.063700
     21 HAH1        2.7390   -1.3360   -0.4720 h1        1 269      0.071700
     22 HAH2        2.7460    0.2240   -1.4200 h1        1 269      0.071700
@<TRIPOS>BOND
     1    1    2 ar  
     2    1    6 ar  
     3    1   12 1   
     4    2    3 ar  
     5    2   13 1   
     6    3    4 ar  
     7    3   14 1   
     8    4    5 ar  
     9    4   15 1   
    10    5    6 ar  
    11    5   16 1   
    12    6    7 1   
    13    7    8 1   
    14    7    9 1   
    15    7   17 1   
    16    8   18 1   
    17    9   10 1   
    18    9   19 1   
    19    9   20 1   
    20   10   11 1   
    21   10   21 1   
    22   10   22 1   
@<TRIPOS>SUBSTRUCTURE
     1 269         1 TEMP              0 ****  ****    0 ROOT
