@<TRIPOS>MOLECULE
269
   22    22     1     0     0
SMALL
bcc


@<TRIPOS>ATOM
      1 CAF        -0.0390   -0.0870    0.0060 ca        1 269     -0.117500
      2 CAD         1.3540   -0.0710   -0.0100 ca        1 269     -0.129500
      3 CAC         2.0670    0.0500    1.1830 ca        1 269     -0.123000
      4 CAE         1.3830    0.1530    2.3940 ca        1 269     -0.129500
      5 CAG        -0.0110    0.1350    2.4130 ca        1 269     -0.117500
      6 CAJ        -0.7290    0.0160    1.2190 ca        1 269     -0.133300
      7 CAK        -2.2290   -0.0100    1.2290 c3        1 269      0.188400
      8 OAA        -2.7730    0.7440    2.3070 oh        1 269     -0.601800
      9 CAI        -2.7440   -1.4420    1.3930 c3        1 269     -0.083400
     10 CAH        -4.2460   -1.4780    1.2460 c3        1 269      0.040000
     11 ClAB       -4.8680   -3.1120    1.4190 cl        1 269     -0.201400
     12 HAF        -0.5990   -0.1830   -0.9370 ha        1 269      0.139000
     13 HAD         1.8920   -0.1540   -0.9660 ha        1 269      0.134500
     14 HAC         3.1660    0.0630    1.1690 ha        1 269      0.134000
     15 HAE         1.9420    0.2460    3.3370 ha        1 269      0.134500
     16 HAG        -0.5580    0.2090    3.3670 ha        1 269      0.139000
     17 HAK        -2.6170    0.4240    0.2600 h1        1 269      0.040700
     18 HAA        -2.3440    1.6080    2.2910 ho        1 269      0.408000
     19 HAI1       -2.2550   -2.0860    0.6170 hc        1 269      0.068700
     20 HAI2       -2.4460   -1.8240    2.4040 hc        1 269      0.068700
     21 HAH1       -4.5650   -1.1220    0.2380 h1        1 269      0.071200
     22 HAH2       -4.7340   -0.8570    2.0370 h1        1 269      0.071200
@<TRIPOS>BOND
     1    1    2 ar  
     2    1    6 ar  
     3    1   12 1   
     4    2    3 ar  
     5    2   13 1   
     6    3    4 ar  
     7    3   14 1   
     8    4    5 ar  
     9    4   15 1   
    10    5    6 ar  
    11    5   16 1   
    12    6    7 1   
    13    7    8 1   
    14    7    9 1   
    15    7   17 1   
    16    8   18 1   
    17    9   10 1   
    18    9   19 1   
    19    9   20 1   
    20   10   11 1   
    21   10   21 1   
    22   10   22 1   
@<TRIPOS>SUBSTRUCTURE
     1 269         1 TEMP              0 ****  ****    0 ROOT
