@<TRIPOS>MOLECULE
269
   22    22     1     0     0
SMALL
bcc


@<TRIPOS>ATOM
      1 CAF        -0.0390   -0.0990    0.0040 ca        1 269     -0.117500
      2 CAD         1.3550   -0.0860   -0.0120 ca        1 269     -0.129500
      3 CAC         2.0680    0.0410    1.1810 ca        1 269     -0.123000
      4 CAE         1.3840    0.1530    2.3910 ca        1 269     -0.129500
      5 CAG        -0.0090    0.1390    2.4100 ca        1 269     -0.117500
      6 CAJ        -0.7280    0.0140    1.2170 ca        1 269     -0.133300
      7 CAK        -2.2280   -0.0080    1.2270 c3        1 269      0.188400
      8 OAA        -2.7700    0.7540    2.3010 oh        1 269     -0.601800
      9 CAI        -2.7470   -1.4370    1.3980 c3        1 269     -0.083400
     10 CAH        -4.2490   -1.4700    1.2520 c3        1 269      0.040000
     11 CLAB       -4.8750   -3.1020    1.4330 cl        1 269     -0.201400
     12 HAF        -0.5990   -0.1990   -0.9380 ha        1 269      0.139000
     13 HAD         1.8930   -0.1760   -0.9670 ha        1 269      0.134500
     14 HAC         3.1680    0.0510    1.1660 ha        1 269      0.134000
     15 HAE         1.9440    0.2510    3.3330 ha        1 269      0.134500
     16 HAG        -0.5560    0.2210    3.3630 ha        1 269      0.139000
     17 HAK        -2.6150    0.4220    0.2560 h1        1 269      0.040700
     18 HAA        -2.3390    1.6160    2.2800 ho        1 269      0.408000
     19 HAI1       -2.4500   -1.8150    2.4110 hc        1 269      0.068700
     20 HAI2       -2.2590   -2.0870    0.6260 hc        1 269      0.068700
     21 HAH1       -4.7350   -0.8450    2.0400 h1        1 269      0.071200
     22 HAH2       -4.5660   -1.1190    0.2420 h1        1 269      0.071200
@<TRIPOS>BOND
     1    1    2 ar  
     2    1    6 ar  
     3    1   12 1   
     4    2    3 ar  
     5    2   13 1   
     6    3    4 ar  
     7    3   14 1   
     8    4    5 ar  
     9    4   15 1   
    10    5    6 ar  
    11    5   16 1   
    12    6    7 1   
    13    7    8 1   
    14    7    9 1   
    15    7   17 1   
    16    8   18 1   
    17    9   10 1   
    18    9   19 1   
    19    9   20 1   
    20   10   11 1   
    21   10   21 1   
    22   10   22 1   
@<TRIPOS>SUBSTRUCTURE
     1 269         1 TEMP              0 ****  ****    0 ROOT
