@<TRIPOS>MOLECULE
26A
   38    40     1     0     0
SMALL
bcc


@<TRIPOS>ATOM
      1 C10         0.3660    0.2290    0.1220 c3        1 26A      0.207600
      2 N6          1.6570   -0.3820    0.3100 nh        1 26A     -0.766300
      3 C9          2.5570    0.2100    1.2630 c3        1 26A      0.207600
      4 C6          2.0960   -1.3490   -0.5770 ca        1 26A      0.760200
      5 C5          3.3720   -1.9990   -0.4370 ca        1 26A     -0.210200
      6 C4          3.6930   -3.0400   -1.4130 ca        1 26A      0.445800
      7 N3          2.8700   -3.4170   -2.4370 nb        1 26A     -0.767000
      8 C2          1.7110   -2.7190   -2.4470 ca        1 26A      0.688900
      9 N1          1.2790   -1.7370   -1.6190 nb        1 26A     -0.795000
     10 N7          4.4320   -1.8760    0.4750 nc        1 26A     -0.551100
     11 C8          5.3460   -2.7780    0.0930 cd        1 26A      0.420700
     12 N9          4.9630   -3.5130   -1.0530 na        1 26A     -0.294000
     13 C1'         5.6560   -4.6160   -1.6820 c3        1 26A      0.225800
     14 O4'         6.9610   -4.7560   -1.1170 os        1 26A     -0.395600
     15 C4'         7.9790   -4.4470   -2.0800 c3        1 26A      0.127100
     16 C5'         8.5520   -3.0540   -1.8120 c3        1 26A      0.110400
     17 O5'         9.5170   -3.2010   -0.7850 oh        1 26A     -0.590800
     18 C2'         5.8190   -4.4520   -3.2290 c3        1 26A      0.084100
     19 O2'         5.1790   -5.5130   -3.9010 oh        1 26A     -0.597800
     20 C3'         7.3400   -4.5430   -3.4810 c3        1 26A      0.130100
     21 O3'         7.7700   -5.7610   -4.0510 oh        1 26A     -0.586800
     22 H101        0.1220    0.8780    1.0030 h1        1 26A      0.049367
     23 H102       -0.4270   -0.5620    0.0330 h1        1 26A      0.049367
     24 H103        0.3500    0.8560   -0.8100 h1        1 26A      0.049367
     25 H91         3.4940    0.5730    0.7630 h1        1 26A      0.049367
     26 H92         2.0600    1.0860    1.7590 h1        1 26A      0.049367
     27 H93         2.8270   -0.5410    2.0540 h1        1 26A      0.049367
     28 H2          1.0000   -2.9840   -3.2600 h5        1 26A      0.050100
     29 H8          6.3090   -2.9760    0.5840 h5        1 26A      0.090800
     30 H1'         5.1070   -5.5760   -1.4380 h2        1 26A      0.105700
     31 H4'         8.7690   -5.2350   -1.9280 h1        1 26A      0.125700
     32 H5'1        9.0430   -2.6540   -2.7400 h1        1 26A      0.033700
     33 H5'2        7.7380   -2.3540   -1.4830 h1        1 26A      0.033700
     34 H5'         9.8540   -2.3170   -0.5970 ho        1 26A      0.404000
     35 H2'         5.4250   -3.4650   -3.5920 h1        1 26A      0.075700
     36 HO'2        4.2280   -5.3400   -3.8600 ho        1 26A      0.441000
     37 H3'         7.6680   -3.7000   -4.1500 h1        1 26A      0.057700
     38 HO'3        7.0880   -6.0630   -4.6680 ho        1 26A      0.432000
@<TRIPOS>BOND
     1    1    2 1   
     2    1   22 1   
     3    1   23 1   
     4    1   24 1   
     5    2    3 1   
     6    2    4 1   
     7    3   25 1   
     8    3   26 1   
     9    3   27 1   
    10    4    5 ar  
    11    4    9 ar  
    12    5    6 ar  
    13    5   10 1   
    14    6    7 ar  
    15    6   12 1   
    16    7    8 ar  
    17    8    9 ar  
    18    8   28 1   
    19   10   11 2   
    20   11   12 1   
    21   11   29 1   
    22   12   13 1   
    23   13   14 1   
    24   13   18 1   
    25   13   30 1   
    26   14   15 1   
    27   15   16 1   
    28   15   20 1   
    29   15   31 1   
    30   16   17 1   
    31   16   32 1   
    32   16   33 1   
    33   17   34 1   
    34   18   19 1   
    35   18   20 1   
    36   18   35 1   
    37   19   36 1   
    38   20   21 1   
    39   20   37 1   
    40   21   38 1   
@<TRIPOS>SUBSTRUCTURE
     1 26A         1 TEMP              0 ****  ****    0 ROOT
