@<TRIPOS>MOLECULE
26A
   39    41     1     0     0
SMALL
bcc


@<TRIPOS>ATOM
      1 C10         1.2740    0.8170   -0.2360 c3        1 26A      0.092100
      2 N6          1.9210   -0.2410    0.5870 n4        1 26A     -0.660100
      3 C9          1.0920   -0.5760    1.7770 c3        1 26A      0.092100
      4 C6          2.1970   -1.4540   -0.2250 ca        1 26A      0.531200
      5 C5          3.5280   -1.8850   -0.3740 ca        1 26A     -0.135200
      6 C4          3.7200   -3.1070   -1.1920 ca        1 26A      0.447800
      7 N3          2.6950   -3.7800   -1.7680 nb        1 26A     -0.618000
      8 C2          1.4750   -3.2320   -1.5280 ca        1 26A      0.662900
      9 N1          1.1640   -2.1220   -0.7990 nb        1 26A     -0.687000
     10 N7          4.7650   -1.4260    0.0890 nc        1 26A     -0.598100
     11 C8          5.6690   -2.2970   -0.4000 cd        1 26A      0.512700
     12 N9          5.1060   -3.3220   -1.1910 na        1 26A     -0.275000
     13 C1'         5.7760   -4.4900   -1.7520 c3        1 26A      0.215800
     14 O4'         7.1300   -4.5160   -1.3170 os        1 26A     -0.397600
     15 C4'         8.0370   -4.2270   -2.3970 c3        1 26A      0.083100
     16 C5'         8.6380   -2.8330   -2.2140 c3        1 26A      0.110400
     17 O5'         8.7720   -2.5000   -0.8490 oh        1 26A     -0.602800
     18 C2'         5.7760   -4.5390   -3.3160 c3        1 26A      0.088100
     19 O2'         5.2510   -5.7590   -3.7650 oh        1 26A     -0.564800
     20 C3'         7.2610   -4.3610   -3.7170 c3        1 26A      0.088100
     21 O3'         7.7350   -5.5270   -4.3600 oh        1 26A     -0.583800
     22 H101        1.9130    1.0270   -1.1350 hx        1 26A      0.107533
     23 H102        1.1740    1.7450    0.3880 hx        1 26A      0.107533
     24 H103        0.2580    0.4730   -0.5700 hx        1 26A      0.107533
     25 H91         1.5990   -1.3880    2.3630 hx        1 26A      0.107533
     26 H92         0.9870    0.3450    2.4110 hx        1 26A      0.107533
     27 H93         0.0770   -0.9280    1.4480 hx        1 26A      0.107533
     28 H2          0.6060   -3.7600   -1.9850 h5        1 26A      0.095100
     29 H8          6.7660   -2.2520   -0.2260 h5        1 26A      0.141800
     30 H1'         5.2820   -5.4130   -1.3170 h2        1 26A      0.123700
     31 H4'         8.8340   -5.0200   -2.3120 h1        1 26A      0.117700
     32 H5'1        9.6330   -2.7910   -2.7320 h1        1 26A      0.064700
     33 H5'2        7.9660   -2.0340   -2.6300 h1        1 26A      0.064700
     34 H5'         9.3040   -3.1880   -0.4280 ho        1 26A      0.423000
     35 H2'         5.1160   -3.7560   -3.7760 h1        1 26A      0.108700
     36 HO'2        5.8790   -6.4640   -3.5360 ho        1 26A      0.430000
     37 H3'         7.3980   -3.4630   -4.3750 h1        1 26A      0.074700
     38 HO'3        7.3130   -5.5660   -5.2300 ho        1 26A      0.431000
     39 H61         2.8350    0.1140    0.9160 hn        1 26A      0.477800
@<TRIPOS>BOND
     1    1    2 1   
     2    1   22 1   
     3    1   23 1   
     4    1   24 1   
     5    2    3 1   
     6    2    4 1   
     7    2   39 1   
     8    3   25 1   
     9    3   26 1   
    10    3   27 1   
    11    4    5 ar  
    12    4    9 ar  
    13    5    6 ar  
    14    5   10 1   
    15    6    7 ar  
    16    6   12 1   
    17    7    8 ar  
    18    8    9 ar  
    19    8   28 1   
    20   10   11 2   
    21   11   12 1   
    22   11   29 1   
    23   12   13 1   
    24   13   14 1   
    25   13   18 1   
    26   13   30 1   
    27   14   15 1   
    28   15   16 1   
    29   15   20 1   
    30   15   31 1   
    31   16   17 1   
    32   16   32 1   
    33   16   33 1   
    34   17   34 1   
    35   18   19 1   
    36   18   20 1   
    37   18   35 1   
    38   19   36 1   
    39   20   21 1   
    40   20   37 1   
    41   21   38 1   
@<TRIPOS>SUBSTRUCTURE
     1 26A         1 TEMP              0 ****  ****    0 ROOT
