@<TRIPOS>MOLECULE
26A
   38    40     1     0     0
SMALL
bcc


@<TRIPOS>ATOM
      1 C10         5.5680   -0.7720    0.4240 c3        1 26A      0.203600
      2 N6          4.2340   -0.8970   -0.1070 nh        1 26A     -0.762300
      3 C9          3.9210   -2.0870   -0.8520 c3        1 26A      0.203600
      4 C6          3.2170   -0.1020    0.4020 ca        1 26A      0.756200
      5 C5          1.8720   -0.1660   -0.1010 ca        1 26A     -0.218200
      6 C4          0.9040    0.7740    0.4650 ca        1 26A      0.471800
      7 N3          1.2010    1.6890    1.4310 nb        1 26A     -0.732000
      8 C2          2.4990    1.6310    1.8150 ca        1 26A      0.688900
      9 N1          3.4980    0.8210    1.3870 nb        1 26A     -0.790000
     10 N7          1.2390   -0.9550   -1.0760 nc        1 26A     -0.532100
     11 C8         -0.0300   -0.5350   -1.1110 cd        1 26A      0.392700
     12 N9         -0.3030    0.5350   -0.2190 na        1 26A     -0.288000
     13 C1'        -1.5760    1.1240    0.1060 c3        1 26A      0.252800
     14 O4'        -2.3180    0.3010    1.0220 os        1 26A     -0.416600
     15 C4'        -3.4330   -0.3300    0.3820 c3        1 26A      0.054100
     16 C5'        -3.1480   -1.8220    0.2170 c3        1 26A      0.121400
     17 O5'        -2.9880   -2.4500    1.4690 oh        1 26A     -0.588800
     18 C2'        -2.4890    1.3490   -1.1400 c3        1 26A      0.076100
     19 O2'        -2.9190    2.6940   -1.0660 oh        1 26A     -0.585800
     20 C3'        -3.6790    0.3770   -0.9610 c3        1 26A      0.086100
     21 O3'        -4.9030    1.0750   -0.9900 oh        1 26A     -0.584800
     22 H101        5.8840    0.3050    0.4230 h1        1 26A      0.049200
     23 H102        5.6270   -1.1630    1.4750 h1        1 26A      0.049200
     24 H103        6.2800   -1.3510   -0.2230 h1        1 26A      0.049200
     25 H91         4.8350   -2.7340   -0.9340 h1        1 26A      0.049200
     26 H92         3.1110   -2.6840   -0.3520 h1        1 26A      0.049200
     27 H93         3.5870   -1.8090   -1.8880 h1        1 26A      0.049200
     28 H2          2.7930    2.3540    2.6070 h5        1 26A      0.054100
     29 H8         -0.8070   -0.9360   -1.7720 h5        1 26A      0.066800
     30 H1'        -1.3920    2.0950    0.6630 h2        1 26A      0.145700
     31 H4'        -4.2960   -0.1840    1.0900 h1        1 26A      0.099700
     32 H5'1       -4.0280   -2.3340   -0.2580 h1        1 26A      0.050700
     33 H5'2       -2.2300   -1.9740   -0.4120 h1        1 26A      0.050700
     34 H5'        -2.2940   -1.9710    1.9420 ho        1 26A      0.417000
     35 H2'        -1.9570    1.1690   -2.1110 h1        1 26A      0.069700
     36 HO'2       -3.5380    2.8280   -1.7980 ho        1 26A      0.425000
     37 H3'        -3.7490   -0.3540   -1.8110 h1        1 26A      0.095700
     38 HO'3       -4.9020    1.7020   -0.2520 ho        1 26A      0.421000
@<TRIPOS>BOND
     1    1    2 1   
     2    1   22 1   
     3    1   23 1   
     4    1   24 1   
     5    2    3 1   
     6    2    4 1   
     7    3   25 1   
     8    3   26 1   
     9    3   27 1   
    10    4    5 ar  
    11    4    9 ar  
    12    5    6 ar  
    13    5   10 1   
    14    6    7 ar  
    15    6   12 1   
    16    7    8 ar  
    17    8    9 ar  
    18    8   28 1   
    19   10   11 2   
    20   11   12 1   
    21   11   29 1   
    22   12   13 1   
    23   13   14 1   
    24   13   18 1   
    25   13   30 1   
    26   14   15 1   
    27   15   16 1   
    28   15   20 1   
    29   15   31 1   
    30   16   17 1   
    31   16   32 1   
    32   16   33 1   
    33   17   34 1   
    34   18   19 1   
    35   18   20 1   
    36   18   35 1   
    37   19   36 1   
    38   20   21 1   
    39   20   37 1   
    40   21   38 1   
@<TRIPOS>SUBSTRUCTURE
     1 26A         1 TEMP              0 ****  ****    0 ROOT
