@<TRIPOS>MOLECULE
26A
   38    34     1     0     0
SMALL
bcc


@<TRIPOS>ATOM
      1 C10        -4.6290   -0.3370    3.1090 c3        1 26A     -0.072500
      2 N6         -3.2660   -0.8130    3.0300 n3        1 26A     -0.253000
      3 C9         -2.6300   -1.3690    4.1960 c3        1 26A     -0.072500
      4 C6         -2.5890   -0.8200    1.7820 c2        1 26A      0.235000
      5 C5         -1.4350   -0.2050    1.2410 c1        1 26A     -0.227000
      6 C4         -0.9930   -0.5670    0.0290 c1        1 26A      0.080000
      7 N3         -1.6640   -1.5390   -0.6890 n1        1 26A     -0.206000
      8 C2         -2.7840   -2.1340   -0.1620 c1        1 26A      0.026000
      9 N1         -3.2390   -1.7650    1.0800 n1        1 26A     -0.264000
     10 N7         -0.6260    0.7890    1.7020 n1        1 26A     -0.155000
     11 C8          0.3220    1.0330    0.7530 c1        1 26A     -0.063000
     12 N9          0.1020    0.2060   -0.2740 n1        1 26A     -0.155000
     13 C1'         1.0060   -0.0170   -1.3690 c2        1 26A      0.161000
     14 O4'         2.5140   -0.0390   -0.8360 os        1 26A     -0.273000
     15 C4'         3.2600    0.2620   -1.8510 c3        1 26A     -0.057000
     16 C5'         4.4870    1.0780   -1.3920 c3        1 26A     -0.029000
     17 O5'         5.4730    0.1900   -0.8240 oh        1 26A     -0.316000
     18 C2'         0.9330    0.9520   -2.2040 c3        1 26A     -0.035000
     19 O2'        -0.0070    0.6040   -3.3080 oh        1 26A     -0.313000
     20 C3'         2.3770    1.1110   -2.7590 c3        1 26A     -0.025000
     21 O3'         2.4460    0.6650   -4.0330 oh        1 26A     -0.312000
     22 H101       -4.7600    0.3870    2.4580 h1        1 26A      0.088500
     23 H102       -4.8080   -0.0020    4.0120 h1        1 26A      0.088500
     24 H103       -5.2330   -1.0620    2.9100 h1        1 26A      0.088500
     25 H91        -2.1310   -2.1880    3.9420 h1        1 26A      0.088500
     26 H92        -2.0010   -0.7040    4.5770 h1        1 26A      0.088500
     27 H93        -3.3110   -1.5950    4.8620 h1        1 26A      0.088500
     28 H2         -3.2640   -2.8340   -0.6810 ha        1 26A      0.191000
     29 H8          1.0250    1.7500    0.7920 DU        1 26A      0.196000
     30 H1'         0.7940   -0.8600   -1.8140 h4        1 26A      0.185000
     31 H4'         3.5440   -0.5510   -2.3150 h1        1 26A      0.139000
     32 H5'1        4.2140    1.7180   -0.7320 h1        1 26A      0.090000
     33 H5'2        4.8760    1.5500   -2.1670 h1        1 26A      0.090000
     34 H5'         6.0450    0.6660   -0.3020 ho        1 26A      0.216000
     35 H2'         0.6510    1.7570   -1.7630 h1        1 26A      0.109000
     36 HO'2       -0.2390    1.3500   -3.7500 ho        1 26A      0.224000
     37 H3'         2.6600    2.0650   -2.7130 h1        1 26A      0.135000
     38 HO'3        2.8820    1.2670   -4.5370 ho        1 26A      0.220000
@<TRIPOS>BOND
     1    1    2 1   
     2    1   22 1   
     3    1   23 1   
     4    1   24 1   
     5    2    3 1   
     6    2    4 1   
     7    3   25 1   
     8    3   26 1   
     9    3   27 1   
    10    4    5 1   
    11    4    9 1   
    12    5    6 1   
    13    7    8 1   
    14    8   28 1   
    15   10   11 1   
    16   11   12 1   
    17   13   14 1   
    18   13   18 1   
    19   13   30 1   
    20   14   15 1   
    21   15   16 1   
    22   15   20 1   
    23   15   31 1   
    24   16   17 1   
    25   16   32 1   
    26   16   33 1   
    27   17   34 1   
    28   18   19 1   
    29   18   20 1   
    30   18   35 1   
    31   19   36 1   
    32   20   21 1   
    33   20   37 1   
    34   21   38 1   
@<TRIPOS>SUBSTRUCTURE
     1 26A         1 TEMP              0 ****  ****    0 ROOT
