@<TRIPOS>MOLECULE
26A
   38    40     1     0     0
SMALL
bcc


@<TRIPOS>ATOM
      1 C10         0.3460    0.1800    0.1600 c3        1 26A      0.207600
      2 N6          1.6340   -0.4380    0.3460 nh        1 26A     -0.766300
      3 C9          2.5210    0.1200    1.3300 c3        1 26A      0.207600
      4 C6          2.0860   -1.3740   -0.5670 ca        1 26A      0.760200
      5 C5          3.3590   -2.0300   -0.4330 ca        1 26A     -0.210200
      6 C4          3.6930   -3.0370   -1.4380 ca        1 26A      0.445800
      7 N3          2.8850   -3.3790   -2.4860 nb        1 26A     -0.767000
      8 C2          1.7260   -2.6790   -2.4890 ca        1 26A      0.688900
      9 N1          1.2830   -1.7260   -1.6330 nb        1 26A     -0.795000
     10 N7          4.4070   -1.9390    0.4980 nc        1 26A     -0.551100
     11 C8          5.3260   -2.8280    0.0980 cd        1 26A      0.420700
     12 N9          4.9580   -3.5230   -1.0780 na        1 26A     -0.294000
     13 C1'         5.6600   -4.6050   -1.7330 c3        1 26A      0.225800
     14 O4'         6.9570   -4.7660   -1.1550 os        1 26A     -0.395600
     15 C4'         7.9880   -4.4250   -2.0940 c3        1 26A      0.127100
     16 C5'         8.5580   -3.0430   -1.7710 c3        1 26A      0.110400
     17 O5'         9.5100   -3.2250   -0.7370 oh        1 26A     -0.590800
     18 C2'         5.8440   -4.3890   -3.2720 c3        1 26A      0.084100
     19 O2'         5.2130   -5.4260   -3.9880 oh        1 26A     -0.597800
     20 C3'         7.3690   -4.4720   -3.5060 c3        1 26A      0.130100
     21 O3'         7.8050   -5.6710   -4.1110 oh        1 26A     -0.586800
     22 H101        0.3440    0.8390   -0.7500 h1        1 26A      0.049367
     23 H102        0.0910    0.7990    1.0600 h1        1 26A      0.049367
     24 H103       -0.4450   -0.6070    0.0330 h1        1 26A      0.049367
     25 H91         3.4660    0.5000    0.8560 h1        1 26A      0.049367
     26 H92         2.7800   -0.6570    2.0990 h1        1 26A      0.049367
     27 H93         2.0180    0.9790    1.8490 h1        1 26A      0.049367
     28 H2          1.0270   -2.9160   -3.3200 h5        1 26A      0.050100
     29 H8          6.2820   -3.0430    0.5960 h5        1 26A      0.090800
     30 H1'         5.1070   -5.5720   -1.5290 h2        1 26A      0.105700
     31 H4'         8.7750   -5.2180   -1.9580 h1        1 26A      0.125700
     32 H5'1        7.7400   -2.3530   -1.4280 h1        1 26A      0.033700
     33 H5'2        9.0610   -2.6100   -2.6780 h1        1 26A      0.033700
     34 H5'         9.8450   -2.3480   -0.5140 ho        1 26A      0.404000
     35 H2'         5.4550   -3.3900   -3.6070 h1        1 26A      0.075700
     36 HO'2        4.2610   -5.2530   -3.9540 ho        1 26A      0.441000
     37 H3'         7.7050   -3.6080   -4.1410 h1        1 26A      0.057700
     38 HO'3        7.1320   -5.9520   -4.7460 ho        1 26A      0.432000
@<TRIPOS>BOND
     1    1    2 1   
     2    1   22 1   
     3    1   23 1   
     4    1   24 1   
     5    2    3 1   
     6    2    4 1   
     7    3   25 1   
     8    3   26 1   
     9    3   27 1   
    10    4    5 ar  
    11    4    9 ar  
    12    5    6 ar  
    13    5   10 1   
    14    6    7 ar  
    15    6   12 1   
    16    7    8 ar  
    17    8    9 ar  
    18    8   28 1   
    19   10   11 2   
    20   11   12 1   
    21   11   29 1   
    22   12   13 1   
    23   13   14 1   
    24   13   18 1   
    25   13   30 1   
    26   14   15 1   
    27   15   16 1   
    28   15   20 1   
    29   15   31 1   
    30   16   17 1   
    31   16   32 1   
    32   16   33 1   
    33   17   34 1   
    34   18   19 1   
    35   18   20 1   
    36   18   35 1   
    37   19   36 1   
    38   20   21 1   
    39   20   37 1   
    40   21   38 1   
@<TRIPOS>SUBSTRUCTURE
     1 26A         1 TEMP              0 ****  ****    0 ROOT
