@<TRIPOS>MOLECULE
26B
   71    67     1     0     0
SMALL
bcc


@<TRIPOS>ATOM
      1 N           1.0800    2.5850   -0.5900 n         1 26B     -0.298000
      2 CA          2.5240    2.6610   -0.4530 c3        1 26B     -0.082000
      3 C           2.8660    3.4530    0.7620 c2        1 26B      0.331000
      4 O           2.0050    4.1990    1.2860 o         1 26B     -0.556000
      5 OXT         3.9940    3.3170    1.3040 o         1 26B     -0.556000
      6 C1          2.7100    4.7900   -1.7000 c3        1 26B     -0.235000
      7 C2          3.1160    3.3310   -1.6750 c3        1 26B      0.030000
      8 O3          4.5270    3.2350   -1.6290 os        1 26B     -0.283000
      9 C4          5.1440    3.0650   -2.9210 c3        1 26B      0.085000
     10 C5          5.0210    4.3460   -3.7110 c3        1 26B     -0.223667
     11 C6          6.6180    2.7200   -2.7370 c3        1 26B     -0.223667
     12 C7          4.4490    1.9400   -3.6720 c3        1 26B     -0.223667
     13 C8          0.3150    1.6470    0.2340 c2        1 26B      0.333000
     14 O9          0.8770    0.9890    1.0820 o         1 26B     -0.449000
     15 C10        -1.2000    1.4650   -0.0060 c2        1 26B     -0.131000
     16 C11        -1.9290    2.6350   -0.1870 c2        1 26B     -0.081000
     17 C12        -3.3470    2.6050   -0.1230 c1        1 26B     -0.052000
     18 C13        -4.0930    3.7960   -0.3150 c1        1 26B     -0.124500
     19 C14        -5.4810    3.7620   -0.2590 c1        1 26B     -0.124500
     20 C15        -6.1430    2.5570   -0.0150 c1        1 26B     -0.124500
     21 C16        -5.4130    1.3880    0.1740 c1        1 26B     -0.124500
     22 C17        -3.9990    1.4190    0.1180 c1        1 26B     -0.021000
     23 C18        -3.2570    0.2300    0.3020 c1        1 26B     -0.116000
     24 C19        -1.8630    0.2600    0.2390 c1        1 26B      0.055000
     25 N20        -1.0510   -0.9440    0.3600 n         1 26B     -0.269000
     26 C21        -1.5900   -2.1200    1.0330 c2        1 26B      0.372000
     27 O22        -2.7150   -2.0950    1.4920 o         1 26B     -0.366000
     28 N23        -0.7880   -3.3180    1.1480 n         1 26B     -0.313000
     29 C24        -1.3310   -4.5000    1.8170 c2        1 26B      0.048000
     30 C25        -2.0320   -5.4520    1.0860 c2        1 26B     -0.043000
     31 C26        -2.2290   -5.2680   -0.4000 c3        1 26B     -0.184000
     32 C27        -2.5130   -6.5990    1.7170 c1        1 26B     -0.137000
     33 C28        -2.2910   -6.7900    3.0770 c1        1 26B     -0.082000
     34 C29        -2.8990   -8.0100    3.7890 c3        1 26B     -0.170000
     35 C30        -1.5900   -5.8380    3.8060 c1        1 26B     -0.132000
     36 C31        -1.1090   -4.6910    3.1750 c1        1 26B     -0.074000
     37 C32        -0.2750   -3.7010    3.9480 c3        1 26B     -0.193000
     38 HN          0.6560    3.0860   -1.2220 hn        1 26B      0.246000
     39 HA          2.8890    1.7610   -0.3670 h1        1 26B      0.120000
     40 H1          2.4950    5.0550   -2.6260 hc        1 26B      0.085000
     41 H1A         1.9200    4.9210   -1.1290 hc        1 26B      0.085000
     42 H1B         3.4520    5.3430   -1.3650 hc        1 26B      0.085000
     43 H2          2.7890    2.8910   -2.4740 h1        1 26B      0.090000
     44 H5          5.6430    4.3220   -4.4740 hc        1 26B      0.077111
     45 H5A         5.2410    5.1100   -3.1330 hc        1 26B      0.077111
     46 H5B         4.1090    4.4390   -4.0380 hc        1 26B      0.077111
     47 H6          7.0890    3.4910   -2.3480 hc        1 26B      0.077111
     48 H6A         7.0150    2.4990   -3.6080 hc        1 26B      0.077111
     49 H6B         6.7010    1.9530   -2.1380 hc        1 26B      0.077111
     50 H7          3.5510    2.2260   -3.9280 hc        1 26B      0.077111
     51 H7A         4.3870    1.1490   -3.0940 hc        1 26B      0.077111
     52 H7B         4.9660    1.7170   -4.4810 hc        1 26B      0.077111
     53 H11        -1.7360    3.5880   -0.0350 ha        1 26B      0.158000
     54 H13        -3.6300    4.6410   -0.4860 ha        1 26B      0.129500
     55 H14        -5.9970    4.5870   -0.3910 ha        1 26B      0.129500
     56 H15        -7.1190    2.5480    0.0970 ha        1 26B      0.129500
     57 H16        -5.8790    0.5410    0.3460 ha        1 26B      0.129500
     58 H18        -3.9210   -0.4770    0.4570 ha        1 26B      0.159000
     59 HN20       -0.1860   -0.9370    0.0810 hn        1 26B      0.215000
     60 HN23        0.0690   -3.3260    0.8310 hn        1 26B      0.253000
     61 H26        -2.7680   -4.4670   -0.5600 hc        1 26B      0.088667
     62 H26A       -2.6890   -6.0500   -0.7670 hc        1 26B      0.088667
     63 H26B       -1.3540   -5.1660   -0.8360 hc        1 26B      0.088667
     64 H27        -3.0070   -7.2700    1.2020 ha        1 26B      0.123000
     65 H29        -3.3990   -8.5510    3.1420 hc        1 26B      0.076000
     66 H29A       -3.5080   -7.7050    4.5030 hc        1 26B      0.076000
     67 H29B       -2.1790   -8.5520    4.1830 hc        1 26B      0.076000
     68 H30        -1.4310   -5.9730    4.7600 ha        1 26B      0.127000
     69 H32         0.5940   -3.5860    3.5020 hc        1 26B      0.096667
     70 H32A       -0.7380   -2.8430    3.9830 hc        1 26B      0.096667
     71 H32B       -0.1340   -4.0320    4.8570 hc        1 26B      0.096667
@<TRIPOS>BOND
     1    1    2 1   
     2    1   13 1   
     3    1   38 1   
     4    2    3 1   
     5    2    7 1   
     6    2   39 1   
     7    3    4 1   
     8    3    5 1   
     9    6    7 1   
    10    6   40 1   
    11    6   41 1   
    12    6   42 1   
    13    7    8 1   
    14    7   43 1   
    15    8    9 1   
    16    9   10 1   
    17    9   11 1   
    18    9   12 1   
    19   10   44 1   
    20   10   45 1   
    21   10   46 1   
    22   11   47 1   
    23   11   48 1   
    24   11   49 1   
    25   12   50 1   
    26   12   51 1   
    27   12   52 1   
    28   13   14 1   
    29   13   15 1   
    30   15   16 1   
    31   15   24 1   
    32   16   17 1   
    33   16   53 1   
    34   17   22 1   
    35   18   19 1   
    36   18   54 1   
    37   19   55 1   
    38   20   21 1   
    39   20   56 1   
    40   21   57 1   
    41   22   23 1   
    42   23   58 1   
    43   24   25 1   
    44   25   26 1   
    45   25   59 1   
    46   26   27 1   
    47   26   28 1   
    48   28   29 1   
    49   28   60 1   
    50   29   30 1   
    51   29   36 1   
    52   30   31 1   
    53   30   32 1   
    54   31   61 1   
    55   31   62 1   
    56   31   63 1   
    57   32   64 1   
    58   33   34 1   
    59   33   35 1   
    60   34   65 1   
    61   34   66 1   
    62   34   67 1   
    63   35   68 1   
    64   36   37 1   
    65   37   69 1   
    66   37   70 1   
    67   37   71 1   
@<TRIPOS>SUBSTRUCTURE
     1 26B         1 TEMP              0 ****  ****    0 ROOT
