@<TRIPOS>MOLECULE
26B
   71    73     1     0     0
SMALL
bcc


@<TRIPOS>ATOM
      1 N           2.4580   -0.5710    0.2260 n         1 26B     -0.482900
      2 CA          3.1700   -1.8010   -0.0150 c3        1 26B     -0.053300
      3 C           3.6800   -2.4510    1.3270 c         1 26B      0.916600
      4 O           3.6260   -1.7800    2.3930 o         1 26B     -0.826800
      5 OXT         4.1300   -3.6240    1.2220 o         1 26B     -0.826800
      6 C2          4.3810   -1.6770   -0.9750 c3        1 26B      0.134100
      7 O3          5.1170   -0.4770   -0.7170 os        1 26B     -0.428600
      8 C4          6.4780   -0.6450   -0.2950 c3        1 26B      0.159800
      9 C5          7.3050   -1.3030   -1.3940 c3        1 26B     -0.112767
     10 C6          6.9690    0.7860   -0.0700 c3        1 26B     -0.112767
     11 C7          6.5760   -1.4340    1.0010 c3        1 26B     -0.112767
     12 C8          1.4450   -0.0950   -0.5420 c         1 26B      0.654700
     13 O9          1.0060   -0.7040   -1.5550 o         1 26B     -0.687100
     14 C10         0.8420    1.2200   -0.1310 ca        1 26B     -0.148600
     15 C11         1.6760    2.2750    0.1540 ca        1 26B     -0.072000
     16 C12         1.1640    3.5430    0.5340 ca        1 26B     -0.067000
     17 C13         2.0190    4.6380    0.8330 ca        1 26B     -0.099000
     18 C14         1.4920    5.8500    1.2060 ca        1 26B     -0.151000
     19 C15         0.0890    6.0200    1.2970 ca        1 26B     -0.129000
     20 C16        -0.7580    4.9780    1.0140 ca        1 26B     -0.124000
     21 C17        -0.2390    3.7110    0.6230 ca        1 26B     -0.005000
     22 C18        -1.0990    2.6280    0.3180 ca        1 26B     -0.170000
     23 C19        -0.5910    1.3900   -0.0640 ca        1 26B      0.114600
     24 N20        -1.4150    0.3180   -0.4390 n         1 26B     -0.468100
     25 C21        -2.7190    0.1080    0.0380 c         1 26B      0.767100
     26 O22        -3.3660    0.9900    0.6480 o         1 26B     -0.629100
     27 N23        -3.2780   -1.1780   -0.1900 n         1 26B     -0.459100
     28 C24        -4.6780   -1.3780   -0.1100 ca        1 26B      0.040600
     29 C25        -5.4320   -1.6110   -1.2890 ca        1 26B     -0.063800
     30 C26        -4.7870   -1.5830   -2.6240 c3        1 26B     -0.061300
     31 C27        -6.7990   -1.8770   -1.1960 ca        1 26B     -0.133500
     32 C28        -7.4440   -1.9110    0.0420 ca        1 26B     -0.082300
     33 C29        -8.8940   -2.2000    0.1250 c3        1 26B     -0.047800
     34 C30        -6.7000   -1.6840    1.2010 ca        1 26B     -0.133500
     35 C31        -5.3280   -1.4260    1.1480 ca        1 26B     -0.063800
     36 C32        -4.5810   -1.2100    2.4090 c3        1 26B     -0.061300
     37 HN          2.7250   -0.0960    1.0640 hn        1 26B      0.341500
     38 HA          2.4600   -2.5370   -0.4940 h1        1 26B      0.067700
     39 H2          5.0110   -2.5950   -0.8010 h1        1 26B      0.075700
     40 H5          7.1640   -0.7560   -2.3570 hc        1 26B      0.041589
     41 H5A         8.3850   -1.2830   -1.1160 hc        1 26B      0.041589
     42 H5B         6.9930   -2.3640   -1.5390 hc        1 26B      0.041589
     43 H6          6.3660    1.2680    0.7350 hc        1 26B      0.041589
     44 H6A         8.0420    0.7670    0.2330 hc        1 26B      0.041589
     45 H6B         6.8600    1.3810   -1.0070 hc        1 26B      0.041589
     46 H7          6.3140   -2.5100    0.8430 hc        1 26B      0.041589
     47 H7A         7.6110   -1.3650    1.4090 hc        1 26B      0.041589
     48 H7B         5.8460   -1.0310    1.7500 hc        1 26B      0.041589
     49 H11         2.7710    2.1520    0.0910 ha        1 26B      0.155000
     50 H13         3.1070    4.4900    0.7630 ha        1 26B      0.133000
     51 H14         2.1490    6.6990    1.4400 ha        1 26B      0.123000
     52 H15        -0.3090    6.9990    1.6000 ha        1 26B      0.121000
     53 H16        -1.8490    5.0990    1.0850 ha        1 26B      0.131000
     54 H18        -2.1870    2.7940    0.3980 ha        1 26B      0.169000
     55 HN20       -0.9360   -0.4500   -0.8760 hn        1 26B      0.354500
     56 HN23       -2.8370   -1.7460   -0.8840 hn        1 26B      0.306500
     57 H26        -4.0520   -2.4220   -2.7230 hc        1 26B      0.050867
     58 H26A       -5.5440   -1.6910   -3.4390 hc        1 26B      0.050867
     59 H26B       -4.2440   -0.6180   -2.7820 hc        1 26B      0.050867
     60 H27        -7.3780   -2.0570   -2.1150 ha        1 26B      0.127500
     61 H29        -9.0570   -3.3020    0.2410 hc        1 26B      0.039033
     62 H29A       -9.3540   -1.6840    1.0030 hc        1 26B      0.039033
     63 H29B       -9.4230   -1.8640   -0.8000 hc        1 26B      0.039033
     64 H30        -7.2020   -1.7100    2.1800 ha        1 26B      0.127500
     65 H32        -4.1650   -0.1680    2.4340 hc        1 26B      0.050867
     66 H32A       -5.2420   -1.3510    3.2990 hc        1 26B      0.050867
     67 H32B       -3.7260   -1.9270    2.4860 hc        1 26B      0.050867
     68 C1          3.9390   -1.6280   -2.4280 c3        1 26B     -0.106100
     69 H1          3.4400   -2.5890   -2.6980 hc        1 26B      0.034033
     70 H1A         3.2160   -0.7930   -2.5900 hc        1 26B      0.034033
     71 H1B         4.8250   -1.4740   -3.0900 hc        1 26B      0.034033
@<TRIPOS>BOND
     1    1    2 1   
     2    1   12 1   
     3    1   37 1   
     4    2    3 1   
     5    2    6 1   
     6    2   38 1   
     7    3    4 1   
     8    3    5 1   
     9    6    7 1   
    10    6   39 1   
    11    6   68 1   
    12    7    8 1   
    13    8    9 1   
    14    8   10 1   
    15    8   11 1   
    16    9   40 1   
    17    9   41 1   
    18    9   42 1   
    19   10   43 1   
    20   10   44 1   
    21   10   45 1   
    22   11   46 1   
    23   11   47 1   
    24   11   48 1   
    25   12   13 2   
    26   12   14 1   
    27   14   15 ar  
    28   14   23 ar  
    29   15   16 ar  
    30   15   49 1   
    31   16   17 ar  
    32   16   21 ar  
    33   17   18 ar  
    34   17   50 1   
    35   18   19 ar  
    36   18   51 1   
    37   19   20 ar  
    38   19   52 1   
    39   20   21 ar  
    40   20   53 1   
    41   21   22 ar  
    42   22   23 ar  
    43   22   54 1   
    44   23   24 1   
    45   24   25 1   
    46   24   55 1   
    47   25   26 2   
    48   25   27 1   
    49   27   28 1   
    50   27   56 1   
    51   28   29 ar  
    52   28   35 ar  
    53   29   30 1   
    54   29   31 ar  
    55   30   57 1   
    56   30   58 1   
    57   30   59 1   
    58   31   32 ar  
    59   31   60 1   
    60   32   33 1   
    61   32   34 ar  
    62   33   61 1   
    63   33   62 1   
    64   33   63 1   
    65   34   35 ar  
    66   34   64 1   
    67   35   36 1   
    68   36   65 1   
    69   36   66 1   
    70   36   67 1   
    71   68   69 1   
    72   68   70 1   
    73   68   71 1   
@<TRIPOS>SUBSTRUCTURE
     1 26B         1 TEMP              0 ****  ****    0 ROOT
