@<TRIPOS>MOLECULE
26C
   24    25     1     0     0
SMALL
bcc


@<TRIPOS>ATOM
      1 O17         4.7420   -0.8140    0.8220 o         1 26C     -0.827300
      2 C15         4.1610   -0.0240    0.0270 c         1 26C      0.906200
      3 O16         4.7580    0.7610   -0.7620 o         1 26C     -0.827300
      4 C6          2.6380   -0.0170    0.0190 ca        1 26C     -0.102600
      5 C1          1.9200   -0.8810    0.8520 ca        1 26C     -0.116000
      6 C5          1.9360    0.8550   -0.8200 ca        1 26C     -0.116000
      7 C4          0.5450    0.8670   -0.8270 ca        1 26C     -0.125000
      8 C3         -0.1760   -0.0040    0.0050 cp        1 26C     -0.103000
      9 C2          0.5280   -0.8810    0.8440 ca        1 26C     -0.125000
     10 C7         -1.6350    0.0030   -0.0020 cp        1 26C     -0.047000
     11 C12        -2.3810   -1.1980   -0.0890 ca        1 26C      0.144900
     12 F2         -1.7540   -2.3950   -0.1770 f         1 26C     -0.130900
     13 C11        -3.7890   -1.1890   -0.0950 ca        1 26C     -0.192000
     14 C10        -4.4750    0.0160   -0.0160 ca        1 26C     -0.104000
     15 C9         -3.7790    1.2160    0.0700 ca        1 26C     -0.192000
     16 C8         -2.3700    1.2110    0.0780 ca        1 26C      0.144900
     17 F1         -1.7330    2.4030    0.1720 f         1 26C     -0.130900
     18 H1          2.4850   -1.5610    1.5100 ha        1 26C      0.155000
     19 H5          2.5150    1.5290   -1.4730 ha        1 26C      0.155000
     20 H4          0.0010    1.5640   -1.4810 ha        1 26C      0.113000
     21 H2         -0.0290   -1.5730    1.4930 ha        1 26C      0.113000
     22 H11        -4.3300   -2.1430   -0.1660 ha        1 26C      0.140000
     23 H10        -5.5740    0.0220   -0.0220 ha        1 26C      0.128000
     24 H9         -4.3120    2.1740    0.1350 ha        1 26C      0.140000
@<TRIPOS>BOND
     1    1    2 1   
     2    2    3 1   
     3    2    4 1   
     4    4    5 ar  
     5    4    6 ar  
     6    5    9 ar  
     7    5   18 1   
     8    6    7 ar  
     9    6   19 1   
    10    7    8 ar  
    11    7   20 1   
    12    8    9 ar  
    13    8   10 1   
    14    9   21 1   
    15   10   11 ar  
    16   10   16 ar  
    17   11   12 1   
    18   11   13 ar  
    19   13   14 ar  
    20   13   22 1   
    21   14   15 ar  
    22   14   23 1   
    23   15   16 ar  
    24   15   24 1   
    25   16   17 1   
@<TRIPOS>SUBSTRUCTURE
     1 26C         1 TEMP              0 ****  ****    0 ROOT
