@<TRIPOS>MOLECULE
26C
   24    25     1     0     0
SMALL
bcc


@<TRIPOS>ATOM
      1 O17        -0.0700   -0.1420    0.0410 o         1 26C     -0.827300
      2 C15         1.1840   -0.0020    0.0820 c         1 26C      0.906200
      3 O16         1.8510    0.1380    1.1450 o         1 26C     -0.827300
      4 C6          1.9430   -0.0010   -1.2390 ca        1 26C     -0.102600
      5 C1          1.2620   -0.1770   -2.4480 ca        1 26C     -0.116000
      6 C5          3.3300    0.1770   -1.2600 ca        1 26C     -0.116000
      7 C4          4.0260    0.1830   -2.4660 ca        1 26C     -0.125000
      8 C3          3.3440    0.0010   -3.6790 cp        1 26C     -0.103000
      9 C2          1.9530   -0.1810   -3.6560 ca        1 26C     -0.125000
     10 C7          4.0710    0.0020   -4.9440 cp        1 26C     -0.047000
     11 C12         3.8600   -1.0020   -5.9200 ca        1 26C      0.144900
     12 F2          2.9750   -2.0040   -5.7000 f         1 26C     -0.130900
     13 C11         4.5610   -0.9990   -7.1410 ca        1 26C     -0.192000
     14 C10         5.4850    0.0040   -7.4060 ca        1 26C     -0.104000
     15 C9          5.7210    1.0060   -6.4730 ca        1 26C     -0.192000
     16 C8          5.0200    1.0080   -5.2520 ca        1 26C      0.144900
     17 F1          5.2740    2.0090   -4.3760 f         1 26C     -0.130900
     18 H1          0.1690   -0.3140   -2.4160 ha        1 26C      0.155000
     19 H5          3.8530    0.3120   -0.3000 ha        1 26C      0.155000
     20 H4          5.1150    0.3360   -2.4740 ha        1 26C      0.113000
     21 H2          1.4120   -0.3330   -4.6020 ha        1 26C      0.113000
     22 H11         4.3700   -1.7970   -7.8710 ha        1 26C      0.140000
     23 H10         6.0330    0.0050   -8.3600 ha        1 26C      0.128000
     24 H9          6.4470    1.8050   -6.6750 ha        1 26C      0.140000
@<TRIPOS>BOND
     1    1    2 1   
     2    2    3 1   
     3    2    4 1   
     4    4    5 ar  
     5    4    6 ar  
     6    5    9 ar  
     7    5   18 1   
     8    6    7 ar  
     9    6   19 1   
    10    7    8 ar  
    11    7   20 1   
    12    8    9 ar  
    13    8   10 1   
    14    9   21 1   
    15   10   11 ar  
    16   10   16 ar  
    17   11   12 1   
    18   11   13 ar  
    19   13   14 ar  
    20   13   22 1   
    21   14   15 ar  
    22   14   23 1   
    23   15   16 ar  
    24   15   24 1   
    25   16   17 1   
@<TRIPOS>SUBSTRUCTURE
     1 26C         1 TEMP              0 ****  ****    0 ROOT
