@<TRIPOS>MOLECULE
26C
   24    18     1     0     0
SMALL
bcc


@<TRIPOS>ATOM
      1 O17        -1.6280    0.3660    4.9390 o         1 26C     -0.562000
      2 C15        -2.2180    0.0140    3.8840 c1        1 26C      0.355000
      3 O16        -3.4190   -0.3620    3.9310 os        1 26C     -0.562000
      4 C6         -1.4760    0.0120    2.5660 c2        1 26C     -0.082000
      5 C1         -1.4620    1.1510    1.7770 c2        1 26C     -0.116000
      6 C5         -0.8000   -1.1260    2.1530 c1        1 26C     -0.116000
      7 C4         -0.1100   -1.1240    0.9510 c1        1 26C     -0.125000
      8 C3         -0.0960    0.0150    0.1620 c1        1 26C     -0.103000
      9 C2         -0.7720    1.1530    0.5750 c1        1 26C     -0.125000
     10 C7          0.5910    0.0160   -1.0420 c1        1 26C     -0.047000
     11 C12        -0.0660   -0.3180   -2.2150 c1        1 26C      0.110000
     12 F2         -1.3640   -0.6440   -2.1860 f         1 26C     -0.096000
     13 C11         0.6270   -0.3390   -3.4160 c1        1 26C     -0.192000
     14 C10         1.9770   -0.0260   -3.4420 c1        1 26C     -0.148000
     15 C9          2.6340    0.3080   -2.2680 c1        1 26C     -0.148000
     16 C8          1.9410    0.3290   -1.0680 c1        1 26C      0.110000
     17 F1          2.5850    0.6150    0.0710 f         1 26C     -0.096000
     18 H1         -1.9380    1.9520    2.0680 ha        1 26C      0.155000
     19 H5         -0.8100   -1.9280    2.7090 ha        1 26C      0.155000
     20 H4          0.3660   -1.9250    0.6600 ha        1 26C      0.113000
     21 H2         -0.7780    1.9490    0.0100 ha        1 26C      0.113000
     22 H11         0.1650   -0.5750   -4.2420 ha        1 26C      0.140000
     23 H10         2.4650   -0.0410   -4.2870 ha        1 26C      0.134000
     24 H9          3.5850    0.5290   -2.2870 ha        1 26C      0.134000
@<TRIPOS>BOND
     1    1    2 1   
     2    2    4 1   
     3    4    5 1   
     4    4    6 1   
     5    5    9 1   
     6    5   18 1   
     7    6   19 1   
     8    7    8 1   
     9    7   20 1   
    10    9   21 1   
    11   10   16 1   
    12   11   12 1   
    13   11   13 1   
    14   13   22 1   
    15   14   15 1   
    16   14   23 1   
    17   15   24 1   
    18   16   17 1   
@<TRIPOS>SUBSTRUCTURE
     1 26C         1 TEMP              0 ****  ****    0 ROOT
