@<TRIPOS>MOLECULE
26D
   17    17     1     0     0
SMALL
bcc


@<TRIPOS>ATOM
      1 N1         -0.0970   -0.0130    0.0180 n4        1 26D     -0.825300
      2 C3          1.3820   -0.0040    0.0110 ca        1 26D      0.491200
      3 N3          2.0060   -0.0190    1.2170 nb        1 26D     -0.635000
      4 C5          2.0670    0.0220   -1.2300 ca        1 26D     -0.146300
      5 C6          3.4650    0.0330   -1.2010 ca        1 26D     -0.029000
      6 C4          4.1420    0.0170    0.0210 ca        1 26D     -0.146300
      7 C2          3.3630   -0.0090    1.2060 ca        1 26D      0.491200
      8 N2          4.0470   -0.0240    2.5180 n4        1 26D     -0.825300
      9 HN11       -0.4290   -0.8100   -0.5450 hn        1 26D      0.495467
     10 HN12       -0.4400    0.8670   -0.3960 hn        1 26D      0.495467
     11 H5          1.5320    0.0340   -2.1990 ha        1 26D      0.213000
     12 H6          4.0380    0.0530   -2.1520 ha        1 26D      0.229000
     13 H4          5.2480    0.0250    0.0430 ha        1 26D      0.213000
     14 HN21        4.6970   -0.8240    2.5470 hn        1 26D      0.495467
     15 HN22        4.5770    0.8540    2.6300 hn        1 26D      0.495467
     16 H13        -0.4750   -0.1000    0.9760 hn        1 26D      0.495467
     17 H23         3.3760   -0.1100    3.2990 hn        1 26D      0.495467
@<TRIPOS>BOND
     1    1    2 1   
     2    1    9 1   
     3    1   10 1   
     4    1   16 1   
     5    2    3 ar  
     6    2    4 ar  
     7    3    7 ar  
     8    4    5 ar  
     9    4   11 1   
    10    5    6 ar  
    11    5   12 1   
    12    6    7 ar  
    13    6   13 1   
    14    7    8 1   
    15    8   14 1   
    16    8   15 1   
    17    8   17 1   
@<TRIPOS>SUBSTRUCTURE
     1 26D         1 TEMP              0 ****  ****    0 ROOT
