@<TRIPOS>MOLECULE
26D
   15    15     1     0     0
SMALL
bcc


@<TRIPOS>ATOM
      1 N1          2.3740   -1.0210   -0.1910 nh        1 26D     -0.927500
      2 C3          1.1700   -0.3110   -0.0470 ca        1 26D      0.664200
      3 N3          0.0000   -1.0170    0.0010 nb        1 26D     -0.784000
      4 C5          1.2050    1.1160   -0.0350 ca        1 26D     -0.341300
      5 C6         -0.0000    1.8060    0.0000 ca        1 26D     -0.031000
      6 C4         -1.2050    1.1160    0.0360 ca        1 26D     -0.341300
      7 C2         -1.1700   -0.3110    0.0490 ca        1 26D      0.664200
      8 N2         -2.3740   -1.0210    0.1930 nh        1 26D     -0.927500
      9 HN11        3.1560   -0.5630    0.2190 hn        1 26D      0.402300
     10 HN12        2.3320   -1.9980   -0.0020 hn        1 26D      0.402300
     11 H5          2.1600    1.6530   -0.0690 ha        1 26D      0.141000
     12 H6         -0.0000    2.9070   -0.0000 ha        1 26D      0.133000
     13 H4         -2.1600    1.6530    0.0690 ha        1 26D      0.141000
     14 HN21       -3.1560   -0.5630   -0.2170 hn        1 26D      0.402300
     15 HN22       -2.3320   -1.9980    0.0040 hn        1 26D      0.402300
@<TRIPOS>BOND
     1    1    2 1   
     2    1    9 1   
     3    1   10 1   
     4    2    3 ar  
     5    2    4 ar  
     6    3    7 ar  
     7    4    5 ar  
     8    4   11 1   
     9    5    6 ar  
    10    5   12 1   
    11    6    7 ar  
    12    6   13 1   
    13    7    8 1   
    14    8   14 1   
    15    8   15 1   
@<TRIPOS>SUBSTRUCTURE
     1 26D         1 TEMP              0 ****  ****    0 ROOT
