@<TRIPOS>MOLECULE
26D
   15    15     1     0     0
SMALL
bcc


@<TRIPOS>ATOM
      1 N1         -0.0370    0.0410    0.0000 nh        1 26D     -0.927500
      2 C3          1.3660   -0.0200    0.0100 ca        1 26D      0.664200
      3 N3          2.0090   -0.0510    1.2160 nb        1 26D     -0.784000
      4 C5          2.0700    0.0320   -1.2310 ca        1 26D     -0.341300
      5 C6          3.4580    0.0790   -1.2040 ca        1 26D     -0.031000
      6 C4          4.1370    0.0620    0.0080 ca        1 26D     -0.341300
      7 C2          3.3760   -0.0170    1.2130 ca        1 26D      0.664200
      8 N2          4.0510   -0.1430    2.4380 nh        1 26D     -0.927500
      9 HN11       -0.4470   -0.3800   -0.8020 hn        1 26D      0.402300
     10 HN12       -0.4910   -0.1900    0.8560 hn        1 26D      0.402300
     11 H5          1.5260    0.0500   -2.1830 ha        1 26D      0.141000
     12 H6          4.0230    0.1290   -2.1470 ha        1 26D      0.133000
     13 H4          5.2330    0.0930    0.0390 ha        1 26D      0.141000
     14 HN21        3.5020   -0.0010    3.2570 hn        1 26D      0.402300
     15 HN22        4.9310    0.3200    2.4560 hn        1 26D      0.402300
@<TRIPOS>BOND
     1    1    2 1   
     2    1    9 1   
     3    1   10 1   
     4    2    3 ar  
     5    2    4 ar  
     6    3    7 ar  
     7    4    5 ar  
     8    4   11 1   
     9    5    6 ar  
    10    5   12 1   
    11    6    7 ar  
    12    6   13 1   
    13    7    8 1   
    14    8   14 1   
    15    8   15 1   
@<TRIPOS>SUBSTRUCTURE
     1 26D         1 TEMP              0 ****  ****    0 ROOT
