@<TRIPOS>MOLECULE
26D
   15    15     1     0     0
SMALL
bcc


@<TRIPOS>ATOM
      1 N1         -0.0340    0.0600   -0.0170 nv        1 26D     -0.927500
      2 C3          1.3700    0.0770    0.0060 ca        1 26D      0.664200
      3 N3          2.0030   -0.0040    1.2150 nb        1 26D     -0.784000
      4 C5          2.0830    0.0970   -1.2310 ca        1 26D     -0.341300
      5 C6          3.4690    0.0050   -1.1980 ca        1 26D     -0.031000
      6 C4          4.1370   -0.0920    0.0160 ca        1 26D     -0.341300
      7 C2          3.3680   -0.0800    1.2190 ca        1 26D      0.664200
      8 N2          4.0350   -0.0690    2.4540 nv        1 26D     -0.927500
      9 HN11       -0.4240    0.5540   -0.7880 hn        1 26D      0.402300
     10 HN12       -0.4880    0.2410    0.8510 hn        1 26D      0.402300
     11 H5          1.5470    0.1680   -2.1850 ha        1 26D      0.141000
     12 H6          4.0400    0.0080   -2.1390 ha        1 26D      0.133000
     13 H4          5.2310   -0.1590    0.0510 ha        1 26D      0.141000
     14 HN21        4.9010   -0.5590    2.4430 hn        1 26D      0.402300
     15 HN22        3.4750   -0.2550    3.2570 hn        1 26D      0.402300
@<TRIPOS>BOND
     1    1    2 1   
     2    1    9 1   
     3    1   10 1   
     4    2    3 ar  
     5    2    4 ar  
     6    3    7 ar  
     7    4    5 ar  
     8    4   11 1   
     9    5    6 ar  
    10    5   12 1   
    11    6    7 ar  
    12    6   13 1   
    13    7    8 1   
    14    8   14 1   
    15    8   15 1   
@<TRIPOS>SUBSTRUCTURE
     1 26D         1 TEMP              0 ****  ****    0 ROOT
