@<TRIPOS>MOLECULE
26D
   15    13     1     0     0
SMALL
bcc


@<TRIPOS>ATOM
      1 N1         -2.6320    0.0010   -0.2600 n3        1 26D     -0.326000
      2 C3         -1.2130    0.0010   -0.2600 c2        1 26D      0.145000
      3 N3         -0.5320    0.0010    0.9200 n2        1 26D     -0.261000
      4 C5         -0.5200    0.0010   -1.4610 c1        1 26D     -0.278000
      5 C6          0.8450    0.0010   -1.4600 c1        1 26D     -0.154000
      6 C4          1.5260    0.0010   -0.2770 c1        1 26D     -0.154000
      7 C2          0.8300    0.0010    0.9220 c1        1 26D      0.145000
      8 N2          1.5380   -0.0020    2.1510 n3        1 26D     -0.326000
      9 HN11       -3.0880   -0.7890   -0.2460 hn        1 26D      0.198500
     10 HN12       -3.0880    0.7900   -0.2470 hn        1 26D      0.198500
     11 H5         -1.0080    0.0010   -2.3060 ha        1 26D      0.141000
     12 H6          1.3330    0.0010   -2.3050 ha        1 26D      0.137000
     13 H4          2.5020    0.0010   -0.2760 ha        1 26D      0.137000
     14 HN21        1.7530   -0.7920    2.5520 hn        1 26D      0.198500
     15 HN22        1.7540    0.7870    2.5540 hn        1 26D      0.198500
@<TRIPOS>BOND
     1    1    2 1   
     2    1    9 1   
     3    1   10 1   
     4    2    3 1   
     5    2    4 1   
     6    3    7 1   
     7    4   11 1   
     8    5    6 1   
     9    5   12 1   
    10    6   13 1   
    11    7    8 1   
    12    8   14 1   
    13    8   15 1   
@<TRIPOS>SUBSTRUCTURE
     1 26D         1 TEMP              0 ****  ****    0 ROOT
