@<TRIPOS>MOLECULE
26F
   70    73     1     0     0
SMALL
bcc


@<TRIPOS>ATOM
      1 C1         -5.3460   -0.9480    0.2010 ca        1 26F     -0.084000
      2 C2         -6.5350    0.6430    1.5830 ca        1 26F     -0.084000
      3 C3         -6.5490   -1.4250   -0.3010 ca        1 26F     -0.185000
      4 C4         -7.7540    0.1730    1.0940 ca        1 26F     -0.185000
      5 C5          1.1410   -3.2600    1.1280 ca        1 26F     -0.189000
      6 C6          2.0330   -3.7350   -1.0990 ca        1 26F     -0.189000
      7 C7          0.1930   -2.4230    0.5530 ca        1 26F      0.017500
      8 C8          1.0720   -2.8910   -1.6430 ca        1 26F      0.017500
      9 C9          3.1560    4.0050   -1.1090 ca        1 26F     -0.451600
     10 C10        -5.3320    0.0880    1.1460 ca        1 26F     -0.159300
     11 C11        -7.7580   -0.8610    0.1510 ca        1 26F      0.129100
     12 C12         2.0610   -3.9130    0.2890 ca        1 26F      0.189100
     13 C13         0.1440   -2.2210   -0.8340 ca        1 26F     -0.414500
     14 C14         2.2490    3.4090   -0.1860 ca        1 26F      0.702200
     15 C15         4.0660    4.9550   -0.5910 ca        1 26F      0.699600
     16 C16         3.1920    4.6850    1.5120 ca        1 26F      0.902300
     17 C17        -1.7870    0.7390    0.7310 c         1 26F      0.646100
     18 C18         1.7170    1.4950   -1.5910 c3        1 26F      0.175800
     19 C19         0.5380    0.7690   -2.2730 c3        1 26F      0.218800
     20 C20         0.2730    2.0280    0.2860 c3        1 26F      0.179800
     21 C21        -0.9030    1.2880   -0.4210 c3        1 26F      0.177500
     22 C22       -10.1360   -0.8680    0.0400 c3        1 26F      0.113700
     23 C23         5.8610    6.4770   -1.0740 c3        1 26F      0.124700
     24 C24         4.0580    5.9230    3.3770 c3        1 26F      0.125700
     25 C25        -4.0320    0.5740    1.7120 c3        1 26F      0.134300
     26 C26         3.9430   -5.4420    0.2660 c3        1 26F      0.827700
     27 N27         2.2710    3.7410    1.1490 nb        1 26F     -0.766000
     28 N28         4.1140    5.3230    0.7170 nb        1 26F     -0.835000
     29 N29         1.2560    2.5210   -0.6680 nh        1 26F     -0.736300
     30 N30        -0.4640    0.2770   -1.3570 n3        1 26F     -0.808500
     31 N31        -3.1170    1.0880    0.7170 n         1 26F     -0.521900
     32 O32        -1.2640    0.1110    1.6740 o         1 26F     -0.616100
     33 O33        -1.0790   -1.5550   -2.9150 o         1 26F     -0.655800
     34 O34        -2.2510   -1.3680   -0.8330 o         1 26F     -0.655800
     35 O35        -8.8970   -1.4050   -0.4080 os        1 26F     -0.326900
     36 O37         4.9210    5.4980   -1.5230 os        1 26F     -0.441100
     37 O38         3.1270    4.9680    2.8630 os        1 26F     -0.413100
     38 F39         4.7910   -4.6290   -0.4100 f         1 26F     -0.209300
     39 F40         4.6260   -6.1010    1.2320 f         1 26F     -0.209300
     40 F41         3.4010   -6.3390   -0.5950 f         1 26F     -0.209300
     41 S42        -1.0320   -1.2480   -1.5360 sy        1 26F      1.518200
     42 H1         -4.3920   -1.3870   -0.1450 ha        1 26F      0.154500
     43 H2         -6.5310    1.4570    2.3240 ha        1 26F      0.154500
     44 H3         -6.5740   -2.2360   -1.0430 ha        1 26F      0.145000
     45 H4         -8.6920    0.6180    1.4530 ha        1 26F      0.145000
     46 H5          1.1810   -3.4170    2.2160 ha        1 26F      0.163500
     47 H6          2.7500   -4.2550   -1.7510 ha        1 26F      0.163500
     48 H7         -0.5370   -1.9060    1.2070 ha        1 26F      0.175000
     49 H8          1.0290   -2.7560   -2.7410 ha        1 26F      0.175000
     50 H9          3.1590    3.7850   -2.1810 ha        1 26F      0.169000
     51 H18         2.3610    0.7360   -1.0590 h1        1 26F      0.055200
     52 H18A        2.3320    1.9670   -2.4060 h1        1 26F      0.055200
     53 H19         0.0520    1.4780   -3.0060 h1        1 26F      0.063200
     54 H19A        0.9610   -0.1000   -2.8570 h1        1 26F      0.063200
     55 H20        -0.1740    2.9030    0.8350 h1        1 26F      0.082200
     56 H20A        0.7390    1.3330    1.0440 h1        1 26F      0.082200
     57 H21        -1.4840    2.0620   -1.0130 h1        1 26F      0.066700
     58 H22       -10.2090    0.2180   -0.2100 h1        1 26F      0.044367
     59 H22A      -10.8970   -1.4580   -0.5310 h1        1 26F      0.044367
     60 H22B      -10.2600   -1.0260    1.1390 h1        1 26F      0.044367
     61 H23         6.5540    6.0370   -0.3180 h1        1 26F      0.052700
     62 H23A        6.4090    6.7430   -2.0140 h1        1 26F      0.052700
     63 H23B        5.3320    7.3660   -0.6550 h1        1 26F      0.052700
     64 H24         3.9060    6.9210    2.9020 h1        1 26F      0.053367
     65 H24A        3.7930    5.9540    4.4660 h1        1 26F      0.053367
     66 H24B        5.1070    5.5710    3.2340 h1        1 26F      0.053367
     67 H25        -4.2250    1.4070    2.4500 h1        1 26F      0.066700
     68 H25A       -3.5360   -0.2740    2.2730 h1        1 26F      0.066700
     69 HN31       -3.5190    1.3520   -0.1540 hn        1 26F      0.314500
     70 O36         2.9630   -4.7200    0.9660 os        1 26F     -0.365900
@<TRIPOS>BOND
     1    1    3 ar  
     2    1   10 ar  
     3    1   42 1   
     4    2    4 ar  
     5    2   10 ar  
     6    2   43 1   
     7    3   11 ar  
     8    3   44 1   
     9    4   11 ar  
    10    4   45 1   
    11    5    7 ar  
    12    5   12 ar  
    13    5   46 1   
    14    6    8 ar  
    15    6   12 ar  
    16    6   47 1   
    17    7   13 ar  
    18    7   48 1   
    19    8   13 ar  
    20    8   49 1   
    21    9   14 ar  
    22    9   15 ar  
    23    9   50 1   
    24   10   25 1   
    25   11   35 1   
    26   12   70 1   
    27   13   41 1   
    28   14   27 ar  
    29   14   29 1   
    30   15   28 ar  
    31   15   36 1   
    32   16   27 ar  
    33   16   28 ar  
    34   16   37 1   
    35   17   21 1   
    36   17   31 1   
    37   17   32 2   
    38   18   19 1   
    39   18   29 1   
    40   18   51 1   
    41   18   52 1   
    42   19   30 1   
    43   19   53 1   
    44   19   54 1   
    45   20   21 1   
    46   20   29 1   
    47   20   55 1   
    48   20   56 1   
    49   21   30 1   
    50   21   57 1   
    51   22   35 1   
    52   22   58 1   
    53   22   59 1   
    54   22   60 1   
    55   23   36 1   
    56   23   61 1   
    57   23   62 1   
    58   23   63 1   
    59   24   37 1   
    60   24   64 1   
    61   24   65 1   
    62   24   66 1   
    63   25   31 1   
    64   25   67 1   
    65   25   68 1   
    66   26   38 1   
    67   26   39 1   
    68   26   40 1   
    69   26   70 1   
    70   30   41 1   
    71   31   69 1   
    72   33   41 2   
    73   34   41 2   
@<TRIPOS>SUBSTRUCTURE
     1 26F         1 TEMP              0 ****  ****    0 ROOT
