@<TRIPOS>MOLECULE
26F
   71    69     1     0     0
SMALL
bcc


@<TRIPOS>ATOM
      1 C1         -1.0780   -0.8840   -0.2460 c3        1 26F     -0.174000
      2 C2         -0.2790    0.3040    1.7850 c2        1 26F     -0.139000
      3 C3          0.2920   -1.0200   -0.6760 c1        1 26F     -0.091000
      4 C4          1.0760    0.1790    1.3210 c2        1 26F     -0.031000
      5 C5         -6.9320    1.8020   -0.4050 c3        1 26F     -0.177000
      6 C6         -8.3150   -0.0980    0.4880 c2        1 26F     -0.270000
      7 C7         -5.9540    0.7710   -0.8040 c2        1 26F      0.108000
      8 C8         -7.3320   -1.0250    0.0910 c1        1 26F     -0.104000
      9 C9         -6.3360   -6.3620    3.8870 c2        1 26F     -0.204000
     10 C10        -1.3150   -0.2070    1.0660 c2        1 26F     -0.191000
     11 C11         1.3140   -0.4570    0.1360 c2        1 26F     -0.149000
     12 C12        -8.1450    1.2420    0.2610 c2        1 26F      0.178000
     13 C13        -6.1620   -0.5520   -0.5850 c2        1 26F     -0.884000
     14 C14        -6.8730   -5.0860    3.6230 c2        1 26F      0.017000
     15 C15        -7.0770   -7.1610    4.7980 c2        1 26F      0.043000
     16 C16        -8.6330   -5.4950    5.0510 c2        1 26F      0.020000
     17 C17        -3.3460   -1.8020    2.9260 c2        1 26F      0.213000
     18 C18        -7.0350   -3.7920    1.5180 c3        1 26F     -0.147000
     19 C19        -6.2880   -3.8640    0.1710 c3        1 26F     -0.009000
     20 C20        -5.6250   -3.0000    3.3980 c2        1 26F     -0.016000
     21 C21        -4.4610   -2.5110    3.1150 c1        1 26F     -0.382000
     22 C22         3.0110   -1.0880   -1.4040 c1        1 26F     -0.004000
     23 C25        -2.6980    0.0200    1.3980 c1        1 26F      0.124000
     24 C26       -10.2480    1.9800    1.2250 c3        1 26F      0.550000
     25 N27        -8.0260   -4.6260    4.1970 n2        1 26F     -0.134000
     26 N28        -8.2170   -6.7560    5.3880 n2        1 26F     -0.210000
     27 N29        -6.1580   -4.1880    2.6790 n4        1 26F      0.059000
     28 N30        -5.2060   -2.9490    0.0290 n3        1 26F     -0.865000
     29 N31        -2.1110   -2.0710    3.4200 n3        1 26F     -0.363000
     30 O32        -3.5340   -0.6170    2.1000 os        1 26F     -0.024000
     31 O33        -5.5700   -2.2610   -2.3360 o         1 26F     -0.939000
     32 O34        -3.8010   -1.2760   -1.0320 o         1 26F     -0.939000
     33 O35         2.6710   -0.5730   -0.2910 os        1 26F     -0.021000
     34 O37        -6.5190   -8.4580    5.0600 os        1 26F     -0.001000
     35 O38        -9.8700   -4.9690    5.6650 os        1 26F      0.067000
     36 F39       -10.0650    1.3910    2.4300 f         1 26F     -0.121667
     37 F40       -10.8020    3.2020    1.3820 f         1 26F     -0.121667
     38 F41       -11.0300    1.2030    0.4430 f         1 26F     -0.121667
     39 S42        -5.1290   -1.7820   -1.0970 s6        1 26F      2.883000
     40 H1         -1.6390   -0.3240   -1.0690 hc        1 26F      0.203500
     41 H2         -0.4440    0.8540    2.7270 ha        1 26F      0.147000
     42 H3         -1.5700   -1.9040   -0.2640 hc        1 26F      0.203500
     43 H4          1.8930    0.6000    1.9320 ha        1 26F      0.172000
     44 H5         -7.2520    2.3860   -1.3210 hc        1 26F      0.184000
     45 H6         -9.2250   -0.4790    0.9810 ha        1 26F      0.168000
     46 H7         -5.0310    1.1470   -1.2900 ha        1 26F      0.169000
     47 H8         -6.4380    2.5490    0.2860 hc        1 26F      0.184000
     48 H9         -5.4120   -6.7560    3.4430 ha        1 26F      0.190000
     49 H18        -7.4180   -2.7380    1.6850 hx        1 26F      0.170500
     50 H18A       -7.0680   -3.6360   -0.6190 h1        1 26F      0.125000
     51 H19        -5.9190   -4.9200    0.0050 h1        1 26F      0.125000
     52 H19A       -7.9140   -4.4930    1.4650 hx        1 26F      0.170500
     53 H20        -6.3360   -2.6100    4.1530 hx        1 26F      0.206000
     54 H20A       -5.3620   -4.7290    2.3060 hn        1 26F      0.238000
     55 H21        -4.5010   -3.0140    0.7260 hn        1 26F      0.234000
     56 H22         2.2740   -1.4860   -2.1300 ha        1 26F      0.083000
     57 H22A        4.0930    0.4440    1.6080 ha        1 26F      0.004000
     58 H22B        4.4840    0.2730    1.0820 ha        1 26F      0.004000
     59 H23        -7.9430   -9.3290    6.3650 ha        1 26F      0.104000
     60 H23A       -6.0480   -8.7990    7.8880 ha        1 26F      0.004000
     61 H23B       -5.6310   -9.3130    7.7330 ha        1 26F      0.004000
     62 H24       -12.1680   -6.6050    4.9450 ha        1 26F      0.004000
     63 H24A      -12.5460   -6.0610    5.0930 ha        1 26F      0.004000
     64 H24B      -10.5810   -6.5880    6.8650 ha        1 26F      0.137000
     65 H25        -2.8310    2.0560    2.8830 ha        1 26F      0.004000
     66 H25A       -2.4360    1.6450    3.2500 ha        1 26F      0.004000
     67 HN31       -1.9920   -2.7920    4.0910 hn        1 26F      0.253000
     68 H312       -1.3650   -1.4340    3.2650 hn        1 26F      0.253000
     69 O36        -9.0050    2.2520    0.6010 os        1 26F     -0.258000
     70 C23        -7.0000   -9.3640    5.7960 c1        1 26F      0.046000
     71 C24       -10.6240   -5.5770    6.4430 c1        1 26F      0.032000
@<TRIPOS>BOND
     1    1    3 1   
     2    1   10 1   
     3    1   40 1   
     4    1   42 1   
     5    2    4 1   
     6    2   10 1   
     7    2   41 1   
     8    3   11 1   
     9    4   11 1   
    10    4   43 1   
    11    5    7 1   
    12    5   12 1   
    13    5   44 1   
    14    5   47 1   
    15    6    8 1   
    16    6   12 1   
    17    6   45 1   
    18    7   13 1   
    19    7   46 1   
    20    8   13 1   
    21    9   14 1   
    22    9   15 1   
    23    9   48 1   
    24   10   23 1   
    25   11   33 1   
    26   12   69 1   
    27   13   39 1   
    28   14   25 1   
    29   14   27 1   
    30   15   26 1   
    31   15   34 1   
    32   16   25 1   
    33   16   26 1   
    34   16   35 1   
    35   17   21 1   
    36   17   29 1   
    37   17   30 1   
    38   18   19 1   
    39   18   27 1   
    40   18   49 1   
    41   18   52 1   
    42   19   28 1   
    43   19   50 1   
    44   19   51 1   
    45   20   21 1   
    46   20   27 1   
    47   20   53 1   
    48   22   33 1   
    49   22   56 1   
    50   23   30 1   
    51   24   36 1   
    52   24   37 1   
    53   24   38 1   
    54   24   69 1   
    55   27   54 1   
    56   28   39 1   
    57   28   55 1   
    58   29   67 1   
    59   29   68 1   
    60   31   39 1   
    61   32   39 1   
    62   34   70 1   
    63   35   71 1   
    64   57   58 1   
    65   59   70 1   
    66   60   61 1   
    67   62   63 1   
    68   64   71 1   
    69   65   66 1   
@<TRIPOS>SUBSTRUCTURE
     1 26F         1 TEMP              0 ****  ****    0 ROOT
