@<TRIPOS>MOLECULE
26F
   70    63     1     0     0
SMALL
bcc


@<TRIPOS>ATOM
      1 C1          4.8480    2.9130   -1.3630 c1        1 26F     -0.042250
      2 C2          4.9400    2.5200    1.0310 c1        1 26F     -0.017500
      3 C3          6.2550    2.8770   -1.4210 c1        1 26F     -0.042250
      4 C4          6.3300    2.4850    0.9740 c1        1 26F     -0.150500
      5 C5         -4.5350    0.0990   -4.5870 c1        1 26F     -0.042250
      6 C6         -2.9170   -1.5720   -5.2050 c1        1 26F     -0.154500
      7 C7         -3.6210    0.6530   -3.6800 c1        1 26F     -0.042250
      8 C8         -2.0090   -1.0220   -4.3040 c1        1 26F      0.075500
      9 C9         -1.1310   -2.9630    3.4210 c1        1 26F     -0.262500
     10 C10         4.1930    2.7360   -0.1430 c1        1 26F     -0.122100
     11 C11         6.9930    2.6650   -0.2640 c1        1 26F      0.113600
     12 C12        -4.1750   -1.0160   -5.3490 c1        1 26F      0.175600
     13 C13        -2.3680    0.0970   -3.5400 c1        1 26F     -0.450200
     14 C14        -1.5440   -1.8480    2.7220 c1        1 26F      0.239800
     15 C15        -1.6870   -3.2510    4.6400 c1        1 26F      0.558400
     16 C16        -3.0470   -1.3500    4.4770 c1        1 26F      0.558400
     17 C17         0.6490    1.4470   -0.1010 c1        1 26F      0.523500
     18 C18        -2.1230   -1.7340    0.4940 c3        1 26F      0.177800
     19 C19        -1.7270   -1.3810   -0.8990 c3        1 26F      0.037300
     20 C20        -0.3960   -0.3370    1.3550 c3        1 26F      0.107500
     21 C21         0.0590    0.0360   -0.0580 c2        1 26F      0.277200
     22 C22         9.2340    3.4400   -0.0660 c3        1 26F      0.113700
     23 C23        -0.5870   -4.2630    6.5140 c3        1 26F      0.125700
     24 C24        -4.4030   -0.3490    6.1660 c3        1 26F      0.125700
     25 C25         2.6340    2.9000   -0.0650 c3        1 26F      0.045400
     26 C26        -5.2470   -1.3190   -7.4270 c3        1 26F      0.827700
     27 N27        -2.4820   -1.0540    3.2330 n1        1 26F     -0.606800
     28 N28        -2.6440   -2.4380    5.1590 n1        1 26F     -0.606800
     29 N29        -1.0630   -1.6200    1.4130 n3        1 26F     -0.603200
     30 N30        -1.0800   -0.1050   -0.9850 nh        1 26F     -0.530600
     31 N31         1.9990    1.6230   -0.3510 n3        1 26F     -0.403400
     32 O32        -0.0640    2.4090    0.0970 o         1 26F     -0.582500
     33 O33         0.2290    0.7630   -3.0650 o         1 26F     -0.649800
     34 O34        -1.3100    2.1870   -2.1810 o         1 26F     -0.649800
     35 O35         8.4020    2.3540   -0.3330 os        1 26F     -0.310400
     36 O36        -5.1690   -1.7110   -6.0970 os        1 26F     -0.349400
     37 O37        -1.3320   -4.4640    5.3190 os        1 26F     -0.286900
     38 O38        -4.1920   -0.5780    4.7660 os        1 26F     -0.286900
     39 F39        -4.2500   -1.8930   -8.1220 f         1 26F     -0.207300
     40 F40        -6.3880   -1.6900   -7.9240 f         1 26F     -0.207300
     41 F41        -5.1380    0.0040   -7.5050 f         1 26F     -0.207300
     42 S42        -1.1040    0.7580   -2.4240 s6        1 26F      1.556000
     43 H1          4.3230    3.0640   -2.1870 ha        1 26F      0.099000
     44 H2          4.4580    2.3890    1.9310 ha        1 26F      0.083500
     45 H3          6.7190    3.0040   -2.2880 ha        1 26F      0.099000
     46 H4          6.8560    2.3330    1.8030 ha        1 26F      0.081500
     47 H5         -5.3840    0.4750   -4.6830 ha        1 26F      0.099000
     48 H6         -2.6630   -2.3580   -5.7420 ha        1 26F      0.102500
     49 H7         -3.8830    1.4660   -3.1250 ha        1 26F      0.099000
     50 H8         -1.1260   -1.4140   -4.2050 ha        1 26F      0.109500
     51 H9         -0.4480   -3.5430    3.0500 ha        1 26F      0.116500
     52 H18        -2.4450   -2.6440    0.5060 h1        1 26F      0.064200
     53 H18A       -2.8710   -1.1200    0.7830 h1        1 26F      0.064200
     54 H19        -1.1090   -2.0780   -1.2410 h1        1 26F      0.061200
     55 H19A       -2.5390   -1.3650   -1.4680 h1        1 26F      0.061200
     56 H20        -1.0300    0.3760    1.6910 h1        1 26F      0.075700
     57 H20A        0.4090   -0.3650    1.9530 h1        1 26F      0.075700
     58 H21         0.8260   -0.5040   -0.3460 h4        1 26F     -0.011200
     59 H22        10.1150    3.2890   -0.4820 h1        1 26F      0.045033
     60 H22A        9.3480    3.5410    0.9400 h1        1 26F      0.045033
     61 H22B        8.8390    4.2470   -0.4310 h1        1 26F      0.045033
     62 H23        -1.1740   -3.8090    7.2060 h1        1 26F      0.052533
     63 H23A       -0.2760   -5.1510    6.8670 h1        1 26F      0.052533
     64 H23B        0.2080   -3.6840    6.3180 h1        1 26F      0.052533
     65 H24        -5.0650    0.4340    6.2890 h1        1 26F      0.052533
     66 H24A       -4.7830   -1.1820    6.5900 h1        1 26F      0.052533
     67 H24B       -3.5450   -0.1240    6.5950 h1        1 26F      0.052533
     68 H25         2.3450    3.5590   -0.7180 h1        1 26F      0.075700
     69 H25A        2.3860    3.1920    0.8150 h1        1 26F      0.075700
     70 HN31        2.4760    0.9610   -0.7390 hn        1 26F      0.291700
@<TRIPOS>BOND
     1    1    3 3   
     2    1   43 1   
     3    2   10 3   
     4    2   44 1   
     5    3   45 1   
     6    4   11 3   
     7    4   46 1   
     8    5    7 3   
     9    5   47 1   
    10    6   12 3   
    11    6   48 1   
    12    7   49 1   
    13    8   13 3   
    14    8   50 1   
    15    9   14 3   
    16    9   51 1   
    17   10   25 1   
    18   11   35 1   
    19   12   36 1   
    20   13   42 1   
    21   14   29 1   
    22   15   28 3   
    23   15   37 1   
    24   16   27 3   
    25   16   38 1   
    26   17   31 2   
    27   17   32 2   
    28   18   19 1   
    29   18   29 1   
    30   18   52 1   
    31   18   53 1   
    32   19   30 1   
    33   19   54 1   
    34   19   55 1   
    35   20   21 1   
    36   20   29 1   
    37   20   56 1   
    38   20   57 1   
    39   21   30 2   
    40   21   58 1   
    41   22   35 1   
    42   22   59 1   
    43   22   60 1   
    44   22   61 1   
    45   23   37 1   
    46   23   62 1   
    47   23   63 1   
    48   23   64 1   
    49   24   38 1   
    50   24   65 1   
    51   24   66 1   
    52   24   67 1   
    53   25   31 1   
    54   25   68 1   
    55   25   69 1   
    56   26   36 1   
    57   26   39 1   
    58   26   40 1   
    59   26   41 1   
    60   30   42 1   
    61   31   70 1   
    62   33   42 2   
    63   34   42 2   
@<TRIPOS>SUBSTRUCTURE
     1 26F         1 TEMP              0 ****  ****    0 ROOT
