@<TRIPOS>MOLECULE
26F
   71    69     1     0     0
SMALL
bcc


@<TRIPOS>ATOM
      1 C1         -0.6360   -1.2010   -0.6750 c3        1 26F     -0.179000
      2 C2         -0.5390   -1.2180    1.8050 c2        1 26F     -0.098000
      3 C3          0.7740   -0.8720   -0.7090 c1        1 26F     -0.082000
      4 C4          0.8670   -0.9190    1.7480 c2        1 26F     -0.033000
      5 C5         -6.4700    1.8990   -0.8790 c3        1 26F     -0.193000
      6 C6         -8.2010    0.1420   -0.3330 c2        1 26F     -0.250000
      7 C7         -5.4530    0.8430   -0.7160 c2        1 26F      0.194000
      8 C8         -7.1870   -0.7910   -0.1510 c1        1 26F     -0.136000
      9 C9         -7.4180   -6.5620    3.3540 c2        1 26F     -0.167000
     10 C10        -1.2720   -1.3510    0.6640 c2        1 26F     -0.075000
     11 C11         1.4630   -0.7540    0.5300 c2        1 26F     -0.143000
     12 C12        -7.8790    1.4360   -0.6900 c2        1 26F      0.225000
     13 C13        -5.8120   -0.4270   -0.4010 c2        1 26F     -0.939000
     14 C14        -7.1640   -5.1650    3.3360 c2        1 26F      0.134000
     15 C15        -7.5170   -7.1580    4.6300 c2        1 26F      0.034000
     16 C16        -7.1350   -5.1470    5.6460 c2        1 26F      0.026000
     17 C17        -6.1070   -0.9700    3.1580 c2        1 26F      0.286000
     18 C18        -6.9680   -5.2260    0.9830 c1        1 26F     -0.101000
     19 C19        -3.4750   -2.0680    1.7450 c2        1 26F     -0.145000
     20 C20        -7.1230   -3.0260    2.0890 c3        1 26F     -0.128000
     21 C21        -5.7910   -2.3440    2.5090 c3        1 26F      0.001000
     22 C22         3.5290   -0.2970   -0.5560 c1        1 26F      0.003000
     23 C25        -2.6810   -1.6560    0.6990 c2        1 26F      0.073000
     24 C26       -10.1580    2.2930   -0.7810 c3        1 26F      0.556000
     25 N27        -7.0130   -4.4400    4.4930 n2        1 26F     -0.232000
     26 N28        -7.3850   -6.4810    5.7930 n2        1 26F     -0.233000
     27 N29        -7.0630   -4.4840    2.0680 nh        1 26F     -0.126000
     28 N30        -4.8380   -2.2530    1.4160 n3        1 26F     -0.628000
     29 N31        -6.6270   -0.9750    4.4110 nt        1 26F     -0.390000
     30 O32        -5.8620    0.0960    2.5470 o         1 26F     -0.419000
     31 O33        -5.3720   -2.8720   -1.0040 o         1 26F     -0.748000
     32 O34        -3.3890   -1.5080   -0.4860 os        1 26F     -0.528000
     33 O35         2.8550   -0.4380    0.5130 os        1 26F     -0.018000
     34 O37        -7.7500   -8.5720    4.6380 os        1 26F     -0.002000
     35 O38        -6.9720   -4.3300    6.8490 os        1 26F      0.025000
     36 F39       -10.4860    1.9270    0.4770 f         1 26F     -0.110000
     37 F40       -10.6400    3.5180   -1.0680 f         1 26F     -0.110000
     38 F41       -10.5980    1.3780   -1.6710 f         1 26F     -0.110000
     39 S42        -5.0580   -1.8320   -0.1520 s6        1 26F      2.702000
     40 H1         -1.1910   -0.4210   -1.2800 hc        1 26F      0.183000
     41 H2         -0.9920   -1.3280    2.8040 ha        1 26F      0.143000
     42 H3         -0.7580   -2.1650   -1.2640 hc        1 26F      0.183000
     43 H4          1.4320   -0.8230    2.6920 ha        1 26F      0.176000
     44 H5         -6.3660    2.3780   -1.9010 hc        1 26F      0.204500
     45 H6         -9.2510   -0.1660   -0.1840 ha        1 26F      0.190000
     46 H7         -4.3990    1.1520   -0.8590 ha        1 26F      0.173000
     47 H8         -6.2560    2.7260   -0.1280 hc        1 26F      0.204500
     48 H9         -7.5200   -7.1520    2.4300 ha        1 26F      0.221000
     49 H18        -7.8210   -2.8890   -1.3700 ha        1 26F      0.002300
     50 H18A       -7.7540   -3.4210   -1.7850 ha        1 26F      0.002300
     51 H19        -3.1420   -2.2220    2.7810 h4        1 26F      0.223000
     52 H19A       -6.9020   -4.6840    0.0150 ha        1 26F      0.079000
     53 H20        -7.9240   -2.6910    2.8090 h1        1 26F      0.149000
     54 H20A       -7.4440   -2.6690    1.0600 h1        1 26F      0.149000
     55 H21        -5.2730   -2.9800    3.2970 h1        1 26F      0.173000
     56 H22         3.5670   -0.2840    2.9770 ha        1 26F      0.002300
     57 H22A        3.0890   -0.4090   -1.5660 ha        1 26F      0.085000
     58 H22B        4.1080   -0.1790    2.5820 ha        1 26F      0.002300
     59 H23        -8.2210   -8.9090    6.6680 ha        1 26F      0.088000
     60 H23A       -5.9490   -9.7210    6.6830 ha        1 26F      0.002300
     61 H23B       -5.9780  -10.2390    6.2450 ha        1 26F      0.002300
     62 H24        -6.7600   -8.2620    8.2530 ha        1 26F      0.002300
     63 H24A       -7.0740   -5.7890    8.3870 ha        1 26F      0.117000
     64 H24B       -7.1020   -8.0210    8.7850 ha        1 26F      0.002300
     65 H25        -4.7420    2.1620    2.0850 ha        1 26F      0.002300
     66 H25A       -4.7330    2.0580    1.4140 ha        1 26F      0.002300
     67 HN31       -6.8140   -1.8200    4.8960 hn        1 26F      0.257000
     68 H312       -6.8350   -0.1110    4.8550 hn        1 26F      0.257000
     69 O36        -8.7450    2.4620   -0.8970 os        1 26F     -0.255000
     70 C23        -8.0640   -9.2800    5.6400 c1        1 26F      0.026000
     71 C24        -6.9650   -4.7530    8.0290 c1        1 26F      0.014000
@<TRIPOS>BOND
     1    1    3 1   
     2    1   10 1   
     3    1   40 1   
     4    1   42 1   
     5    2    4 1   
     6    2   10 1   
     7    2   41 1   
     8    3   11 1   
     9    4   11 1   
    10    4   43 1   
    11    5    7 1   
    12    5   12 1   
    13    5   44 1   
    14    5   47 1   
    15    6    8 1   
    16    6   12 1   
    17    6   45 1   
    18    7   13 1   
    19    7   46 1   
    20    8   13 1   
    21    9   14 1   
    22    9   15 1   
    23    9   48 1   
    24   10   23 1   
    25   11   33 1   
    26   12   69 1   
    27   13   39 1   
    28   14   25 1   
    29   14   27 1   
    30   15   26 1   
    31   15   34 1   
    32   16   25 1   
    33   16   26 1   
    34   16   35 1   
    35   17   21 1   
    36   17   29 1   
    37   17   30 1   
    38   18   27 1   
    39   18   52 1   
    40   19   23 1   
    41   19   28 1   
    42   19   51 1   
    43   20   21 1   
    44   20   27 1   
    45   20   53 1   
    46   20   54 1   
    47   21   28 1   
    48   21   55 1   
    49   22   33 1   
    50   22   57 1   
    51   23   32 1   
    52   24   36 1   
    53   24   37 1   
    54   24   38 1   
    55   24   69 1   
    56   28   39 1   
    57   29   67 1   
    58   29   68 1   
    59   31   39 1   
    60   32   39 1   
    61   34   70 1   
    62   35   71 1   
    63   49   50 1   
    64   56   58 1   
    65   59   70 1   
    66   60   61 1   
    67   62   64 1   
    68   63   71 1   
    69   65   66 1   
@<TRIPOS>SUBSTRUCTURE
     1 26F         1 TEMP              0 ****  ****    0 ROOT
