@<TRIPOS>MOLECULE
26G
   35    32     1     0     0
SMALL
bcc


@<TRIPOS>ATOM
      1 CM2        -0.6970    1.2000   -0.6890 c3        1 26G     -0.159000
      2 C02         7.4770   -3.6600    0.4260 c1        1 26G     -0.041000
      3 C2          5.9080   -5.8810   -2.6500 c2        1 26G     -0.162000
      4 C5          9.0580   -7.0330   -1.3400 c1        1 26G     -0.125000
      5 C4          6.2610   -0.6230    0.2070 c1        1 26G     -0.196000
      6 C01         5.6750    0.4050    0.0220 c1        1 26G     -0.222000
      7 C7A         4.9930    1.6470   -0.2110 c3        1 26G      0.005000
      8 C4A         2.7100    1.0300    0.7800 c2        1 26G      0.162000
      9 N3A         1.3440    0.9210    0.6450 n2        1 26G     -0.241000
     10 C2A         0.8040    1.3020   -0.5450 c2        1 26G      0.060000
     11 N1A         1.5020    1.7680   -1.6310 n2        1 26G     -0.212000
     12 C6A         2.8360    1.8510   -1.4870 c2        1 26G     -0.003000
     13 C5A         3.5180    1.5020   -0.3090 c2        1 26G     -0.238000
     14 C28         7.9730   -7.3900   -2.1580 c2        1 26G     -0.032000
     15 C30         6.9400   -6.6210   -2.3950 c1        1 26G     -0.142000
     16 O31         8.5820   -3.6910   -0.2210 oh        1 26G     -0.143000
     17 H1         -1.1650    0.7580    0.2240 hc        1 26G      0.099667
     18 H2         -0.9450    0.5590   -1.5700 hc        1 26G      0.099667
     19 H3         -1.1190    2.2210   -0.8540 hc        1 26G      0.099667
     20 H4          2.7310    0.2650    2.6780 hn        1 26G      0.217000
     21 H5          4.2470    0.4730    1.9760 hn        1 26G      0.217000
     22 H6         10.8400   -6.5250   -0.0480 ha        1 26G      0.230000
     23 H7          5.9650   -3.6360   -1.4760 ha        1 26G      0.004500
     24 H8          5.9660   -2.9880   -1.2700 ha        1 26G      0.004500
     25 H9          6.9700   -4.6240    0.6630 ha        1 26G      0.013000
     26 H10         5.8790   -5.1840   -3.5020 ha        1 26G      0.144000
     27 H11         6.7870   -1.5420    0.3710 ha        1 26G      0.261000
     28 H12         5.3900    2.1060   -1.1630 hc        1 26G      0.105000
     29 H13         5.2390    2.3660    0.6250 hc        1 26G      0.105000
     30 H14         3.3920    2.2220   -2.3680 h4        1 26G      0.160000
     31 H15         8.0340   -8.3990   -2.6160 ha        1 26G      0.162000
     32 H16         4.9970   -5.9060   -2.0320 ha        1 26G      0.144000
     33 H17         8.9240   -4.5780   -0.4830 ho        1 26G      0.166000
     34 N4A         3.2910    0.7460    2.0110 nh        1 26G     -0.331000
     35 C6          9.9980   -6.7550   -0.6510 c1        1 26G     -0.214000
@<TRIPOS>BOND
     1    1   10 1   
     2    1   17 1   
     3    1   18 1   
     4    1   19 1   
     5    2   16 1   
     6    2   25 1   
     7    3   15 1   
     8    3   26 1   
     9    3   32 1   
    10    4   14 1   
    11    4   35 1   
    12    5    6 1   
    13    5   27 1   
    14    6    7 1   
    15    7   13 1   
    16    7   28 1   
    17    7   29 1   
    18    8    9 1   
    19    8   13 1   
    20    8   34 1   
    21    9   10 1   
    22   10   11 1   
    23   11   12 1   
    24   12   13 1   
    25   12   30 1   
    26   14   15 1   
    27   14   31 1   
    28   16   33 1   
    29   20   34 1   
    30   21   34 1   
    31   22   35 1   
    32   23   24 1   
@<TRIPOS>SUBSTRUCTURE
     1 26G         1 TEMP              0 ****  ****    0 ROOT
