@<TRIPOS>MOLECULE
26G
   35    34     1     0     0
SMALL
bcc


@<TRIPOS>ATOM
      1 CM2         0.0960   -0.3450   -0.7420 c3        1 26G     -0.186000
      2 C02         7.2440   -3.9450    1.3520 c1        1 26G      0.020000
      3 C2          4.6010   -2.2300   -2.6710 c2        1 26G     -0.187000
      4 C5          6.8490   -3.6510   -1.0790 c2        1 26G     -0.013000
      5 C4          6.1790   -2.5160   -0.7990 c2        1 26G     -0.115000
      6 C01         5.4030   -1.7120   -1.7300 c2        1 26G     -0.114000
      7 C7A         5.5610   -0.2320   -1.5820 c3        1 26G     -0.088000
      8 C4A         3.6710    0.0140    0.1290 c2        1 26G      0.203000
      9 N3A         2.3350   -0.2160    0.2380 n2        1 26G     -0.344000
     10 C2A         1.5730   -0.0910   -0.9030 c2        1 26G      0.186000
     11 N1A         2.0330    0.2310   -2.1560 n2        1 26G     -0.287000
     12 C6A         3.3110    0.5050   -2.3330 c1        1 26G     -0.088000
     13 C5A         4.2890    0.4980   -1.1790 c3        1 26G     -0.214000
     14 C28         6.9230   -4.2380   -2.4030 c2        1 26G     -0.449000
     15 C30         7.2230   -5.4760   -2.7310 c1        1 26G      0.193000
     16 O31         7.0830   -4.8100    2.2890 oh        1 26G     -0.143000
     17 H1         -0.1730   -0.6310    0.3030 hc        1 26G      0.111000
     18 H2         -0.2100   -1.1660   -1.4370 hc        1 26G      0.111000
     19 H3         -0.4620    0.5840   -1.0220 hc        1 26G      0.111000
     20 H4          5.4460   -0.0580    1.1240 hn        1 26G      0.245500
     21 H5          4.1010   -0.4820    2.0820 hn        1 26G      0.245500
     22 H6          6.6960   -1.1470    2.6490 ha        1 26G      0.000000
     23 H7          8.7140   -4.1360   -0.1470 hc        1 26G      0.110000
     24 H8          6.8170   -1.7810    2.4370 ha        1 26G      0.000000
     25 H9          7.5060   -5.4910   -0.1740 hc        1 26G      0.110000
     26 H10         4.4590   -3.3120   -2.7950 ha        1 26G      0.136500
     27 H11         6.2180   -2.1210    0.2360 ha        1 26G      0.145000
     28 H12         5.8790    0.1920   -2.5760 hc        1 26G      0.099000
     29 H13         6.3780   -0.0010   -0.8480 hc        1 26G      0.099000
     30 H14         4.5460    1.5930   -1.0340 hc        1 26G      0.156000
     31 H15         6.6890   -3.5370   -3.2410 ha        1 26G      0.209000
     32 H16         4.0200   -1.5870   -3.3520 ha        1 26G      0.136500
     33 H17         7.1940   -5.7580    2.0450 ho        1 26G      0.161000
     34 N4A         4.4600   -0.1360    1.2210 n3        1 26G     -0.318000
     35 C6          7.6180   -4.3780   -0.0230 c3        1 26G     -0.244000
@<TRIPOS>BOND
     1    1   10 1   
     2    1   17 1   
     3    1   18 1   
     4    1   19 1   
     5    2   16 1   
     6    2   35 1   
     7    3    6 1   
     8    3   26 1   
     9    3   32 1   
    10    4    5 1   
    11    4   14 1   
    12    4   35 1   
    13    5    6 1   
    14    5   27 1   
    15    6    7 1   
    16    7   13 1   
    17    7   28 1   
    18    7   29 1   
    19    8    9 1   
    20    8   13 1   
    21    8   34 1   
    22    9   10 1   
    23   10   11 1   
    24   11   12 1   
    25   12   13 1   
    26   13   30 1   
    27   14   15 1   
    28   14   31 1   
    29   16   33 1   
    30   20   34 1   
    31   21   34 1   
    32   22   24 1   
    33   23   35 1   
    34   25   35 1   
@<TRIPOS>SUBSTRUCTURE
     1 26G         1 TEMP              0 ****  ****    0 ROOT
