@<TRIPOS>MOLECULE
26G
   35    34     1     0     0
SMALL
bcc


@<TRIPOS>ATOM
      1 CM2         0.1670   -0.2280   -0.5070 c3        1 26G     -0.144400
      2 C02         7.2380   -7.0020   -1.2680 c1        1 26G      0.566500
      3 C2          4.4840   -2.6010   -2.2200 c2        1 26G     -0.171000
      4 C5          6.7600   -3.5360   -0.3370 ce        1 26G     -0.110200
      5 C4          6.1200   -2.3490   -0.3970 cf        1 26G     -0.096000
      6 C01         5.3270   -1.8420   -1.5040 cf        1 26G     -0.132200
      7 C7A         5.5100   -0.3910   -1.8190 c3        1 26G     -0.001200
      8 C4A         3.7780    0.4690   -0.1430 ce        1 26G      0.552300
      9 N3A         2.4700    0.2670    0.1600 ne        1 26G     -0.849000
     10 C2A         1.6110   -0.0110   -0.8830 cf        1 26G      0.793600
     11 N1A         1.9500   -0.1110   -2.2080 n1        1 26G     -0.850400
     12 C6A         3.1990    0.0870   -2.5830 c1        1 26G      0.271700
     13 C5A         4.2740    0.4630   -1.5860 c3        1 26G     -0.278900
     14 C28         6.7780   -4.4750   -1.4530 ce        1 26G      0.096900
     15 C30         7.0170   -5.7550   -1.3430 c1        1 26G     -0.409900
     16 O31         7.4470   -8.1780   -1.1970 o         1 26G     -0.411500
     17 H1         -0.0010   -0.1460    0.5940 hc        1 26G      0.073367
     18 H2         -0.1490   -1.2450   -0.8510 hc        1 26G      0.073367
     19 H3         -0.4610    0.5350   -1.0320 hc        1 26G      0.073367
     20 H4          5.6220    0.8170    0.6460 hn        1 26G      0.292200
     21 H5          4.3780    0.7380    1.8110 hn        1 26G      0.292200
     22 H6          6.7560   -0.4210    2.4210 ha        1 26G      0.001000
     23 H7          7.4110   -3.1720    1.6940 hc        1 26G      0.048033
     24 H8          7.0380   -1.0240    2.5430 ha        1 26G      0.001000
     25 H9          7.1270   -4.9140    1.2600 hc        1 26G      0.048033
     26 H10         4.3250   -3.6670   -2.0070 ha        1 26G      0.140000
     27 H11         6.1870   -1.6660    0.4720 ha        1 26G      0.118000
     28 H12         5.7710   -0.2960   -2.9110 hc        1 26G      0.058700
     29 H13         6.3750    0.0260   -1.2360 hc        1 26G      0.058700
     30 H14         4.5320    1.5350   -1.8500 hc        1 26G      0.116700
     31 H15         6.5760   -4.0320   -2.4520 ha        1 26G      0.132000
     32 H16         3.8900   -2.1810   -3.0490 ha        1 26G      0.140000
     33 H17         8.5970   -4.0560    0.6410 hc        1 26G      0.048033
     34 N4A         4.6570    0.7340    0.8580 nv        1 26G     -0.482100
     35 C6          7.5110   -3.9340    0.8810 c3        1 26G     -0.056900
@<TRIPOS>BOND
     1    1   10 1   
     2    1   17 1   
     3    1   18 1   
     4    1   19 1   
     5    2   15 2   
     6    2   16 2   
     7    3    6 2   
     8    3   26 1   
     9    3   32 1   
    10    4    5 2   
    11    4   14 1   
    12    4   35 1   
    13    5    6 1   
    14    5   27 1   
    15    6    7 1   
    16    7   13 1   
    17    7   28 1   
    18    7   29 1   
    19    8    9 1   
    20    8   13 1   
    21    8   34 2   
    22    9   10 2   
    23   10   11 1   
    24   11   12 3   
    25   12   13 1   
    26   13   30 1   
    27   14   15 2   
    28   14   31 1   
    29   20   34 1   
    30   21   34 1   
    31   22   24 1   
    32   23   35 1   
    33   25   35 1   
    34   33   35 1   
@<TRIPOS>SUBSTRUCTURE
     1 26G         1 TEMP              0 ****  ****    0 ROOT
