@<TRIPOS>MOLECULE
26J
   55    58     1     0     0
SMALL
bcc


@<TRIPOS>ATOM
      1 NBE        -0.2260   -0.7470   -0.1330 nu        1 26J     -0.441100
      2 OAE         1.0380   -1.1100    0.1170 oh        1 26J     -0.410300
      3 CAX        -0.9000   -0.2270    1.0310 ca        1 26J      0.053600
      4 CBB        -2.3070   -0.0300    0.9730 ca        1 26J      0.000900
      5 SAV        -3.0990   -0.5370   -0.4320 ss        1 26J     -0.106100
      6 CAY        -4.8020   -0.3780    0.0100 cc        1 26J      0.682100
      7 NAR        -5.2570    0.2400    1.0660 nd        1 26J     -0.709100
      8 CAZ        -4.4350    0.7970    2.0610 c         1 26J      0.715100
      9 OAD        -4.9630    1.4800    2.9530 o         1 26J     -0.511100
     10 CBA        -2.9610    0.5660    2.0580 ca        1 26J     -0.164600
     11 CAK        -2.2430    0.9700    3.1910 ca        1 26J     -0.028000
     12 CAW        -0.8670    0.7730    3.2390 ca        1 26J     -0.163300
     13 CBG        -0.0810    1.1930    4.4770 c3        1 26J      0.690200
     14 FAG         0.0560    0.1990    5.4160 f         1 26J     -0.232967
     15 FAH         1.2090    1.5910    4.2200 f         1 26J     -0.232967
     16 FAF        -0.6270    2.2430    5.1720 f         1 26J     -0.232967
     17 CAJ        -0.1930    0.1750    2.1740 ca        1 26J     -0.070000
     18 NBF        -5.6400   -1.0770   -0.8870 nh        1 26J     -0.677600
     19 CAM        -5.3570   -0.9020   -2.3070 c3        1 26J      0.175800
     20 CAO        -6.1270    0.2590   -2.9710 c3        1 26J      0.136300
     21 NBH        -7.5550    0.2320   -2.6920 n3        1 26J     -0.729600
     22 CAN        -7.8500    0.0630   -1.2720 c3        1 26J      0.136300
     23 CAL        -7.0750   -1.1070   -0.6370 c3        1 26J      0.175800
     24 C30        -8.2670    1.3780   -3.2440 c3        1 26J      0.170800
     25 C31        -8.2040    1.5110   -4.7710 c3        1 26J     -0.061700
     26 C32        -8.9580    2.7720   -5.1750 c3        1 26J     -0.072900
     27 C33        -8.9620    2.9480   -6.6790 c3        1 26J     -0.076900
     28 C34        -9.5420    1.7330   -7.3730 c3        1 26J     -0.077400
     29 C35        -8.8090    0.4710   -6.9690 c3        1 26J     -0.076900
     30 C36        -8.7950    0.2940   -5.4650 c3        1 26J     -0.072900
     31 H1         -0.7200   -1.5910   -0.4380 hn        1 26J      0.393800
     32 H2          1.5850   -0.3880   -0.2510 ho        1 26J      0.432000
     33 H3         -2.7790    1.4500    4.0300 ha        1 26J      0.184000
     34 H4          0.8970    0.0140    2.2370 ha        1 26J      0.169000
     35 H5         -5.6490   -1.8730   -2.8020 h1        1 26J      0.076450
     36 H6         -4.2560   -0.7370   -2.4830 h1        1 26J      0.076450
     37 H7         -5.6540    1.2350   -2.6570 h1        1 26J      0.048200
     38 H8         -5.9950    0.1520   -4.0840 h1        1 26J      0.048200
     39 H10        -7.6380    1.0020   -0.6820 h1        1 26J      0.048200
     40 H11        -8.9490   -0.1640   -1.1780 h1        1 26J      0.048200
     41 H12        -7.2920   -1.1220    0.4650 h1        1 26J      0.076450
     42 H13        -7.4370   -2.0800   -1.0810 h1        1 26J      0.076450
     43 H14        -9.3500    1.2660   -2.9480 h1        1 26J      0.036200
     44 H15        -7.8900    2.3460   -2.7960 h1        1 26J      0.036200
     45 H16        -7.1320    1.6260   -5.0940 hc        1 26J      0.046700
     46 H17        -8.4800    3.6660   -4.6940 hc        1 26J      0.043950
     47 H18       -10.0140    2.7120   -4.8010 hc        1 26J      0.043950
     48 H19        -9.5620    3.8570   -6.9460 hc        1 26J      0.039200
     49 H20        -7.9140    3.1190   -7.0390 hc        1 26J      0.039200
     50 H21        -9.4770    1.8680   -8.4840 hc        1 26J      0.040200
     51 H22       -10.6280    1.6350   -7.1090 hc        1 26J      0.040200
     52 H23        -9.3010   -0.4170   -7.4440 hc        1 26J      0.039200
     53 H24        -7.7550    0.5150   -7.3500 hc        1 26J      0.039200
     54 H25        -8.1970   -0.6180   -5.2030 hc        1 26J      0.043950
     55 H26        -9.8410    0.1280   -5.0950 hc        1 26J      0.043950
@<TRIPOS>BOND
     1    1    2 1   
     2    1    3 1   
     3    1   31 1   
     4    2   32 1   
     5    3    4 ar  
     6    3   17 ar  
     7    4    5 1   
     8    4   10 ar  
     9    5    6 1   
    10    6    7 2   
    11    6   18 1   
    12    7    8 1   
    13    8    9 2   
    14    8   10 1   
    15   10   11 ar  
    16   11   12 ar  
    17   11   33 1   
    18   12   13 1   
    19   12   17 ar  
    20   13   14 1   
    21   13   15 1   
    22   13   16 1   
    23   17   34 1   
    24   18   19 1   
    25   18   23 1   
    26   19   20 1   
    27   19   35 1   
    28   19   36 1   
    29   20   21 1   
    30   20   37 1   
    31   20   38 1   
    32   21   22 1   
    33   21   24 1   
    34   22   23 1   
    35   22   39 1   
    36   22   40 1   
    37   23   41 1   
    38   23   42 1   
    39   24   25 1   
    40   24   43 1   
    41   24   44 1   
    42   25   26 1   
    43   25   30 1   
    44   25   45 1   
    45   26   27 1   
    46   26   46 1   
    47   26   47 1   
    48   27   28 1   
    49   27   48 1   
    50   27   49 1   
    51   28   29 1   
    52   28   50 1   
    53   28   51 1   
    54   29   30 1   
    55   29   52 1   
    56   29   53 1   
    57   30   54 1   
    58   30   55 1   
@<TRIPOS>SUBSTRUCTURE
     1 26J         1 TEMP              0 ****  ****    0 ROOT
