@<TRIPOS>MOLECULE
26J
   56    59     1     0     0
SMALL
bcc


@<TRIPOS>ATOM
      1 NBE        -0.3320   -0.8780   -0.1400 n4        1 26J     -0.402900
      2 OAE         0.9470   -0.4330   -0.2570 oh        1 26J     -0.350300
      3 CAX        -0.9470   -0.2800    1.0680 ca        1 26J     -0.074400
      4 CBB        -2.3580   -0.1280    1.0920 ca        1 26J      0.072900
      5 SAV        -3.2370   -0.6380   -0.2540 ss        1 26J     -0.285100
      6 CAY        -4.9650   -0.2860    0.2220 cc        1 26J      0.801100
      7 NAR        -5.2820    0.3050    1.3290 nd        1 26J     -0.698100
      8 CAZ        -4.4100    0.6550    2.3680 c         1 26J      0.728100
      9 OAD        -4.8660    1.1710    3.3940 o         1 26J     -0.461100
     10 CBA        -2.9320    0.4300    2.2400 ca        1 26J     -0.172600
     11 CAK        -2.1340    0.8180    3.3270 ca        1 26J      0.044000
     12 CAW        -0.7500    0.6560    3.2740 ca        1 26J     -0.178300
     13 CBG         0.1200    1.0630    4.4680 c3        1 26J      0.696200
     14 FAG         0.3490    0.0330    5.3460 f         1 26J     -0.213633
     15 FAH         1.3690    1.5030    4.1100 f         1 26J     -0.213633
     16 FAF        -0.4140    2.0710    5.2260 f         1 26J     -0.213633
     17 CAJ        -0.1400    0.1120    2.1430 ca        1 26J      0.013000
     18 NBF        -5.8500   -0.8370   -0.6910 nh        1 26J     -0.677600
     19 CAM        -5.5190   -0.7820   -2.1110 c3        1 26J      0.180800
     20 CAO        -6.1990    0.3820   -2.8660 c3        1 26J      0.140800
     21 NBH        -7.6300    0.4430   -2.6260 n3        1 26J     -0.729600
     22 CAN        -7.9600    0.4260   -1.2060 c3        1 26J      0.140800
     23 CAL        -7.2900   -0.7430   -0.4590 c3        1 26J      0.180800
     24 C30        -8.2900    1.5480   -3.3130 c3        1 26J      0.169800
     25 C31        -8.1610    1.5400   -4.8420 c3        1 26J     -0.061700
     26 C32        -8.8770    2.7710   -5.3870 c3        1 26J     -0.072900
     27 C33        -8.8140    2.8120   -6.9000 c3        1 26J     -0.076900
     28 C34        -9.3830    1.5480   -7.5100 c3        1 26J     -0.079400
     29 C35        -8.6890    0.3170   -6.9640 c3        1 26J     -0.076900
     30 C36        -8.7440    0.2740   -5.4500 c3        1 26J     -0.072900
     31 H1         -0.8980   -0.6000   -0.9710 hn        1 26J      0.474300
     32 H2          1.3230   -0.7790   -1.0990 ho        1 26J      0.472000
     33 H3         -2.6180    1.2620    4.2230 ha        1 26J      0.214000
     34 H4          0.9610    0.0100    2.1080 ha        1 26J      0.193000
     35 H5         -4.4070   -0.7000   -2.2680 h1        1 26J      0.082950
     36 H6         -5.8680   -1.7640   -2.5470 h1        1 26J      0.082950
     37 H7         -5.6770    1.3460   -2.5940 h1        1 26J      0.055450
     38 H8         -6.0420    0.1970   -3.9660 h1        1 26J      0.055450
     39 H10        -9.0740    0.2880   -1.1130 h1        1 26J      0.055450
     40 H11        -7.6860    1.3940   -0.6940 h1        1 26J      0.055450
     41 H12        -7.7130   -1.7220   -0.8300 h1        1 26J      0.082950
     42 H13        -7.5220   -0.6500    0.6370 h1        1 26J      0.082950
     43 H14        -7.9080    2.5430   -2.9360 h1        1 26J      0.042700
     44 H15        -9.3860    1.4820   -3.0560 h1        1 26J      0.042700
     45 H16        -7.0750    1.6140   -5.1290 hc        1 26J      0.040700
     46 H17        -8.4070    3.6970   -4.9660 hc        1 26J      0.044450
     47 H18        -9.9490    2.7550   -5.0580 hc        1 26J      0.044450
     48 H19        -7.7480    2.9400   -7.2270 hc        1 26J      0.041700
     49 H20        -9.3880    3.7010   -7.2710 hc        1 26J      0.041700
     50 H21       -10.4810    1.4880   -7.2890 hc        1 26J      0.046200
     51 H22        -9.2650    1.5830   -8.6240 hc        1 26J      0.046200
     52 H23        -7.6190    0.3120   -7.3000 hc        1 26J      0.041700
     53 H24        -9.1770   -0.6030   -7.3790 hc        1 26J      0.041700
     54 H25        -9.8080    0.1580   -5.1150 hc        1 26J      0.044450
     55 H26        -8.1750   -0.6200   -5.0830 hc        1 26J      0.044450
     56 HBE2       -0.3430   -1.9120   -0.0290 hn        1 26J      0.474300
@<TRIPOS>BOND
     1    1    2 1   
     2    1    3 1   
     3    1   31 1   
     4    1   56 1   
     5    2   32 1   
     6    3    4 ar  
     7    3   17 ar  
     8    4    5 1   
     9    4   10 ar  
    10    5    6 1   
    11    6    7 2   
    12    6   18 1   
    13    7    8 1   
    14    8    9 2   
    15    8   10 1   
    16   10   11 ar  
    17   11   12 ar  
    18   11   33 1   
    19   12   13 1   
    20   12   17 ar  
    21   13   14 1   
    22   13   15 1   
    23   13   16 1   
    24   17   34 1   
    25   18   19 1   
    26   18   23 1   
    27   19   20 1   
    28   19   35 1   
    29   19   36 1   
    30   20   21 1   
    31   20   37 1   
    32   20   38 1   
    33   21   22 1   
    34   21   24 1   
    35   22   23 1   
    36   22   39 1   
    37   22   40 1   
    38   23   41 1   
    39   23   42 1   
    40   24   25 1   
    41   24   43 1   
    42   24   44 1   
    43   25   26 1   
    44   25   30 1   
    45   25   45 1   
    46   26   27 1   
    47   26   46 1   
    48   26   47 1   
    49   27   28 1   
    50   27   48 1   
    51   27   49 1   
    52   28   29 1   
    53   28   50 1   
    54   28   51 1   
    55   29   30 1   
    56   29   52 1   
    57   29   53 1   
    58   30   54 1   
    59   30   55 1   
@<TRIPOS>SUBSTRUCTURE
     1 26J         1 TEMP              0 ****  ****    0 ROOT
