@<TRIPOS>MOLECULE
26J
   55    58     1     0     0
SMALL
bcc


@<TRIPOS>ATOM
      1 NBE        -0.2360   -0.7750   -0.1280 nh        1 26J     -0.441100
      2 OAE         1.0260   -1.1470    0.1240 oh        1 26J     -0.410300
      3 CAX        -0.9050   -0.2440    1.0340 ca        1 26J      0.053600
      4 CBB        -2.3100   -0.0360    0.9760 ca        1 26J      0.000900
      5 SAV        -3.1080   -0.5450   -0.4260 ss        1 26J     -0.106100
      6 CAY        -4.8090   -0.3710    0.0160 cc        1 26J      0.682100
      7 NAR        -5.2580    0.2580    1.0690 nd        1 26J     -0.709100
      8 CAZ        -4.4310    0.8150    2.0610 c         1 26J      0.715100
      9 OAD        -4.9530    1.5070    2.9480 o         1 26J     -0.511100
     10 CBA        -2.9590    0.5710    2.0580 ca        1 26J     -0.164600
     11 CAK        -2.2370    0.9770    3.1870 ca        1 26J     -0.028000
     12 CAW        -0.8630    0.7690    3.2360 ca        1 26J     -0.163300
     13 CBG        -0.0720    1.1900    4.4710 c3        1 26J      0.690200
     14 FAG         0.0600    0.2000    5.4150 f         1 26J     -0.232967
     15 FAH         1.2200    1.5790    4.2110 f         1 26J     -0.232967
     16 FAF        -0.6110    2.2470    5.1610 f         1 26J     -0.232967
     17 CAJ        -0.1950    0.1600    2.1740 ca        1 26J     -0.070000
     18 NBF        -5.6530   -1.0680   -0.8750 nh        1 26J     -0.677600
     19 CAM        -5.3690   -0.9060   -2.2960 c3        1 26J      0.175800
     20 CAO        -6.1310    0.2570   -2.9680 c3        1 26J      0.136300
     21 NBH        -7.5580    0.2430   -2.6880 n3        1 26J     -0.729600
     22 CAN        -7.8540    0.0860   -1.2680 c3        1 26J      0.136300
     23 CAL        -7.0880   -1.0860   -0.6250 c3        1 26J      0.175800
     24 C30        -8.2620    1.3900   -3.2480 c3        1 26J      0.170800
     25 C31        -8.1990    1.5120   -4.7760 c3        1 26J     -0.061700
     26 C32        -8.9440    2.7760   -5.1880 c3        1 26J     -0.072900
     27 C33        -8.9480    2.9410   -6.6940 c3        1 26J     -0.076900
     28 C34        -9.5360    1.7260   -7.3800 c3        1 26J     -0.077400
     29 C35        -8.8110    0.4620   -6.9670 c3        1 26J     -0.076900
     30 C36        -8.7980    0.2940   -5.4610 c3        1 26J     -0.072900
     31 H1         -0.7370   -1.6170   -0.4270 hn        1 26J      0.393800
     32 H2          1.5780   -0.4310   -0.2480 ho        1 26J      0.432000
     33 H3         -2.7690    1.4660    4.0240 ha        1 26J      0.184000
     34 H4          0.8950   -0.0090    2.2370 ha        1 26J      0.169000
     35 H5         -5.6690   -1.8770   -2.7850 h1        1 26J      0.076450
     36 H6         -4.2670   -0.7500   -2.4740 h1        1 26J      0.076450
     37 H7         -6.0000    0.1420   -4.0800 h1        1 26J      0.048200
     38 H8         -5.6500    1.2320   -2.6610 h1        1 26J      0.048200
     39 H10        -8.9550   -0.1310   -1.1710 h1        1 26J      0.048200
     40 H11        -7.6340    1.0280   -0.6840 h1        1 26J      0.048200
     41 H12        -7.4580   -2.0580   -1.0610 h1        1 26J      0.076450
     42 H13        -7.3050   -1.0910    0.4780 h1        1 26J      0.076450
     43 H14        -7.8780    2.3580   -2.8070 h1        1 26J      0.036200
     44 H15        -9.3450    1.2880   -2.9510 h1        1 26J      0.036200
     45 H16        -7.1260    1.6180   -5.1000 hc        1 26J      0.046700
     46 H17        -8.4600    3.6690   -4.7140 hc        1 26J      0.043950
     47 H18       -10.0000    2.7250   -4.8140 hc        1 26J      0.043950
     48 H19        -7.8980    3.1030   -7.0550 hc        1 26J      0.039200
     49 H20        -9.5420    3.8520   -6.9670 hc        1 26J      0.039200
     50 H21        -9.4700    1.8520   -8.4910 hc        1 26J      0.040200
     51 H22       -10.6230    1.6370   -7.1140 hc        1 26J      0.040200
     52 H23        -7.7570    0.4960   -7.3480 hc        1 26J      0.039200
     53 H24        -9.3090   -0.4270   -7.4350 hc        1 26J      0.039200
     54 H25        -8.2060   -0.6190   -5.1940 hc        1 26J      0.043950
     55 H26        -9.8450    0.1380   -5.0900 hc        1 26J      0.043950
@<TRIPOS>BOND
     1    1    2 1   
     2    1    3 1   
     3    1   31 1   
     4    2   32 1   
     5    3    4 ar  
     6    3   17 ar  
     7    4    5 1   
     8    4   10 ar  
     9    5    6 1   
    10    6    7 2   
    11    6   18 1   
    12    7    8 1   
    13    8    9 2   
    14    8   10 1   
    15   10   11 ar  
    16   11   12 ar  
    17   11   33 1   
    18   12   13 1   
    19   12   17 ar  
    20   13   14 1   
    21   13   15 1   
    22   13   16 1   
    23   17   34 1   
    24   18   19 1   
    25   18   23 1   
    26   19   20 1   
    27   19   35 1   
    28   19   36 1   
    29   20   21 1   
    30   20   37 1   
    31   20   38 1   
    32   21   22 1   
    33   21   24 1   
    34   22   23 1   
    35   22   39 1   
    36   22   40 1   
    37   23   41 1   
    38   23   42 1   
    39   24   25 1   
    40   24   43 1   
    41   24   44 1   
    42   25   26 1   
    43   25   30 1   
    44   25   45 1   
    45   26   27 1   
    46   26   46 1   
    47   26   47 1   
    48   27   28 1   
    49   27   48 1   
    50   27   49 1   
    51   28   29 1   
    52   28   50 1   
    53   28   51 1   
    54   29   30 1   
    55   29   52 1   
    56   29   53 1   
    57   30   54 1   
    58   30   55 1   
@<TRIPOS>SUBSTRUCTURE
     1 26J         1 TEMP              0 ****  ****    0 ROOT
