@<TRIPOS>MOLECULE
26K
   38    40     1     0     0
SMALL
bcc


@<TRIPOS>ATOM
      1 N1          0.3890    0.0040   -0.7880 n4        1 26K     -0.669400
      2 N3         -0.0750    2.3240   -6.7000 na        1 26K      0.025200
      3 C4         -1.5760    1.1120   -1.9650 c3        1 26K      0.205800
      4 C5         -1.2120    2.1540   -4.1750 cc        1 26K      0.661200
      5 C6         -1.5420    3.2550   -5.0730 cc        1 26K     -0.336300
      6 C7         -0.9630    3.3110   -6.3190 cd        1 26K      0.052700
      7 C8          0.2070    1.2450   -5.7650 cd        1 26K      0.383500
      8 C10         1.6790   -0.8180   -5.9810 cc        1 26K     -0.176100
      9 C13         1.3250    1.0340   -7.7290 cc        1 26K      0.405500
     10 C2          1.2510   -0.5960   -1.8430 c3        1 26K      0.077600
     11 C1          1.1600    0.1880    0.4690 c3        1 26K      0.077600
     12 C3         -0.2100    1.3000   -1.2440 c3        1 26K      0.055800
     13 N2         -1.8800    2.1090   -2.9380 nh        1 26K     -0.848900
     14 N7         -0.3420    1.1820   -4.5080 nd        1 26K     -0.748000
     15 C9          1.1200    0.3960   -6.4450 cc        1 26K     -0.175800
     16 C12         2.9300   -1.3910   -6.2910 cd        1 26K     -0.128300
     17 N5          3.0090   -2.5740   -5.5570 na        1 26K     -0.012600
     18 N4          1.9100   -2.8040   -4.8380 nd        1 26K     -0.525800
     19 C11         1.0700   -1.7620   -5.0610 cc        1 26K      0.281200
     20 N6          0.6040    2.1750   -7.8520 nd        1 26K     -0.530100
     21 H2         -2.3880    1.1410   -1.1820 h1        1 26K      0.082200
     22 H3         -1.6100    0.1010   -2.4680 h1        1 26K      0.082200
     23 H4         -2.2620    4.0270   -4.7710 ha        1 26K      0.172000
     24 H5         -1.1740    4.1170   -7.0480 h4        1 26K      0.199000
     25 H6          1.9650    0.6760   -8.5400 h4        1 26K      0.068800
     26 H7          0.6750   -0.6720   -2.8090 hx        1 26K      0.109867
     27 H8          1.5770   -1.6190   -1.5150 hx        1 26K      0.109867
     28 H9          2.1520    0.0540   -2.0060 hx        1 26K      0.109867
     29 H10         1.6280   -0.7910    0.7620 hx        1 26K      0.109867
     30 H11         0.4730    0.5340    1.2860 hx        1 26K      0.109867
     31 H12         1.9660    0.9520    0.3060 hx        1 26K      0.109867
     32 H13        -0.3620    1.9550   -0.3400 hx        1 26K      0.106200
     33 H14         0.5360    1.8030   -1.9250 hx        1 26K      0.106200
     34 H15        -2.1940    2.9910   -2.5970 hn        1 26K      0.440800
     35 H16         3.7320   -1.0510   -6.9460 h4        1 26K      0.190000
     36 H17         3.7300   -3.2580   -5.6030 hn        1 26K      0.332700
     37 H18         0.0670   -1.7090   -4.6370 h4        1 26K      0.040100
     38 H111       -0.3810   -0.6520   -0.5980 hn        1 26K      0.446800
@<TRIPOS>BOND
     1    1   10 1   
     2    1   11 1   
     3    1   12 1   
     4    1   38 1   
     5    2    6 1   
     6    2    7 1   
     7    2   20 1   
     8    3   12 1   
     9    3   13 1   
    10    3   21 1   
    11    3   22 1   
    12    4    5 1   
    13    4   13 1   
    14    4   14 2   
    15    5    6 2   
    16    5   23 1   
    17    6   24 1   
    18    7   14 1   
    19    7   15 2   
    20    8   15 1   
    21    8   16 2   
    22    8   19 1   
    23    9   15 1   
    24    9   20 2   
    25    9   25 1   
    26   10   26 1   
    27   10   27 1   
    28   10   28 1   
    29   11   29 1   
    30   11   30 1   
    31   11   31 1   
    32   12   32 1   
    33   12   33 1   
    34   13   34 1   
    35   16   17 1   
    36   16   35 1   
    37   17   18 1   
    38   17   36 1   
    39   18   19 2   
    40   19   37 1   
@<TRIPOS>SUBSTRUCTURE
     1 26K         1 TEMP              0 ****  ****    0 ROOT
