@<TRIPOS>MOLECULE
26K
   38    40     1     0     0
SMALL
bcc


@<TRIPOS>ATOM
      1 N1          0.3910   -0.0130   -0.7920 nx        1 26K     -0.673400
      2 N3         -0.1030    2.3000   -6.7400 na        1 26K      0.024200
      3 C4         -1.5190    1.2070   -1.9520 c3        1 26K      0.211800
      4 C5         -1.1710    2.2110   -4.1810 cc        1 26K      0.668200
      5 C6         -1.5420    3.2700   -5.1110 cc        1 26K     -0.338300
      6 C7         -0.9920    3.2910   -6.3710 cd        1 26K      0.053700
      7 C8          0.2060    1.2520   -5.7790 cd        1 26K      0.386500
      8 C10         1.6810   -0.8120   -5.9700 cc        1 26K     -0.174100
      9 C13         1.2790    0.9860   -7.7620 cc        1 26K      0.406500
     10 C2          1.2830   -0.5860   -1.8370 c3        1 26K      0.077600
     11 C1          1.1120    0.0950    0.5030 c3        1 26K      0.077600
     12 C3         -0.1550    1.3200   -1.2130 c3        1 26K      0.082800
     13 N2         -1.6940    2.2820   -2.8800 nu        1 26K     -0.869900
     14 N7         -0.3190    1.2210   -4.5110 nd        1 26K     -0.750000
     15 C9          1.1060    0.3870   -6.4550 cc        1 26K     -0.179800
     16 C12         2.9400   -1.3730   -6.2680 cd        1 26K     -0.128300
     17 N5          3.0330   -2.5430   -5.5140 na        1 26K     -0.012600
     18 N4          1.9370   -2.7760   -4.7930 nd        1 26K     -0.526800
     19 C11         1.0830   -1.7480   -5.0340 cc        1 26K      0.280200
     20 N6          0.5490    2.1190   -7.9040 nd        1 26K     -0.531100
     21 H2         -1.5950    0.2030   -2.4650 h1        1 26K      0.067700
     22 H3         -2.3380    1.2620   -1.1780 h1        1 26K      0.067700
     23 H4         -2.2500    4.0550   -4.8130 ha        1 26K      0.171000
     24 H5         -1.2260    4.0720   -7.1210 h4        1 26K      0.199000
     25 H6          1.9020    0.6070   -8.5760 h4        1 26K      0.068800
     26 H7          2.2040    0.0480   -1.9320 hx        1 26K      0.109700
     27 H8          0.7450   -0.6040   -2.8280 hx        1 26K      0.109700
     28 H9          1.5720   -1.6310   -1.5440 hx        1 26K      0.109700
     29 H10         0.3990    0.4230    1.3060 hx        1 26K      0.109700
     30 H11         1.9420    0.8440    0.4080 hx        1 26K      0.109700
     31 H12         1.5430   -0.9080    0.7700 hx        1 26K      0.109700
     32 H13         0.6160    1.8170   -1.8700 hx        1 26K      0.113200
     33 H14        -0.2950    1.9530   -0.2920 hx        1 26K      0.113200
     34 H15        -2.5250    2.8220   -2.7830 hn        1 26K      0.452800
     35 H16         3.7380   -1.0340   -6.9280 h4        1 26K      0.190000
     36 H17         3.7640   -3.2170   -5.5480 hn        1 26K      0.332700
     37 H18         0.0810   -1.7000   -4.6110 h4        1 26K      0.038100
     38 H111       -0.4000   -0.6580   -0.6650 hn        1 26K      0.444800
@<TRIPOS>BOND
     1    1   10 1   
     2    1   11 1   
     3    1   12 1   
     4    1   38 1   
     5    2    6 1   
     6    2    7 1   
     7    2   20 1   
     8    3   12 1   
     9    3   13 1   
    10    3   21 1   
    11    3   22 1   
    12    4    5 1   
    13    4   13 1   
    14    4   14 2   
    15    5    6 2   
    16    5   23 1   
    17    6   24 1   
    18    7   14 1   
    19    7   15 2   
    20    8   15 1   
    21    8   16 2   
    22    8   19 1   
    23    9   15 1   
    24    9   20 2   
    25    9   25 1   
    26   10   26 1   
    27   10   27 1   
    28   10   28 1   
    29   11   29 1   
    30   11   30 1   
    31   11   31 1   
    32   12   32 1   
    33   12   33 1   
    34   13   34 1   
    35   16   17 1   
    36   16   35 1   
    37   17   18 1   
    38   17   36 1   
    39   18   19 2   
    40   19   37 1   
@<TRIPOS>SUBSTRUCTURE
     1 26K         1 TEMP              0 ****  ****    0 ROOT
