@<TRIPOS>MOLECULE
26K
   37    39     1     0     0
SMALL
bcc


@<TRIPOS>ATOM
      1 N1          4.8190   -0.8680    0.0280 n3        1 26K     -0.737600
      2 N3         -2.1360    2.1720    0.0270 na        1 26K      0.016200
      3 C4          2.6290    0.3130   -0.0170 c3        1 26K      0.191800
      4 C5          0.6100    1.7260    0.0190 cc        1 26K      0.670200
      5 C6          0.0600    3.0810   -0.0630 cc        1 26K     -0.336300
      6 C7         -1.2990    3.2690   -0.0530 cd        1 26K      0.024700
      7 C8         -1.5360    0.8480    0.0950 cd        1 26K      0.406500
      8 C10        -2.6270   -1.4600    0.2420 cc        1 26K     -0.164100
      9 C13        -3.8060    0.8060    0.1270 cc        1 26K      0.389500
     10 C2          4.7610   -1.5650   -1.2360 c3        1 26K      0.157100
     11 C1          6.1530   -0.8140    0.5810 c3        1 26K      0.157100
     12 C3          4.1710    0.4340    0.0020 c3        1 26K      0.161800
     13 N2          2.0000    1.6090    0.1050 nh        1 26K     -0.839900
     14 N7         -0.1830    0.6360    0.0800 nd        1 26K     -0.708000
     15 C9         -2.6400   -0.0490    0.1610 cc        1 26K     -0.183800
     16 C12        -3.7360   -2.3310    0.2690 cd        1 26K     -0.156300
     17 N5         -3.2160   -3.6230    0.3520 na        1 26K     -0.024600
     18 N4         -1.8820   -3.6350    0.3810 nd        1 26K     -0.524800
     19 C11        -1.4740   -2.3440    0.3160 cc        1 26K      0.317200
     20 N6         -3.4810    2.1200    0.0470 nd        1 26K     -0.565100
     21 H2          2.3040   -0.2020   -0.9670 h1        1 26K      0.064700
     22 H3          2.2900   -0.3210    0.8510 h1        1 26K      0.064700
     23 H4          0.7300    3.9480   -0.1170 ha        1 26K      0.158000
     24 H5         -1.7720    4.2660   -0.1080 h4        1 26K      0.179000
     25 H6         -4.8480    0.4820    0.1610 h4        1 26K      0.049800
     26 H7          5.3000   -1.0270   -2.0640 h1        1 26K      0.033700
     27 H8          5.2220   -2.5800   -1.1120 h1        1 26K      0.033700
     28 H9          3.6880   -1.6960   -1.5350 h1        1 26K      0.033700
     29 H10         6.8600   -0.1830   -0.0250 h1        1 26K      0.033700
     30 H11         6.1030   -0.3960    1.6210 h1        1 26K      0.033700
     31 H12         6.5630   -1.8560    0.6350 h1        1 26K      0.033700
     32 H13         4.4750    0.9990    0.9300 h1        1 26K      0.033700
     33 H14         4.5010    1.0440   -0.8910 h1        1 26K      0.033700
     34 H15         2.4950    2.3660   -0.3160 hn        1 26K      0.411800
     35 H16        -4.8040   -2.1300    0.2350 h4        1 26K      0.172000
     36 H17        -3.7280   -4.4710    0.3940 hn        1 26K      0.317700
     37 H18        -0.4220   -2.0570    0.3250 h4        1 26K      0.059100
@<TRIPOS>BOND
     1    1   10 1   
     2    1   11 1   
     3    1   12 1   
     4    2    6 1   
     5    2    7 1   
     6    2   20 1   
     7    3   12 1   
     8    3   13 1   
     9    3   21 1   
    10    3   22 1   
    11    4    5 1   
    12    4   13 1   
    13    4   14 2   
    14    5    6 2   
    15    5   23 1   
    16    6   24 1   
    17    7   14 1   
    18    7   15 2   
    19    8   15 1   
    20    8   16 2   
    21    8   19 1   
    22    9   15 1   
    23    9   20 2   
    24    9   25 1   
    25   10   26 1   
    26   10   27 1   
    27   10   28 1   
    28   11   29 1   
    29   11   30 1   
    30   11   31 1   
    31   12   32 1   
    32   12   33 1   
    33   13   34 1   
    34   16   17 1   
    35   16   35 1   
    36   17   18 1   
    37   17   36 1   
    38   18   19 2   
    39   19   37 1   
@<TRIPOS>SUBSTRUCTURE
     1 26K         1 TEMP              0 ****  ****    0 ROOT
