@<TRIPOS>MOLECULE
26K
   37    29     1     0     0
SMALL
bcc


@<TRIPOS>ATOM
      1 N1         -1.7050    1.1390    4.1010 n3        1 26K     -0.265000
      2 N3          0.0240    1.0290   -3.0830 n1        1 26K     -0.090000
      3 C4         -0.9460    0.4280    1.9280 c3        1 26K     -0.063000
      4 C5          0.0300    0.6710   -0.3510 c1        1 26K      0.122000
      5 C6         -0.5010    1.8290   -0.9030 c1        1 26K     -0.244000
      6 C7         -0.5010    2.0010   -2.2730 c1        1 26K      0.039000
      7 C8          0.5430   -0.1030   -2.5400 c1        1 26K      0.034000
      8 C10         1.6950   -2.2860   -3.7340 c1        1 26K     -0.097000
      9 C13         0.6510   -0.2910   -4.7590 c1        1 26K     -0.112000
     10 C2         -1.7160    0.3300    5.3420 c3        1 26K     -0.119500
     11 C1         -1.7140    2.5690    4.4520 c3        1 26K     -0.119500
     12 C3         -0.5400    0.8500    3.3410 c3        1 26K     -0.102000
     13 N2          0.1940    0.4360    1.0820 n2        1 26K     -0.257000
     14 N7          0.5430   -0.2780   -1.1480 n2        1 26K     -0.185000
     15 C9          0.9370   -0.9320   -3.5770 c1        1 26K     -0.096000
     16 C12         3.0160   -2.6630   -3.8260 c1        1 26K     -0.134000
     17 N5          3.0570   -4.0130   -3.9470 n2        1 26K     -0.129000
     18 N4          1.7560   -4.4860   -3.9310 n2        1 26K     -0.129000
     19 C11         0.9240   -3.4260   -3.8010 c1        1 26K     -0.134000
     20 N6          0.0920    0.9120   -4.4620 n1        1 26K     -0.093000
     21 H2         -1.3240   -0.4620    1.9550 h1        1 26K      0.107000
     22 H3         -1.5800    1.0250    1.5980 h1        1 26K      0.107000
     23 H4         -1.0030    2.4400   -0.3410 ha        1 26K      0.167000
     24 H5         -0.8900    2.8470   -2.6800 ha        1 26K      0.181000
     25 H6          0.8320   -0.6250   -5.6390 DU        1 26K      0.205250
     26 H7         -2.6010    0.4160    5.7830 h1        1 26K      0.072833
     27 H8         -1.0480    0.6400    5.9210 h1        1 26K      0.072833
     28 H9         -1.5420   -0.6600    5.1130 h1        1 26K      0.072833
     29 H10        -2.5190    2.7750    4.9240 h1        1 26K      0.072833
     30 H11        -1.6650    3.1310    3.5980 h1        1 26K      0.072833
     31 H12        -0.9720    2.7640    4.9990 h1        1 26K      0.072833
     32 H13        -0.0540    0.1450    3.7560 h1        1 26K      0.077000
     33 H14         0.0440    1.6800    3.2900 h1        1 26K      0.077000
     34 H15         0.9840    0.1710    1.3990 hn        1 26K      0.199000
     35 H16         3.8270   -2.0350   -3.8070 DU        1 26K      0.205250
     36 H17         3.7800   -4.5010   -4.0210 DU        1 26K      0.205250
     37 H18        -0.1060   -3.4670   -3.7570 DU        1 26K      0.205250
@<TRIPOS>BOND
     1    1   10 1   
     2    1   11 1   
     3    1   12 1   
     4    2    6 1   
     5    3   12 1   
     6    3   13 1   
     7    3   21 1   
     8    3   22 1   
     9    4    5 1   
    10    4   14 1   
    11    5   23 1   
    12    6   24 1   
    13    7   14 1   
    14    8   16 1   
    15    8   19 1   
    16    9   15 1   
    17    9   20 1   
    18   10   26 1   
    19   10   27 1   
    20   10   28 1   
    21   11   29 1   
    22   11   30 1   
    23   11   31 1   
    24   12   32 1   
    25   12   33 1   
    26   13   34 1   
    27   16   17 1   
    28   17   18 1   
    29   18   19 1   
@<TRIPOS>SUBSTRUCTURE
     1 26K         1 TEMP              0 ****  ****    0 ROOT
