@<TRIPOS>MOLECULE
26K
   39    41     1     0     0
SMALL
bcc


@<TRIPOS>ATOM
      1 N1         -0.3640    0.1940    0.2030 n4        1 26K     -0.673400
      2 N3         -0.6530    1.8540   -7.0790 na        1 26K      0.032200
      3 C4         -0.2540    1.1710   -2.1310 c3        1 26K      0.077800
      4 C5         -0.2250    2.1640   -4.3850 cc        1 26K      0.406200
      5 C6         -1.2100    2.9850   -5.0500 cc        1 26K     -0.317300
      6 C7         -1.3960    2.8060   -6.4060 cd        1 26K      0.072700
      7 C8          0.3300    1.0570   -6.3130 cd        1 26K      0.285500
      8 C10         1.9320   -0.7770   -7.0830 cc        1 26K     -0.265100
      9 C13         0.2680    0.5270   -8.5210 cc        1 26K      0.372500
     10 C2          0.7770   -0.7630    0.1410 c3        1 26K      0.076600
     11 C1         -0.6430    0.5740    1.6220 c3        1 26K      0.076600
     12 C3         -0.1090    1.4210   -0.6160 c3        1 26K      0.072800
     13 N2          0.0010    2.4010   -2.9340 n4        1 26K     -0.724700
     14 N7          0.5230    1.2270   -4.9800 nd        1 26K     -0.576000
     15 C9          0.9300    0.1880   -7.2770 cc        1 26K      0.003200
     16 C12         2.4800   -1.6660   -8.0500 cd        1 26K     -0.060300
     17 N5          3.4300   -2.4200   -7.3850 na        1 26K      0.016400
     18 N4          3.5410   -2.0910   -6.0930 nd        1 26K     -0.488800
     19 C11         2.6520   -1.0970   -5.8610 cc        1 26K      0.328200
     20 N6         -0.6570    1.5120   -8.3630 nd        1 26K     -0.443100
     21 H2         -1.2980    0.8140   -2.3790 hx        1 26K      0.136200
     22 H3          0.4800    0.3790   -2.4710 hx        1 26K      0.136200
     23 H4         -1.7970    3.7460   -4.5190 ha        1 26K      0.178000
     24 H5         -2.1250    3.4000   -6.9970 h4        1 26K      0.224000
     25 H6          0.4500    0.0810   -9.5060 h4        1 26K      0.092800
     26 H7          0.5200   -1.6780    0.7460 hx        1 26K      0.121033
     27 H8          0.9650   -1.0640   -0.9230 hx        1 26K      0.121033
     28 H9          1.6980   -0.2850    0.5740 hx        1 26K      0.121033
     29 H10        -0.8160   -0.3640    2.2200 hx        1 26K      0.121033
     30 H11        -1.5610    1.2200    1.6670 hx        1 26K      0.121033
     31 H12         0.2380    1.1290    2.0450 hx        1 26K      0.121033
     32 H13         0.9330    1.7840   -0.3720 hx        1 26K      0.122700
     33 H14        -0.8470    2.2120   -0.2860 hx        1 26K      0.122700
     34 H15         0.9730    2.7140   -2.7970 hn        1 26K      0.469300
     35 H16         2.2550   -1.7920   -9.1110 h4        1 26K      0.203000
     36 H17         4.0140   -3.1330   -7.7710 hn        1 26K      0.353700
     37 H18         2.5460   -0.6310   -4.8840 h4        1 26K      0.034100
     38 H111       -1.2010   -0.2800   -0.1690 hn        1 26K      0.461800
     39 H22        -0.6340    3.1560   -2.6450 hn        1 26K      0.469300
@<TRIPOS>BOND
     1    1   10 1   
     2    1   11 1   
     3    1   12 1   
     4    1   38 1   
     5    2    6 1   
     6    2    7 1   
     7    2   20 1   
     8    3   12 1   
     9    3   13 1   
    10    3   21 1   
    11    3   22 1   
    12    4    5 1   
    13    4   13 1   
    14    4   14 2   
    15    5    6 2   
    16    5   23 1   
    17    6   24 1   
    18    7   14 1   
    19    7   15 2   
    20    8   15 1   
    21    8   16 2   
    22    8   19 1   
    23    9   15 1   
    24    9   20 2   
    25    9   25 1   
    26   10   26 1   
    27   10   27 1   
    28   10   28 1   
    29   11   29 1   
    30   11   30 1   
    31   11   31 1   
    32   12   32 1   
    33   12   33 1   
    34   13   34 1   
    35   13   39 1   
    36   16   17 1   
    37   16   35 1   
    38   17   18 1   
    39   17   36 1   
    40   18   19 2   
    41   19   37 1   
@<TRIPOS>SUBSTRUCTURE
     1 26K         1 TEMP              0 ****  ****    0 ROOT
