@<TRIPOS>MOLECULE
26L
   51    55     1     0     0
SMALL
bcc


@<TRIPOS>ATOM
      1 N1          1.1610   -1.6080    1.8180 n4        1 26L     -0.830600
      2 C1          1.8540   -0.8290    0.7390 c3        1 26L      0.117500
      3 C6          2.4580    0.5110    1.2790 c3        1 26L      0.195500
      4 C5          3.0480    1.2580    0.0680 c3        1 26L     -0.096400
      5 C4          4.1210    0.4320   -0.6050 c3        1 26L     -0.088400
      6 C3          3.5840   -0.9080   -1.0560 c3        1 26L     -0.080400
      7 C2          2.9670   -1.6670    0.1010 c3        1 26L     -0.104400
      8 N2          1.4640    1.3040    1.9840 nh        1 26L     -0.861900
      9 C7          1.4720    1.3030    3.3980 cc        1 26L      0.650200
     10 C22         1.1770    2.5390    4.1060 cc        1 26L     -0.342300
     11 C21         1.1230    2.5410    5.4820 cd        1 26L      0.059700
     12 N5          1.3440    1.3670    6.1730 na        1 26L      0.029200
     13 C8          1.6110    0.1550    5.4100 cd        1 26L      0.381500
     14 N3          1.6780    0.1390    4.0420 nd        1 26L     -0.776000
     15 N4          1.3580    1.1290    7.4980 nd        1 26L     -0.525100
     16 C20         1.6220   -0.1930    7.6500 cc        1 26L      0.413500
     17 C9          1.7850   -0.8650    6.3780 cc        1 26L     -0.206800
     18 C10         2.0580   -2.2590    6.1500 ca        1 26L     -0.015800
     19 C19         1.3380   -2.9620    5.1410 ca        1 26L     -0.148000
     20 C18         1.5730   -4.2940    4.9120 ca        1 26L     -0.125000
     21 C17         2.5470   -5.0000    5.6680 ca        1 26L     -0.036000
     22 C12         3.2660   -4.3080    6.6770 ca        1 26L     -0.032000
     23 C11         3.0000   -2.9320    6.9040 ca        1 26L     -0.089000
     24 C16         2.8110   -6.3790    5.4490 ca        1 26L     -0.126000
     25 C15         3.7530   -7.0350    6.2040 ca        1 26L     -0.108000
     26 C14         4.4730   -6.3450    7.2090 ca        1 26L     -0.112000
     27 C13         4.2370   -5.0120    7.4420 ca        1 26L     -0.115000
     28 H1          1.7990   -1.7640    2.6140 hn        1 26L      0.464467
     29 H2          0.3440   -1.0880    2.1560 hn        1 26L      0.464467
     30 H4          1.0680   -0.5900   -0.0380 hx        1 26L      0.106700
     31 H5          3.3160    0.2370    1.9670 h1        1 26L      0.086700
     32 H6          2.2350    1.5010   -0.6670 hc        1 26L      0.069700
     33 H7          3.4940    2.2280    0.4170 hc        1 26L      0.069700
     34 H8          4.9810    0.2790    0.0990 hc        1 26L      0.070700
     35 H9          4.5130    0.9950   -1.4940 hc        1 26L      0.070700
     36 H10         2.8190   -0.7600   -1.8650 hc        1 26L      0.070700
     37 H11         4.4170   -1.5230   -1.4900 hc        1 26L      0.070700
     38 H12         3.7590   -1.9000    0.8610 hc        1 26L      0.068200
     39 H13         2.5520   -2.6390   -0.2770 hc        1 26L      0.068200
     40 H14         1.3380    2.2200    1.6010 hn        1 26L      0.432800
     41 H15         0.9970    3.4710    3.5540 ha        1 26L      0.174000
     42 H16         0.9120    3.4520    6.0780 h4        1 26L      0.202000
     43 H17         1.6860   -0.6500    8.6420 h4        1 26L      0.075800
     44 H18         0.5570   -2.4250    4.5840 ha        1 26L      0.106000
     45 H19         0.9950   -4.8490    4.1580 ha        1 26L      0.124000
     46 H20         3.5590   -2.4080    7.6950 ha        1 26L      0.145000
     47 H21         2.2420   -6.9110    4.6720 ha        1 26L      0.135000
     48 H22         3.9570   -8.1050    6.0410 ha        1 26L      0.145000
     49 H23         5.2220   -6.8940    7.8020 ha        1 26L      0.147000
     50 H24         4.7900   -4.4690    8.2240 ha        1 26L      0.143000
     51 H131        0.8600   -2.5130    1.4510 hn        1 26L      0.464467
@<TRIPOS>BOND
     1    1    2 1   
     2    1   28 1   
     3    1   29 1   
     4    1   51 1   
     5    2    3 1   
     6    2    7 1   
     7    2   30 1   
     8    3    4 1   
     9    3    8 1   
    10    3   31 1   
    11    4    5 1   
    12    4   32 1   
    13    4   33 1   
    14    5    6 1   
    15    5   34 1   
    16    5   35 1   
    17    6    7 1   
    18    6   36 1   
    19    6   37 1   
    20    7   38 1   
    21    7   39 1   
    22    8    9 1   
    23    8   40 1   
    24    9   10 1   
    25    9   14 2   
    26   10   11 2   
    27   10   41 1   
    28   11   12 1   
    29   11   42 1   
    30   12   13 1   
    31   12   15 1   
    32   13   14 1   
    33   13   17 2   
    34   15   16 2   
    35   16   17 1   
    36   16   43 1   
    37   17   18 1   
    38   18   19 ar  
    39   18   23 ar  
    40   19   20 ar  
    41   19   44 1   
    42   20   21 ar  
    43   20   45 1   
    44   21   22 ar  
    45   21   24 ar  
    46   22   23 ar  
    47   22   27 ar  
    48   23   46 1   
    49   24   25 ar  
    50   24   47 1   
    51   25   26 ar  
    52   25   48 1   
    53   26   27 ar  
    54   26   49 1   
    55   27   50 1   
@<TRIPOS>SUBSTRUCTURE
     1 26L         1 TEMP              0 ****  ****    0 ROOT
