@<TRIPOS>MOLECULE
26L
   52    56     1     0     0
SMALL
bcc


@<TRIPOS>ATOM
      1 N1          1.6150   -1.7220    2.0910 n4        1 26L     -0.843600
      2 C1          1.7500   -0.7870    0.9220 c3        1 26L      0.109500
      3 C6          2.1770    0.6630    1.2890 c3        1 26L      0.117500
      4 C5          2.2710    1.4890   -0.0120 c3        1 26L     -0.107400
      5 C4          3.2710    0.8830   -0.9720 c3        1 26L     -0.090400
      6 C3          2.8890   -0.5370   -1.3130 c3        1 26L     -0.091400
      7 C2          2.7880   -1.3750   -0.0580 c3        1 26L     -0.103400
      8 N2          1.2390    1.3750    2.2430 n4        1 26L     -0.759700
      9 C7          1.6770    1.3510    3.6600 cc        1 26L      0.464200
     10 C22         1.8750    2.6030    4.3390 cc        1 26L     -0.315300
     11 C21         2.2730    2.5750    5.6680 cd        1 26L      0.088700
     12 N5          2.4720    1.3650    6.2960 na        1 26L      0.049200
     13 C8          2.2380    0.1280    5.5250 cd        1 26L      0.310500
     14 N3          1.8470    0.1510    4.2220 nd        1 26L     -0.691000
     15 N4          2.8670    1.0850    7.5390 nd        1 26L     -0.456100
     16 C20         2.9130   -0.2710    7.6510 cc        1 26L      0.411500
     17 C9          2.5260   -0.9350    6.4250 cc        1 26L     -0.085800
     18 C10         2.4550   -2.3470    6.1740 ca        1 26L     -0.086800
     19 C19         1.4120   -2.8770    5.3600 ca        1 26L     -0.170000
     20 C18         1.3140   -4.2280    5.1460 ca        1 26L     -0.115000
     21 C17         2.2620   -5.1280    5.7080 ca        1 26L     -0.026000
     22 C12         3.3060   -4.6060    6.5190 ca        1 26L     -0.045000
     23 C11         3.3760   -3.2080    6.7480 ca        1 26L     -0.047000
     24 C16         2.1770   -6.5290    5.5020 ca        1 26L     -0.131000
     25 C15         3.0970   -7.3730    6.0800 ca        1 26L     -0.083000
     26 C14         4.1410   -6.8540    6.8840 ca        1 26L     -0.097000
     27 C13         4.2460   -5.5000    7.1000 ca        1 26L     -0.110000
     28 H1          2.4730   -1.7240    2.6610 hn        1 26L      0.475467
     29 H2          1.4690   -2.6770    1.7340 hn        1 26L      0.475467
     30 H4          0.7390   -0.7590    0.4090 hx        1 26L      0.122700
     31 H5          3.1990    0.6400    1.7800 hx        1 26L      0.140700
     32 H6          1.2640    1.5430   -0.5050 hc        1 26L      0.086700
     33 H7          2.6010    2.5370    0.2320 hc        1 26L      0.086700
     34 H8          4.3030    0.9150   -0.5300 hc        1 26L      0.094700
     35 H9          3.2930    1.5060   -1.9090 hc        1 26L      0.094700
     36 H10         3.6690   -0.9880   -1.9870 hc        1 26L      0.094700
     37 H11         1.9170   -0.5560   -1.8750 hc        1 26L      0.094700
     38 H12         2.4830   -2.4190   -0.3460 hc        1 26L      0.088200
     39 H13         3.7930   -1.4280    0.4400 hc        1 26L      0.088200
     40 H14         0.2910    0.9870    2.1720 hn        1 26L      0.469300
     41 H15         1.7180    3.5740    3.8470 ha        1 26L      0.191000
     42 H16         2.4420    3.5000    6.2620 h4        1 26L      0.233000
     43 H17         3.2060   -0.7500    8.5950 h4        1 26L      0.102800
     44 H18         0.6400   -2.1950    4.9780 ha        1 26L      0.106000
     45 H19         0.4780   -4.6490    4.5660 ha        1 26L      0.138000
     46 H20         4.1800   -2.8190    7.3950 ha        1 26L      0.151000
     47 H21         1.3570   -6.9300    4.8860 ha        1 26L      0.146000
     48 H22         3.0290   -8.4630    5.9290 ha        1 26L      0.162000
     49 H23         4.8640   -7.5520    7.3380 ha        1 26L      0.164000
     50 H24         5.0510   -5.0920    7.7310 ha        1 26L      0.152000
     51 H131        0.8230   -1.4790    2.6960 hn        1 26L      0.475467
     52 H221        1.1910    2.3700    1.9660 hn        1 26L      0.469300
@<TRIPOS>BOND
     1    1    2 1   
     2    1   28 1   
     3    1   29 1   
     4    1   51 1   
     5    2    3 1   
     6    2    7 1   
     7    2   30 1   
     8    3    4 1   
     9    3    8 1   
    10    3   31 1   
    11    4    5 1   
    12    4   32 1   
    13    4   33 1   
    14    5    6 1   
    15    5   34 1   
    16    5   35 1   
    17    6    7 1   
    18    6   36 1   
    19    6   37 1   
    20    7   38 1   
    21    7   39 1   
    22    8    9 1   
    23    8   40 1   
    24    8   52 1   
    25    9   10 1   
    26    9   14 2   
    27   10   11 2   
    28   10   41 1   
    29   11   12 1   
    30   11   42 1   
    31   12   13 1   
    32   12   15 1   
    33   13   14 1   
    34   13   17 2   
    35   15   16 2   
    36   16   17 1   
    37   16   43 1   
    38   17   18 1   
    39   18   19 ar  
    40   18   23 ar  
    41   19   20 ar  
    42   19   44 1   
    43   20   21 ar  
    44   20   45 1   
    45   21   22 ar  
    46   21   24 ar  
    47   22   23 ar  
    48   22   27 ar  
    49   23   46 1   
    50   24   25 ar  
    51   24   47 1   
    52   25   26 ar  
    53   25   48 1   
    54   26   27 ar  
    55   26   49 1   
    56   27   50 1   
@<TRIPOS>SUBSTRUCTURE
     1 26L         1 TEMP              0 ****  ****    0 ROOT
