@<TRIPOS>MOLECULE
26L
   51    55     1     0     0
SMALL
bcc


@<TRIPOS>ATOM
      1 N1          1.1600   -1.6400    1.8220 nz        1 26L     -0.830600
      2 C1          1.8320   -0.8530    0.7350 c3        1 26L      0.117500
      3 C6          2.4120    0.5010    1.2650 c3        1 26L      0.195500
      4 C5          2.9810    1.2540    0.0470 c3        1 26L     -0.096400
      5 C4          4.0670    0.4450   -0.6270 c3        1 26L     -0.088400
      6 C3          3.5540   -0.9080   -1.0690 c3        1 26L     -0.080400
      7 C2          2.9580   -1.6720    0.0950 c3        1 26L     -0.104400
      8 N2          1.4070    1.2780    1.9710 nu        1 26L     -0.861900
      9 C7          1.4230    1.2850    3.3850 cc        1 26L      0.650200
     10 C22         1.1070    2.5180    4.0880 cc        1 26L     -0.342300
     11 C21         1.0600    2.5270    5.4650 cd        1 26L      0.059700
     12 N5          1.3070    1.3600    6.1600 na        1 26L      0.029200
     13 C8          1.5930    0.1500    5.4020 cd        1 26L      0.381500
     14 N3          1.6540    0.1290    4.0340 nd        1 26L     -0.776000
     15 N4          1.3330    1.1300    7.4860 nd        1 26L     -0.525100
     16 C20         1.6230   -0.1860    7.6440 cc        1 26L      0.413500
     17 C9          1.7920   -0.8620    6.3750 cc        1 26L     -0.206800
     18 C10         2.0890   -2.2520    6.1520 ca        1 26L     -0.015800
     19 C19         1.3780   -2.9730    5.1500 ca        1 26L     -0.148000
     20 C18         1.6370   -4.3010    4.9270 ca        1 26L     -0.125000
     21 C17         2.6280   -4.9860    5.6820 ca        1 26L     -0.036000
     22 C12         3.3380   -4.2750    6.6840 ca        1 26L     -0.032000
     23 C11         3.0470   -2.9030    6.9050 ca        1 26L     -0.089000
     24 C16         2.9160   -6.3610    5.4690 ca        1 26L     -0.125000
     25 C15         3.8730   -6.9950    6.2220 ca        1 26L     -0.108000
     26 C14         4.5850   -6.2860    7.2200 ca        1 26L     -0.112000
     27 C13         4.3250   -4.9570    7.4480 ca        1 26L     -0.115000
     28 H1          0.3350   -1.1350    2.1610 hn        1 26L      0.464467
     29 H2          1.8050   -1.7790    2.6150 hn        1 26L      0.464467
     30 H4          1.0380   -0.6330   -0.0400 hx        1 26L      0.106700
     31 H5          3.2800    0.2470    1.9500 h1        1 26L      0.086700
     32 H6          2.1600    1.4760   -0.6850 hc        1 26L      0.069700
     33 H7          3.4100    2.2330    0.3890 hc        1 26L      0.069700
     34 H8          4.9340    0.3120    0.0730 hc        1 26L      0.070700
     35 H9          4.4440    1.0110   -1.5210 hc        1 26L      0.070700
     36 H10         2.7830   -0.7790   -1.8740 hc        1 26L      0.070700
     37 H11         4.3960   -1.5080   -1.5040 hc        1 26L      0.070700
     38 H12         2.5600   -2.6540   -0.2750 hc        1 26L      0.068200
     39 H13         3.7590   -1.8860    0.8530 hc        1 26L      0.068200
     40 H14         1.2620    2.1900    1.5840 hn        1 26L      0.432800
     41 H15         0.9070    3.4440    3.5330 ha        1 26L      0.174000
     42 H16         0.8360    3.4360    6.0570 h4        1 26L      0.202000
     43 H17         1.7000   -0.6370    8.6380 h4        1 26L      0.075800
     44 H18         0.5850   -2.4530    4.5940 ha        1 26L      0.106000
     45 H19         1.0660   -4.8710    4.1780 ha        1 26L      0.124000
     46 H20         3.6010   -2.3640    7.6900 ha        1 26L      0.145000
     47 H21         2.3530   -6.9070    4.6970 ha        1 26L      0.135000
     48 H22         4.0960   -8.0620    6.0630 ha        1 26L      0.145000
     49 H23         5.3470   -6.8180    7.8120 ha        1 26L      0.147000
     50 H24         4.8720   -4.4000    8.2240 ha        1 26L      0.143000
     51 H131        0.8750   -2.5520    1.4610 hn        1 26L      0.464467
@<TRIPOS>BOND
     1    1    2 1   
     2    1   28 1   
     3    1   29 1   
     4    1   51 1   
     5    2    3 1   
     6    2    7 1   
     7    2   30 1   
     8    3    4 1   
     9    3    8 1   
    10    3   31 1   
    11    4    5 1   
    12    4   32 1   
    13    4   33 1   
    14    5    6 1   
    15    5   34 1   
    16    5   35 1   
    17    6    7 1   
    18    6   36 1   
    19    6   37 1   
    20    7   38 1   
    21    7   39 1   
    22    8    9 1   
    23    8   40 1   
    24    9   10 1   
    25    9   14 2   
    26   10   11 2   
    27   10   41 1   
    28   11   12 1   
    29   11   42 1   
    30   12   13 1   
    31   12   15 1   
    32   13   14 1   
    33   13   17 2   
    34   15   16 2   
    35   16   17 1   
    36   16   43 1   
    37   17   18 1   
    38   18   19 ar  
    39   18   23 ar  
    40   19   20 ar  
    41   19   44 1   
    42   20   21 ar  
    43   20   45 1   
    44   21   22 ar  
    45   21   24 ar  
    46   22   23 ar  
    47   22   27 ar  
    48   23   46 1   
    49   24   25 ar  
    50   24   47 1   
    51   25   26 ar  
    52   25   48 1   
    53   26   27 ar  
    54   26   49 1   
    55   27   50 1   
@<TRIPOS>SUBSTRUCTURE
     1 26L         1 TEMP              0 ****  ****    0 ROOT
