@<TRIPOS>MOLECULE
26L
   50    54     1     0     0
SMALL
bcc


@<TRIPOS>ATOM
      1 N1          5.1230   -1.1140   -1.5050 n3        1 26L     -0.916800
      2 C1          4.5110   -1.8150   -0.3910 c3        1 26L      0.144500
      3 C6          3.2330   -1.0790    0.1350 c3        1 26L      0.233500
      4 C5          2.7550   -1.7920    1.4130 c3        1 26L     -0.085400
      5 C4          2.4200   -3.2390    1.1240 c3        1 26L     -0.079400
      6 C3          3.6090   -3.9720    0.5420 c3        1 26L     -0.076400
      7 C2          4.1260   -3.2730   -0.6940 c3        1 26L     -0.111400
      8 N2          3.4780    0.3300    0.3730 nh        1 26L     -0.847900
      9 C7          2.4980    1.2970    0.2160 cc        1 26L      0.699200
     10 C22         2.9260    2.6970    0.2660 cc        1 26L     -0.344300
     11 C21         1.9920    3.7000    0.1950 cd        1 26L      0.029700
     12 N5          0.6550    3.3760    0.0720 na        1 26L      0.010200
     13 C8          0.2830    1.9700    0.0150 cd        1 26L      0.431500
     14 N3          1.1950    0.9530    0.0810 nd        1 26L     -0.736000
     15 N4         -0.4180    4.1890   -0.0030 nd        1 26L     -0.570100
     16 C20        -1.4970    3.3770   -0.1040 cc        1 26L      0.402500
     17 C9         -1.1360    1.9760   -0.1020 cc        1 26L     -0.250800
     18 C10        -2.0500    0.8710   -0.1830 ca        1 26L      0.021200
     19 C19        -1.6480   -0.3670   -0.7620 ca        1 26L     -0.109000
     20 C18        -2.5240   -1.4180   -0.8500 ca        1 26L     -0.125000
     21 C17        -3.8560   -1.3000   -0.3680 ca        1 26L     -0.042000
     22 C12        -4.2680   -0.0720    0.2080 ca        1 26L     -0.030000
     23 C11        -3.3450    1.0020    0.2910 ca        1 26L     -0.130000
     24 C16        -4.7830   -2.3750   -0.4480 ca        1 26L     -0.116000
     25 C15        -6.0630   -2.2290    0.0270 ca        1 26L     -0.133000
     26 C14        -6.4750   -1.0030    0.6040 ca        1 26L     -0.130000
     27 C13        -5.6000    0.0510    0.6930 ca        1 26L     -0.119000
     28 H1          5.9320   -1.6120   -1.8220 hn        1 26L      0.352800
     29 H2          4.4780   -1.0230   -2.2660 hn        1 26L      0.352800
     30 H4          5.2750   -1.8230    0.4430 h1        1 26L      0.065700
     31 H5          2.4250   -1.1980   -0.6500 h1        1 26L      0.067700
     32 H6          3.5520   -1.7370    2.2000 hc        1 26L      0.057700
     33 H7          1.8450   -1.2720    1.8110 hc        1 26L      0.057700
     34 H8          2.0960   -3.7400    2.0740 hc        1 26L      0.047200
     35 H9          1.5580   -3.2890    0.4070 hc        1 26L      0.047200
     36 H10         4.4250   -4.0330    1.3100 hc        1 26L      0.043700
     37 H11         3.3140   -5.0220    0.2810 hc        1 26L      0.043700
     38 H12         3.3430   -3.2970   -1.4960 hc        1 26L      0.043200
     39 H13         5.0250   -3.8210   -1.0810 hc        1 26L      0.043200
     40 H14         4.4170    0.6440    0.2630 hn        1 26L      0.444800
     41 H15         3.9900    2.9480    0.3630 ha        1 26L      0.160000
     42 H16         2.2540    4.7730    0.2300 h4        1 26L      0.179000
     43 H17        -2.5080    3.7850   -0.1850 h4        1 26L      0.053800
     44 H18        -0.6210   -0.4680   -1.1450 ha        1 26L      0.146000
     45 H19        -2.2100   -2.3720   -1.2980 ha        1 26L      0.128000
     46 H20        -3.6770    1.9460    0.7480 ha        1 26L      0.130000
     47 H21        -4.4520   -3.3230   -0.8970 ha        1 26L      0.129000
     48 H22        -6.7820   -3.0580   -0.0330 ha        1 26L      0.129000
     49 H23        -7.5050   -0.9090    0.9780 ha        1 26L      0.129000
     50 H24        -5.9110    1.0070    1.1400 ha        1 26L      0.130000
@<TRIPOS>BOND
     1    1    2 1   
     2    1   28 1   
     3    1   29 1   
     4    2    3 1   
     5    2    7 1   
     6    2   30 1   
     7    3    4 1   
     8    3    8 1   
     9    3   31 1   
    10    4    5 1   
    11    4   32 1   
    12    4   33 1   
    13    5    6 1   
    14    5   34 1   
    15    5   35 1   
    16    6    7 1   
    17    6   36 1   
    18    6   37 1   
    19    7   38 1   
    20    7   39 1   
    21    8    9 1   
    22    8   40 1   
    23    9   10 1   
    24    9   14 2   
    25   10   11 2   
    26   10   41 1   
    27   11   12 1   
    28   11   42 1   
    29   12   13 1   
    30   12   15 1   
    31   13   14 1   
    32   13   17 2   
    33   15   16 2   
    34   16   17 1   
    35   16   43 1   
    36   17   18 1   
    37   18   19 ar  
    38   18   23 ar  
    39   19   20 ar  
    40   19   44 1   
    41   20   21 ar  
    42   20   45 1   
    43   21   22 ar  
    44   21   24 ar  
    45   22   23 ar  
    46   22   27 ar  
    47   23   46 1   
    48   24   25 ar  
    49   24   47 1   
    50   25   26 ar  
    51   25   48 1   
    52   26   27 ar  
    53   26   49 1   
    54   27   50 1   
@<TRIPOS>SUBSTRUCTURE
     1 26L         1 TEMP              0 ****  ****    0 ROOT
