@<TRIPOS>MOLECULE
26L
   50    42     1     0     0
SMALL
bcc


@<TRIPOS>ATOM
      1 N1         -0.1410   -0.3760   -3.4660 n3        1 26L     -0.335000
      2 C1          0.3280    0.9630   -3.8900 c3        1 26L     -0.025000
      3 C6          0.3370    1.8860   -2.6840 c3        1 26L     -0.042000
      4 C5          0.9680    3.2320   -2.9880 c3        1 26L     -0.179000
      5 C4          2.3050    3.1000   -3.6080 c3        1 26L     -0.154000
      6 C3          2.2950    2.1770   -4.8140 c3        1 26L     -0.160000
      7 C2          1.6600    0.8320   -4.5090 c3        1 26L     -0.153000
      8 N2         -1.0070    2.0940   -2.2570 n3        1 26L     -0.275000
      9 C7         -1.3530    1.9790   -0.8290 c1        1 26L      0.150000
     10 C22        -1.8200    3.1820   -0.3560 c1        1 26L     -0.274000
     11 C21        -2.0050    3.3640    1.0160 c1        1 26L      0.052000
     12 N5         -1.7180    2.3380    1.8930 n1        1 26L     -0.099000
     13 C8         -1.2550    1.1450    1.4210 c1        1 26L      0.065000
     14 N3         -1.0690    0.9600    0.0480 n1        1 26L     -0.185000
     15 N4         -1.7900    2.2510    3.2800 n1        1 26L     -0.097000
     16 C20        -1.3730    1.0150    3.6470 c1        1 26L     -0.104000
     17 C9         -1.0380    0.3180    2.4990 c1        1 26L     -0.158000
     18 C10        -0.5830   -1.0690    2.9340 c1        1 26L      0.025000
     19 C19         0.7860   -1.1650    3.1490 c1        1 26L     -0.123250
     20 C18         1.3490   -2.3890    3.5070 c1        1 26L     -0.123250
     21 C17         0.5340   -3.5240    3.6500 c1        1 26L     -0.036000
     22 C12        -0.8220   -3.4280    3.4360 c1        1 26L     -0.036000
     23 C11        -1.3920   -2.2010    3.0760 c1        1 26L     -0.125000
     24 C16         1.1090   -4.7590    3.9250 c1        1 26L     -0.117500
     25 C15         0.3140   -5.8960    3.9850 c1        1 26L     -0.123250
     26 C14        -1.0500   -5.7980    3.7700 c1        1 26L     -0.123250
     27 C13        -1.6200   -4.5700    3.4960 c1        1 26L     -0.117500
     28 H1          0.2890   -1.0350   -3.9780 hn        1 26L      0.149000
     29 H2         -1.0420   -0.4340   -3.5920 hn        1 26L      0.149000
     30 H4         -0.3120    1.3290   -4.5750 h1        1 26L      0.093000
     31 H5          0.8310    1.4620   -1.9690 h1        1 26L      0.131000
     32 H6          0.3610    3.7410   -3.6250 hc        1 26L      0.086000
     33 H7          1.0500    3.7310   -2.1680 hc        1 26L      0.086000
     34 H8          2.6020    3.9550   -3.8800 hc        1 26L      0.085500
     35 H9          2.9380    2.7400   -2.9320 hc        1 26L      0.085500
     36 H10         1.7860    2.6140   -5.5460 hc        1 26L      0.083000
     37 H11         3.2370    2.0280   -5.1180 hc        1 26L      0.083000
     38 H12         2.2380    0.3430   -3.9050 hc        1 26L      0.092000
     39 H13         1.5750    0.3350   -5.3290 hc        1 26L      0.092000
     40 H14        -1.6530    2.3270   -2.8700 hn        1 26L      0.202000
     41 H15        -2.0920    3.8830   -0.9840 ha        1 26L      0.160000
     42 H16        -2.3370    4.2180    1.3550 ha        1 26L      0.181000
     43 H17        -1.2830    0.6850    4.5710 DU        1 26L      0.186000
     44 H18         1.3290   -0.3670    3.1500 ha        1 26L      0.134000
     45 H19         2.3190   -2.4590    3.6610 ha        1 26L      0.134000
     46 H20        -2.3280   -2.1210    3.0080 ha        1 26L      0.130000
     47 H21         2.0400   -4.8250    4.0720 ha        1 26L      0.130500
     48 H22         0.7080   -6.7440    4.1740 ha        1 26L      0.134000
     49 H23        -1.5900   -6.5690    3.8100 ha        1 26L      0.134000
     50 H24        -2.6150   -4.4990    3.3380 ha        1 26L      0.130500
@<TRIPOS>BOND
     1    1    2 1   
     2    1   28 1   
     3    1   29 1   
     4    2    3 1   
     5    2    7 1   
     6    2   30 1   
     7    3    4 1   
     8    3    8 1   
     9    3   31 1   
    10    4    5 1   
    11    4   32 1   
    12    4   33 1   
    13    5    6 1   
    14    5   34 1   
    15    5   35 1   
    16    6    7 1   
    17    6   36 1   
    18    6   37 1   
    19    7   38 1   
    20    7   39 1   
    21    8    9 1   
    22    8   40 1   
    23    9   10 1   
    24   10   41 1   
    25   11   12 1   
    26   11   42 1   
    27   13   14 1   
    28   15   16 1   
    29   16   17 1   
    30   18   23 1   
    31   19   20 1   
    32   19   44 1   
    33   20   45 1   
    34   21   22 1   
    35   21   24 1   
    36   22   27 1   
    37   23   46 1   
    38   24   47 1   
    39   25   26 1   
    40   25   48 1   
    41   26   49 1   
    42   27   50 1   
@<TRIPOS>SUBSTRUCTURE
     1 26L         1 TEMP              0 ****  ****    0 ROOT
