@<TRIPOS>MOLECULE
26N
   76    75     1     0     0
SMALL
bcc


@<TRIPOS>ATOM
      1 C          -0.3970   -1.3370    5.0200 c3        1 26N     -0.236000
      2 F          -5.8650   11.3720   11.1680 f         1 26N     -0.160333
      3 N           1.0510    0.3890    5.9410 n3        1 26N     -0.192000
      4 O          -6.8600    3.1740    0.8830 o         1 26N     -0.405000
      5 C1          0.8070   -0.9200    5.7880 c1        1 26N     -0.072000
      6 F1         -3.8650   11.5150   11.9860 f         1 26N     -0.160333
      7 C2          0.2840    1.4160    5.4480 c1        1 26N     -0.022000
      8 F2         -5.5850   12.0080   13.2190 f         1 26N     -0.160333
      9 N2         -7.3240    5.3950    0.8500 n         1 26N     -0.419000
     10 C3         -0.8940    1.0720    4.7020 c2        1 26N     -0.315000
     11 F3         -8.7080    5.7900    3.3460 f         1 26N     -0.107000
     12 N3         -6.2690    4.2560    7.2030 nh        1 26N     -0.160000
     13 C4         -1.2650   -0.2310    4.4640 c2        1 26N      0.099000
     14 N4         -6.7270    5.7330   10.2410 n3        1 26N     -0.253000
     15 C5         -3.3480    0.1780    3.1550 c2        1 26N      0.440000
     16 N5         -8.7870   -2.7440   -0.3340 n2        1 26N     -0.151000
     17 C6         -4.3810   -0.5260    2.4520 c1        1 26N     -0.241000
     18 C8         -6.8520    4.2940    2.9990 ca        1 26N     -0.173000
     19 C9         -5.8200    3.5400    3.5700 ca        1 26N     -0.046000
     20 C10        -5.6110    3.5240    4.9430 ca        1 26N     -0.130000
     21 C11        -6.4570    4.2680    5.7930 ca        1 26N      0.080000
     22 C12        -8.9590    6.5240    9.5550 c2        1 26N     -0.305000
     23 C13        -8.0970    5.5780    9.9620 c2        1 26N     -0.067000
     24 C14        -6.2070    7.0800   10.3440 c3        1 26N     -0.025000
     25 C15        -3.8150    9.0560   14.8900 c1        1 26N     -0.142000
     26 C16        -4.4570    9.3250   13.9170 c1        1 26N     -0.144000
     27 C17        -5.2130    9.6340   12.7740 c2        1 26N     -0.005000
     28 C18        -5.1340   11.0960   12.2970 c3        1 26N      0.469000
     29 C19        -5.9500    8.7610   12.1310 c1        1 26N     -0.092000
     30 C20        -6.6940    7.8970   11.5070 c2        1 26N     -0.111000
     31 C21        -6.1790    4.8040   11.2050 c3        1 26N     -0.109000
     32 C22        -5.3850    3.4730    7.7720 c1        1 26N     -0.139000
     33 C23        -7.5010    5.0320    5.2390 ca        1 26N     -0.214000
     34 C24        -7.6910    5.0450    3.8470 ca        1 26N      0.126000
     35 C25        -5.2730   -1.0520    1.8470 c1        1 26N     -0.021000
     36 C26        -6.3250   -1.7150    1.1690 c2        1 26N     -0.157000
     37 C27        -6.7690   -2.9810    1.6080 c1        1 26N     -0.113000
     38 C28        -8.0090   -1.8010   -0.7090 c2        1 26N      0.004000
     39 C29        -6.9230   -1.1040    0.0830 c2        1 26N      0.152000
     40 C30        -6.4430    0.2710   -0.3110 c3        1 26N     -0.159000
     41 C31        -7.4300    0.9390   -1.2320 c2        1 26N     -0.091000
     42 C32        -7.9220    0.0600   -2.0850 c1        1 26N     -0.159000
     43 C33        -8.0480   -1.2530   -2.1080 c2        1 26N     -0.087000
     44 H          -0.9990   -1.9900    5.7160 hc        1 26N      0.153500
     45 H1         -0.0210   -1.9960    4.1860 hc        1 26N      0.153500
     46 HN1        -2.5040   -1.6280    3.6470 hn        1 26N      0.239000
     47 H2          1.8660    0.6510    6.4600 hn        1 26N      0.263000
     48 HN2        -7.4660    5.3650   -0.1290 hn        1 26N      0.231000
     49 H3         -1.4820    1.9310    4.3340 ha        1 26N      0.190000
     50 HN5        -8.6500   -3.1210    0.5890 hn        1 26N      0.206000
     51 H6         -7.5390    6.2260    1.3390 hn        1 26N      0.231000
     52 H9         -5.1550    2.9440    2.9150 ha        1 26N      0.183000
     53 H10        -4.7840    2.9300    5.3730 ha        1 26N      0.193000
     54 H12        -8.7160    7.5890    9.4740 ha        1 26N      0.124500
     55 H12A       -6.8730    4.8980    7.6890 hn        1 26N      0.186000
     56 H13        -8.4310    4.5220   10.0370 h4        1 26N      0.137000
     57 H13A       -9.9830    6.2550    9.2720 ha        1 26N      0.124500
     58 H15        -3.2420    8.8250   15.7540 ha        1 26N      0.232000
     59 H16        -6.4920    7.6350    9.4000 h1        1 26N      0.115500
     60 H19        -7.7520    7.7540   11.7990 ha        1 26N      0.166000
     61 H20        -5.0810    7.0070   10.3730 h1        1 26N      0.115500
     62 H21        -5.0610    4.8130   11.1120 h1        1 26N      0.084000
     63 H21A       -6.4550    5.0670   12.2620 h1        1 26N      0.084000
     64 H22        -5.3380    3.5660    8.8800 ha        1 26N      0.045000
     65 H22A       -6.5490    3.7680   10.9820 h1        1 26N      0.084000
     66 H23        -8.1810    5.6240    5.8700 ha        1 26N      0.154000
     67 H25        -3.1120    3.7320    3.8320 ha        1 26N      0.001500
     68 H25A       -2.5180    3.7370    3.5030 ha        1 26N      0.001500
     69 H27        -6.2720   -3.4420    2.4700 ha        1 26N      0.068000
     70 H30        -6.3350    0.9160    0.6100 hc        1 26N      0.155000
     71 H31        -5.4240    0.1790   -0.7770 hc        1 26N      0.155000
     72 H32        -8.1010   -1.9330   -2.9610 ha        1 26N      0.176000
     73 H33        -7.6910    1.9890   -1.0700 ha        1 26N      0.186000
     74 N1         -2.3780   -0.6430    3.7470 n         1 26N     -0.313000
     75 C7         -7.0230    4.2390    1.5210 c2        1 26N      0.363000
     76 O1         -3.3230    1.4180    3.2250 o         1 26N     -0.310000
@<TRIPOS>BOND
     1    1    5 1   
     2    1   13 1   
     3    1   44 1   
     4    1   45 1   
     5    2   28 1   
     6    3    5 1   
     7    3    7 1   
     8    3   47 1   
     9    4   75 1   
    10    6   28 1   
    11    7   10 1   
    12    8   28 1   
    13    9   48 1   
    14    9   51 1   
    15    9   75 1   
    16   10   13 1   
    17   10   49 1   
    18   11   34 1   
    19   12   21 1   
    20   12   32 1   
    21   12   55 1   
    22   13   74 1   
    23   14   23 1   
    24   14   24 1   
    25   14   31 1   
    26   15   17 1   
    27   15   74 1   
    28   15   76 1   
    29   16   38 1   
    30   16   50 1   
    31   17   35 1   
    32   18   19 1   
    33   18   34 1   
    34   18   75 1   
    35   19   20 1   
    36   19   52 1   
    37   20   21 1   
    38   20   53 1   
    39   21   33 1   
    40   22   23 1   
    41   22   54 1   
    42   22   57 1   
    43   23   56 1   
    44   24   30 1   
    45   24   59 1   
    46   24   61 1   
    47   25   26 1   
    48   25   58 1   
    49   26   27 1   
    50   27   28 1   
    51   27   29 1   
    52   29   30 1   
    53   30   60 1   
    54   31   62 1   
    55   31   63 1   
    56   31   65 1   
    57   32   64 1   
    58   33   34 1   
    59   33   66 1   
    60   35   36 1   
    61   36   37 1   
    62   36   39 1   
    63   37   69 1   
    64   38   39 1   
    65   38   43 1   
    66   39   40 1   
    67   40   41 1   
    68   40   70 1   
    69   40   71 1   
    70   41   42 1   
    71   41   73 1   
    72   42   43 1   
    73   43   72 1   
    74   46   74 1   
    75   67   68 1   
@<TRIPOS>SUBSTRUCTURE
     1 26N         1 TEMP              0 ****  ****    0 ROOT
