@<TRIPOS>MOLECULE
26O
   43    44     1     0     0
SMALL
bcc


@<TRIPOS>ATOM
      1 C1          1.8640   -0.1430   -0.7290 c3        1 26O      0.239500
      2 C2          2.3550    1.1470   -1.4440 c3        1 26O      0.090100
      3 O2          2.2360    1.0410   -2.8500 oh        1 26O     -0.596800
      4 C3          3.8590    1.3220   -1.1730 c3        1 26O      0.109100
      5 O3          4.3140    2.5690   -1.6670 oh        1 26O     -0.605800
      6 C4          4.1240    1.3310    0.3420 c3        1 26O      0.122100
      7 O4          5.5160    1.3180    0.6010 oh        1 26O     -0.592800
      8 C5          3.5320    0.0620    0.9720 c3        1 26O      0.108100
      9 O5          2.1350   -0.0170    0.6830 os        1 26O     -0.455600
     10 C6          3.6370    0.1100    2.4990 c3        1 26O      0.139400
     11 O6          3.2670   -1.1210    3.0780 oh        1 26O     -0.591800
     12 NAL         0.4300   -0.3150   -0.8550 n         1 26O     -0.482900
     13 CAM        -0.0860   -1.5920   -1.0500 c         1 26O      0.576400
     14 NAN        -1.4350   -1.8640   -0.7270 n         1 26O     -0.289900
     15 SAO         0.7470   -2.8150   -1.7030 s         1 26O     -0.521400
     16 NAP        -2.2910   -0.9460   -0.2770 n2        1 26O     -0.509300
     17 CAQ        -3.5610   -1.2190   -0.1310 ce        1 26O      0.412800
     18 CAR        -4.5230   -0.2380    0.3700 ca        1 26O     -0.221900
     19 CAS        -4.2300    0.7880    1.2870 ca        1 26O      0.170100
     20 CAT        -5.2370    1.6900    1.6990 ca        1 26O     -0.164000
     21 CAU        -6.5220    1.5640    1.1960 ca        1 26O     -0.081000
     22 CAV        -6.8290    0.5400    0.2920 ca        1 26O     -0.167000
     23 CAW        -5.8430   -0.3480   -0.1100 ca        1 26O     -0.077000
     24 OAX        -3.0030    1.0190    1.8530 oh        1 26O     -0.494100
     25 H1          2.4020   -1.0500   -1.1500 h2        1 26O      0.123700
     26 H2          1.7910    2.0470   -1.0730 h1        1 26O      0.062700
     27 HO2         1.3020    0.9110   -3.0570 ho        1 26O      0.423000
     28 H3          4.4320    0.4870   -1.6650 h1        1 26O      0.070700
     29 HO3         4.1110    2.5810   -2.6130 ho        1 26O      0.429000
     30 H4          3.6590    2.2490    0.7980 h1        1 26O      0.062700
     31 HO4         5.8910    2.0640    0.1130 ho        1 26O      0.426000
     32 H5          4.0550   -0.8510    0.5750 h1        1 26O      0.078700
     33 H6          4.7130    0.2670    2.7840 h1        1 26O      0.065700
     34 H6A         3.0000    0.9420    2.9010 h1        1 26O      0.065700
     35 HO6         2.3580   -1.3010    2.8060 ho        1 26O      0.409000
     36 HNAL       -0.1020    0.3470   -0.3240 hn        1 26O      0.324500
     37 HNAN       -1.7550   -2.7580   -1.0770 hn        1 26O      0.337500
     38 HAQ        -4.0210   -2.1960   -0.4080 h4        1 26O      0.000800
     39 HAT        -4.9750    2.4830    2.4140 ha        1 26O      0.155000
     40 HAU        -7.3050    2.2690    1.5120 ha        1 26O      0.139000
     41 HAV        -7.8520    0.4420   -0.0980 ha        1 26O      0.139000
     42 HAW        -6.0880   -1.1510   -0.8230 ha        1 26O      0.134000
     43 HOAX       -2.4160    0.2730    1.6680 ho        1 26O      0.436000
@<TRIPOS>BOND
     1    1    2 1   
     2    1    9 1   
     3    1   12 1   
     4    1   25 1   
     5    2    3 1   
     6    2    4 1   
     7    2   26 1   
     8    3   27 1   
     9    4    5 1   
    10    4    6 1   
    11    4   28 1   
    12    5   29 1   
    13    6    7 1   
    14    6    8 1   
    15    6   30 1   
    16    7   31 1   
    17    8    9 1   
    18    8   10 1   
    19    8   32 1   
    20   10   11 1   
    21   10   33 1   
    22   10   34 1   
    23   11   35 1   
    24   12   13 1   
    25   12   36 1   
    26   13   14 1   
    27   13   15 2   
    28   14   16 1   
    29   14   37 1   
    30   16   17 2   
    31   17   18 1   
    32   17   38 1   
    33   18   19 ar  
    34   18   23 ar  
    35   19   20 ar  
    36   19   24 1   
    37   20   21 ar  
    38   20   39 1   
    39   21   22 ar  
    40   21   40 1   
    41   22   23 ar  
    42   22   41 1   
    43   23   42 1   
    44   24   43 1   
@<TRIPOS>SUBSTRUCTURE
     1 26O         1 TEMP              0 ****  ****    0 ROOT
