@<TRIPOS>MOLECULE
26O
   43    41     1     0     0
SMALL
bcc


@<TRIPOS>ATOM
      1 C1          0.6250   -0.4010    1.6570 c3        1 26O      0.141000
      2 C2          2.0490   -0.4020    1.6530 c3        1 26O      0.012000
      3 O2          2.5330   -1.6770    0.9210 oh        1 26O     -0.308000
      4 C3          2.6300   -0.3820    2.9230 c3        1 26O     -0.045000
      5 O3          4.1210   -0.2000    2.7640 oh        1 26O     -0.333000
      6 C4          2.1090    0.7010    3.7960 c3        1 26O     -0.027000
      7 O4          2.6950    0.5580    5.0960 oh        1 26O     -0.317000
      8 C5          0.5400    0.7040    3.9560 c3        1 26O     -0.001000
      9 O5          0.0420    0.6590    2.4660 os        1 26O     -0.307000
     10 C6          0.1210    1.8310    4.5680 c3        1 26O     -0.009000
     11 O6          0.0090    1.6060    5.9320 oh        1 26O     -0.320000
     12 NAL         0.1520   -0.2420    0.2660 n         1 26O     -0.288000
     13 CAM        -1.1890   -0.6240   -0.0860 c2        1 26O      0.187000
     14 NAN        -1.5290   -0.8340   -1.4330 n         1 26O     -0.254000
     15 SAO        -2.3340   -0.8780    1.1190 s         1 26O     -0.290000
     16 NAP        -1.1070   -1.9880   -2.0840 n2        1 26O     -0.060000
     17 CAQ        -1.1030   -2.0410   -3.4100 c1        1 26O     -0.088000
     18 CAR        -1.5640   -0.8260   -4.2270 c1        1 26O     -0.115000
     19 CAS        -2.9110   -0.7180   -4.6250 c2        1 26O      0.090000
     20 CAT        -3.3090    0.3180   -5.4630 c1        1 26O     -0.208000
     21 CAU        -2.3690    1.2560   -5.9130 c1        1 26O     -0.120500
     22 CAV        -1.0410    1.1510   -5.5220 c1        1 26O     -0.120500
     23 CAW        -0.6380    0.0980   -4.6700 c1        1 26O     -0.075000
     24 OAX        -3.8280   -1.6950   -4.2450 oh        1 26O     -0.260000
     25 H1          0.3190   -1.2460    1.9920 h2        1 26O      0.166000
     26 H2          2.3530    0.3650    1.1660 h1        1 26O      0.100000
     27 HO2         3.2060   -1.4720    0.3880 ho        1 26O      0.220000
     28 H3          2.4640   -1.2440    3.3600 h1        1 26O      0.111000
     29 HO3         4.5400   -0.8180    3.2230 ho        1 26O      0.211000
     30 H4          2.3810    1.5520    3.4260 h1        1 26O      0.102000
     31 HO4         3.3630    1.1130    5.1780 ho        1 26O      0.206000
     32 H5          0.2350   -0.1070    4.4550 h1        1 26O      0.119000
     33 H6         -0.7610    2.0960    4.2040 h1        1 26O      0.100000
     34 H6A         0.7800    2.5620    4.4050 h1        1 26O      0.100000
     35 HO6        -0.4170    2.2760    6.3040 ho        1 26O      0.213000
     36 HNAL        0.7530    0.0410   -0.4070 hn        1 26O      0.248000
     37 HNAN       -2.0540   -0.2400   -1.8630 hn        1 26O      0.259000
     38 HAQ        -0.8010   -2.8660   -3.8740 ha        1 26O      0.166000
     39 HAT        -4.2290    0.3900   -5.7330 ha        1 26O      0.140000
     40 HAU        -2.6470    1.9780   -6.4970 ha        1 26O      0.139500
     41 HAV        -0.4100    1.7800   -5.8240 ha        1 26O      0.139500
     42 HAW         0.2920    0.0230   -4.3950 ha        1 26O      0.141000
     43 HOAX       -4.0690   -2.1550   -4.9460 ho        1 26O      0.232000
@<TRIPOS>BOND
     1    1    2 1   
     2    1    9 1   
     3    1   12 1   
     4    1   25 1   
     5    2    3 1   
     6    2    4 1   
     7    2   26 1   
     8    3   27 1   
     9    4    5 1   
    10    4    6 1   
    11    4   28 1   
    12    5   29 1   
    13    6    7 1   
    14    6    8 1   
    15    6   30 1   
    16    7   31 1   
    17    8    9 1   
    18    8   10 1   
    19    8   32 1   
    20   10   11 1   
    21   10   33 1   
    22   10   34 1   
    23   11   35 1   
    24   12   13 1   
    25   12   36 1   
    26   13   14 1   
    27   13   15 1   
    28   14   16 1   
    29   14   37 1   
    30   16   17 1   
    31   17   38 1   
    32   18   19 1   
    33   18   23 1   
    34   19   20 1   
    35   19   24 1   
    36   20   39 1   
    37   21   22 1   
    38   21   40 1   
    39   22   41 1   
    40   23   42 1   
    41   24   43 1   
@<TRIPOS>SUBSTRUCTURE
     1 26O         1 TEMP              0 ****  ****    0 ROOT
