@<TRIPOS>MOLECULE
26O
   45    45     1     0     0
SMALL
bcc


@<TRIPOS>ATOM
      1 C1        -74.0570 -202.8810  765.8220 c3        1 26O      0.051000
      2 C2        -74.3050 -201.4480  766.3650 c3        1 26O      0.001000
      3 O2        -73.0920 -200.7480  766.1960 oh        1 26O     -0.344000
      4 C3        -74.7140 -201.5840  767.8410 c3        1 26O     -0.031000
      5 O3        -75.0140 -200.2700  768.2710 oh        1 26O     -0.319000
      6 C4        -75.9570 -202.4920  767.9560 c3        1 26O     -0.025000
      7 O4        -76.2000 -202.7680  769.3220 oh        1 26O     -0.311000
      8 C5        -75.6790 -203.8420  767.2770 c3        1 26O      0.003000
      9 O5        -75.2690 -203.6220  765.9150 os        1 26O     -0.296000
     10 C6        -76.9370 -204.7130  767.1600 c3        1 26O     -0.016000
     11 O6        -76.5820 -205.9810  766.6570 oh        1 26O     -0.324000
     12 NAL       -73.6910 -202.8700  764.3660 n4        1 26O     -0.077000
     13 CAM       -73.1280 -204.1960  763.8440 c2        1 26O     -0.022000
     14 NAN       -73.9120 -205.2830  764.0440 n         1 26O     -0.325000
     15 SAO       -71.7400 -204.0720  763.1360 s         1 26O      0.082000
     16 NAP       148.5480  407.3830-1535.4530 n1        1 26O      0.115000
     17 CAQ       148.8980  407.6270-1536.5330 c1        1 26O     -0.189000
     18 CAR       149.3280  407.9190-1537.8860 c3        1 26O     -0.008000
     19 CAS       150.7950  408.2540-1537.9420 c2        1 26O      0.283000
     20 CAT       151.2680  409.3770-1538.6430 c2        1 26O     -0.314000
     21 CAU       150.3790  410.2450-1539.2470 c2        1 26O      0.145000
     22 CAV       148.9700  410.0220-1539.1810 c2        1 26O     -0.196000
     23 CAW       148.4620  408.9530-1538.5210 c2        1 26O     -0.012000
     24 OAX       151.5770  407.3820-1537.3170 oh        1 26O     -0.146000
     25 H1        -73.2210 -203.3860  766.3910 hx        1 26O      0.157000
     26 H2        -75.1290 -200.9350  765.7920 h1        1 26O      0.125000
     27 HO2       -73.1430 -199.9430  766.7360 ho        1 26O      0.265000
     28 H3        -73.8680 -202.0130  768.4460 h1        1 26O      0.118000
     29 HO3       -75.0470 -200.2870  769.2380 ho        1 26O      0.235000
     30 H4        -76.8390 -201.9870  767.4750 h1        1 26O      0.120000
     31 HO4       -76.7830 -202.0730  769.6560 ho        1 26O      0.230000
     32 H5        -74.8660 -204.3940  767.8250 h1        1 26O      0.118000
     33 H6        -77.6440 -204.2770  766.4040 h1        1 26O      0.124000
     34 H6A       -77.4230 -204.7650  768.1690 h1        1 26O      0.124000
     35 HO6       -76.3890 -206.5560  767.4090 ho        1 26O      0.218000
     36 HNAL      -72.9450 -202.1560  764.2310 hn        1 26O      0.275000
     37 HNAN      -74.7670 -205.2700  764.5640 hn        1 26O      0.285000
     38 HAQ       149.2000  406.9570-1538.5060 hc        1 26O      0.229000
     39 HAT       152.3560  409.5700-1538.6920 ha        1 26O      0.196000
     40 HAU       150.7540  411.1390-1539.7860 ha        1 26O      0.197000
     41 HAV       148.3010  410.7540-1539.6710 ha        1 26O      0.201000
     42 HAW       147.3710  408.7800-1538.4360 ha        1 26O      0.201000
     43 HOAX      152.5270  407.6220-1537.3920 ho        1 26O      0.295000
     44 HAL2      -74.5190 -202.6050  763.8190 hn        1 26O      0.275000
     45 HAN2      -73.5870 -206.1590  763.6910 hn        1 26O      0.285000
@<TRIPOS>BOND
     1    1    2 1   
     2    1    9 1   
     3    1   12 1   
     4    1   25 1   
     5    2    3 1   
     6    2    4 1   
     7    2   26 1   
     8    3   27 1   
     9    4    5 1   
    10    4    6 1   
    11    4   28 1   
    12    5   29 1   
    13    6    7 1   
    14    6    8 1   
    15    6   30 1   
    16    7   31 1   
    17    8    9 1   
    18    8   10 1   
    19    8   32 1   
    20   10   11 1   
    21   10   33 1   
    22   10   34 1   
    23   11   35 1   
    24   12   13 1   
    25   12   36 1   
    26   12   44 1   
    27   13   14 1   
    28   13   15 1   
    29   14   37 1   
    30   14   45 1   
    31   16   17 1   
    32   17   18 1   
    33   18   19 1   
    34   18   23 1   
    35   18   38 1   
    36   19   20 1   
    37   19   24 1   
    38   20   21 1   
    39   20   39 1   
    40   21   22 1   
    41   21   40 1   
    42   22   23 1   
    43   22   41 1   
    44   23   42 1   
    45   24   43 1   
@<TRIPOS>SUBSTRUCTURE
     1 26O         1 TEMP              0 ****  ****    0 ROOT
