@<TRIPOS>MOLECULE
26O
   45    46     1     0     0
SMALL
bcc


@<TRIPOS>ATOM
      1 C1          0.7430   -0.6680   -0.0410 c3        1 26O      0.333300
      2 C2          2.1860   -0.2130    0.2930 c3        1 26O      0.119100
      3 O2          2.9890   -1.3630    0.1670 oh        1 26O     -0.623800
      4 C3          2.1480    0.3500    1.7270 c3        1 26O      0.114100
      5 O3          3.4530    0.8320    1.9620 oh        1 26O     -0.586800
      6 C4          1.1150    1.4960    1.8290 c3        1 26O      0.083100
      7 O4          1.0140    1.7830    3.2080 oh        1 26O     -0.574800
      8 C5         -0.2570    1.0270    1.3140 c3        1 26O      0.120100
      9 O5         -0.1220    0.4480   -0.0020 os        1 26O     -0.462600
     10 C6         -1.2530    2.1680    1.0770 c3        1 26O      0.134400
     11 O6         -2.2800    1.6350    0.2490 oh        1 26O     -0.654800
     12 NAL         0.6380   -1.1950   -1.4640 ny        1 26O     -0.608800
     13 CAM        -0.7650   -1.5350   -1.8380 c         1 26O      0.046400
     14 NAN        -1.5860   -0.3130   -2.2210 ny        1 26O     -0.300900
     15 SAO        -1.3290   -2.9370   -1.8600 s         1 26O      0.235600
     16 NAP        -0.9840    0.3630   -3.2940 n2        1 26O     -0.623400
     17 CAQ        -1.6970    0.7420   -4.3370 ce        1 26O      0.603800
     18 CAR        -1.1570    1.4460   -5.4700 ca        1 26O     -0.265900
     19 CAS         0.2160    1.6820   -5.7270 ca        1 26O      0.229100
     20 CAT         0.6180    2.3970   -6.8740 ca        1 26O     -0.230000
     21 CAU        -0.3310    2.8740   -7.7640 ca        1 26O      0.012000
     22 CAV        -1.6990    2.6420   -7.5300 ca        1 26O     -0.154000
     23 CAW        -2.1010    1.9430   -6.4120 ca        1 26O     -0.041000
     24 OAX         1.1460    1.1880   -4.8540 oh        1 26O     -0.504100
     25 H1          0.4010   -1.4910    0.6570 hx        1 26O      0.121700
     26 H2          2.5400    0.5860   -0.4180 h1        1 26O      0.095700
     27 HO2         3.8120   -1.2090    0.6640 ho        1 26O      0.484000
     28 H3          1.8900   -0.4610    2.4660 h1        1 26O      0.085700
     29 HO3         3.4870    1.1290    2.8860 ho        1 26O      0.458000
     30 H4          1.4750    2.3830    1.2400 h1        1 26O      0.086700
     31 HO4         0.8410    2.7300    3.3070 ho        1 26O      0.438000
     32 H5         -0.6920    0.2570    2.0090 h1        1 26O      0.092700
     33 H6         -1.6500    2.5130    2.0670 h1        1 26O      0.077200
     34 H6A        -0.7630    3.0200    0.5330 h1        1 26O      0.077200
     35 HO6        -3.0900    2.1220    0.4520 ho        1 26O      0.446000
     36 HNAL        1.2190   -2.0530   -1.5080 hn        1 26O      0.504800
     37 HNAN       -1.6120    0.3620   -1.4100 hn        1 26O      0.484800
     38 HAQ        -2.8020    0.5580   -4.4070 h4        1 26O      0.025800
     39 HAT         1.6900    2.5730   -7.0590 ha        1 26O      0.170000
     40 HAU        -0.0160    3.4360   -8.6620 ha        1 26O      0.179000
     41 HAV        -2.4460    3.0230   -8.2480 ha        1 26O      0.180000
     42 HAW        -3.1760    1.7670   -6.2390 ha        1 26O      0.152000
     43 HOAX        2.0310    1.4360   -5.1770 ho        1 26O      0.454000
     44 HAL2        1.0420   -0.4900   -2.1070 hn        1 26O      0.504800
     45 HAN2       -2.5520   -0.6580   -2.3870 hn        1 26O      0.484800
@<TRIPOS>BOND
     1    1    2 1   
     2    1    9 1   
     3    1   12 1   
     4    1   25 1   
     5    2    3 1   
     6    2    4 1   
     7    2   26 1   
     8    3   27 1   
     9    4    5 1   
    10    4    6 1   
    11    4   28 1   
    12    5   29 1   
    13    6    7 1   
    14    6    8 1   
    15    6   30 1   
    16    7   31 1   
    17    8    9 1   
    18    8   10 1   
    19    8   32 1   
    20   10   11 1   
    21   10   33 1   
    22   10   34 1   
    23   11   35 1   
    24   12   13 1   
    25   12   36 1   
    26   12   44 1   
    27   13   14 1   
    28   13   15 2   
    29   14   16 1   
    30   14   37 1   
    31   14   45 1   
    32   16   17 2   
    33   17   18 1   
    34   17   38 1   
    35   18   19 ar  
    36   18   23 ar  
    37   19   20 ar  
    38   19   24 1   
    39   20   21 ar  
    40   20   39 1   
    41   21   22 ar  
    42   21   40 1   
    43   22   23 ar  
    44   22   41 1   
    45   23   42 1   
    46   24   43 1   
@<TRIPOS>SUBSTRUCTURE
     1 26O         1 TEMP              0 ****  ****    0 ROOT
