@<TRIPOS>MOLECULE
26O
   45    46     1     0     0
SMALL
bcc


@<TRIPOS>ATOM
      1 C1          0.2960   -0.2500    0.0500 c3        1 26O      0.339300
      2 C2          1.8230   -0.3290    0.3190 c3        1 26O      0.112100
      3 O2          2.2340   -1.6030   -0.1240 oh        1 26O     -0.634800
      4 C3          2.0110   -0.1230    1.8330 c3        1 26O      0.118100
      5 O3          3.4090   -0.1230    2.0300 oh        1 26O     -0.590800
      6 C4          1.3890    1.2250    2.2570 c3        1 26O      0.079100
      7 O4          1.4460    1.2220    3.6690 oh        1 26O     -0.575800
      8 C5         -0.0790    1.3070    1.8020 c3        1 26O      0.115100
      9 O5         -0.1760    1.0410    0.3800 os        1 26O     -0.426600
     10 C6         -0.6640    2.7120    1.9710 c3        1 26O      0.137400
     11 O6         -2.0430    2.6110    1.6730 oh        1 26O     -0.608800
     12 NAL         0.0200   -0.4080   -1.4420 n4        1 26O     -0.599800
     13 CAM        -1.3380   -0.9200   -1.7510 c         1 26O      0.014400
     14 NAN        -1.4980   -1.2400   -3.2480 n4        1 26O     -0.306900
     15 SAO        -2.4940   -1.1290   -0.8080 s         1 26O      0.286600
     16 NAP        -0.9170   -0.2780   -4.0830 n2        1 26O     -0.646400
     17 CAQ        -1.5970    0.2520   -5.0850 ce        1 26O      0.612800
     18 CAR        -1.0610    1.2180   -6.0000 ca        1 26O     -0.268900
     19 CAS         0.2050    1.8490   -5.9030 ca        1 26O      0.235100
     20 CAT         0.6310    2.7580   -6.8930 ca        1 26O     -0.232000
     21 CAU        -0.1910    3.0500   -7.9700 ca        1 26O      0.018000
     22 CAV        -1.4580    2.4470   -8.0760 ca        1 26O     -0.154000
     23 CAW        -1.8830    1.5550   -7.1150 ca        1 26O     -0.038000
     24 OAX         0.9940    1.5770   -4.8210 oh        1 26O     -0.504100
     25 H1         -0.2620   -1.0610    0.6080 hx        1 26O      0.120700
     26 H2          2.3810    0.4710   -0.2440 h1        1 26O      0.095700
     27 HO2         3.0770   -1.8130    0.3150 ho        1 26O      0.485000
     28 H3          1.5370   -0.9640    2.4130 h1        1 26O      0.083700
     29 HO3         3.5630   -0.0040    2.9810 ho        1 26O      0.460000
     30 H4          1.9830    2.0740    1.8190 h1        1 26O      0.083700
     31 HO4         1.4790    2.1410    3.9690 ho        1 26O      0.437000
     32 H5         -0.7080    0.5560    2.3560 h1        1 26O      0.095700
     33 H6         -0.1770    3.4320    1.2610 h1        1 26O      0.063200
     34 H6A        -0.4910    3.0350    3.0330 h1        1 26O      0.063200
     35 HO6        -2.4830    3.3620    2.0950 ho        1 26O      0.437000
     36 HNAL        0.1420    0.5230   -1.8880 hn        1 26O      0.500800
     37 HNAN       -2.5150   -1.4130   -3.3900 hn        1 26O      0.462300
     38 HAQ        -2.6560   -0.0460   -5.3100 h4        1 26O      0.027800
     39 HAT         1.6230    3.2330   -6.8060 ha        1 26O      0.171000
     40 HAU         0.1460    3.7600   -8.7470 ha        1 26O      0.181000
     41 HAV        -2.1060    2.6920   -8.9350 ha        1 26O      0.181000
     42 HAW        -2.8770    1.0860   -7.2110 ha        1 26O      0.153000
     43 HOAX        1.8400    2.0470   -4.9310 ho        1 26O      0.457000
     44 HAL2        0.7500   -1.0440   -1.8160 hn        1 26O      0.500800
     45 HAN2       -0.9910   -2.1280   -3.4360 hn        1 26O      0.462300
@<TRIPOS>BOND
     1    1    2 1   
     2    1    9 1   
     3    1   12 1   
     4    1   25 1   
     5    2    3 1   
     6    2    4 1   
     7    2   26 1   
     8    3   27 1   
     9    4    5 1   
    10    4    6 1   
    11    4   28 1   
    12    5   29 1   
    13    6    7 1   
    14    6    8 1   
    15    6   30 1   
    16    7   31 1   
    17    8    9 1   
    18    8   10 1   
    19    8   32 1   
    20   10   11 1   
    21   10   33 1   
    22   10   34 1   
    23   11   35 1   
    24   12   13 1   
    25   12   36 1   
    26   12   44 1   
    27   13   14 1   
    28   13   15 2   
    29   14   16 1   
    30   14   37 1   
    31   14   45 1   
    32   16   17 2   
    33   17   18 1   
    34   17   38 1   
    35   18   19 ar  
    36   18   23 ar  
    37   19   20 ar  
    38   19   24 1   
    39   20   21 ar  
    40   20   39 1   
    41   21   22 ar  
    42   21   40 1   
    43   22   23 ar  
    44   22   41 1   
    45   23   42 1   
    46   24   43 1   
@<TRIPOS>SUBSTRUCTURE
     1 26O         1 TEMP              0 ****  ****    0 ROOT
