@<TRIPOS>MOLECULE
26P
   22    20     1     0     0
SMALL
bcc


@<TRIPOS>ATOM
      1 C1         -2.6550    0.9300    1.4740 c1        1 26P      0.308000
      2 O11        -3.2350    0.0050    2.1010 o         1 26P     -0.606000
      3 O12        -3.3310    1.7840    0.8440 os        1 26P     -0.579000
      4 C2         -1.1460    1.0130    1.4780 c3        1 26P     -0.117000
      5 N2         -0.6780    1.0820    2.8190 n3        1 26P     -0.329000
      6 C3         -0.5710   -0.2130    0.8060 c3        1 26P     -0.149000
      7 C4          0.2950    0.2100   -0.3600 c3        1 26P     -0.149000
      8 C5          0.7810   -1.0180   -1.0980 c3        1 26P     -0.216000
      9 C6          1.6140   -0.5940   -2.2890 c2        1 26P      0.184000
     10 O6          1.4880    0.5220   -2.7510 o         1 26P     -0.361000
     11 C7          2.6020   -1.5600   -2.9030 c2        1 26P      0.316000
     12 O71         2.2140   -2.4020   -3.7540 o         1 26P     -0.568500
     13 O72         3.8140   -1.5200   -2.5640 o         1 26P     -0.568500
     14 H2         -0.8620    1.8130    0.9920 h1        1 26P      0.082000
     15 HN21        0.1200    1.5320    2.8420 hn        1 26P      0.122500
     16 HN22       -1.2930    1.5240    3.3350 hn        1 26P      0.122500
     17 H31        -0.0310   -0.7140    1.4490 hc        1 26P      0.078500
     18 H32        -1.3000   -0.7790    0.4820 hc        1 26P      0.078500
     19 H41         1.0630    0.7170   -0.0280 hc        1 26P      0.078000
     20 H42        -0.2270    0.7710   -0.9680 hc        1 26P      0.078000
     21 H51         1.3260   -1.5650   -0.4980 hc        1 26P      0.098000
     22 H52         0.0130   -1.5380   -1.4070 hc        1 26P      0.098000
@<TRIPOS>BOND
     1    1    2 1   
     2    1    4 1   
     3    4    5 1   
     4    4    6 1   
     5    4   14 1   
     6    5   15 1   
     7    5   16 1   
     8    6    7 1   
     9    6   17 1   
    10    6   18 1   
    11    7    8 1   
    12    7   19 1   
    13    7   20 1   
    14    8    9 1   
    15    8   21 1   
    16    8   22 1   
    17    9   10 1   
    18    9   11 1   
    19   11   12 1   
    20   11   13 1   
@<TRIPOS>SUBSTRUCTURE
     1 26P         1 TEMP              0 ****  ****    0 ROOT
