@<TRIPOS>MOLECULE
26P
   22    21     1     0     0
SMALL
bcc


@<TRIPOS>ATOM
      1 C1         -0.3900    0.1680    3.6950 c         1 26P      0.888600
      2 O11        -0.2510   -0.7370    4.5720 o         1 26P     -0.857800
      3 O12        -1.2410    1.0970    3.7840 o         1 26P     -0.857800
      4 C2          0.5590    0.1610    2.4530 c3        1 26P      0.030500
      5 N2          1.6710   -0.7750    2.5640 n3        1 26P     -0.896800
      6 C3         -0.2950   -0.0260    1.1960 c3        1 26P     -0.070400
      7 C4          0.4740    0.2000   -0.0880 c3        1 26P     -0.070400
      8 C5         -0.4090    0.0290   -1.3060 c3        1 26P     -0.187400
      9 C6          0.2980    0.2160   -2.6200 c         1 26P      0.473100
     10 O6          1.4840    0.5650   -2.6960 o         1 26P     -0.600100
     11 C7         -0.5700   -0.0600   -3.8550 c         1 26P      0.846600
     12 O71        -0.6200   -1.2470   -4.2830 o         1 26P     -0.833800
     13 O72        -1.2010    0.9100   -4.3600 o         1 26P     -0.833800
     14 H2          1.0260    1.1890    2.4050 h1        1 26P      0.042700
     15 HN21        1.7750   -1.0170    3.5370 hn        1 26P      0.327300
     16 HN22        1.4380   -1.6240    2.0820 hn        1 26P      0.327300
     17 H31        -0.7400   -1.0560    1.1910 hc        1 26P      0.039200
     18 H32        -1.1450    0.7040    1.2640 hc        1 26P      0.039200
     19 H41         0.9130    1.2310   -0.0900 hc        1 26P      0.038700
     20 H42         1.3350   -0.5160   -0.1580 hc        1 26P      0.038700
     21 H51        -0.8610   -0.9990   -1.3120 hc        1 26P      0.058700
     22 H52        -1.2560    0.7650   -1.2730 hc        1 26P      0.058700
@<TRIPOS>BOND
     1    1    2 1   
     2    1    3 1   
     3    1    4 1   
     4    4    5 1   
     5    4    6 1   
     6    4   14 1   
     7    5   15 1   
     8    5   16 1   
     9    6    7 1   
    10    6   17 1   
    11    6   18 1   
    12    7    8 1   
    13    7   19 1   
    14    7   20 1   
    15    8    9 1   
    16    8   21 1   
    17    8   22 1   
    18    9   10 2   
    19    9   11 1   
    20   11   12 1   
    21   11   13 1   
@<TRIPOS>SUBSTRUCTURE
     1 26P         1 TEMP              0 ****  ****    0 ROOT
