@<TRIPOS>MOLECULE
26P
   23    22     1     0     0
SMALL
bcc


@<TRIPOS>ATOM
      1 C1          0.4620   -0.3560    0.6580 c         1 26P      0.922600
      2 O11        -0.2900    0.3370   -0.0610 o         1 26P     -0.793300
      3 O12         0.1890   -0.8870    1.7690 o         1 26P     -0.793300
      4 C2          1.9480   -0.5530    0.1330 c3        1 26P     -0.040500
      5 N2          2.6660   -1.5480    0.9770 nz        1 26P     -0.839600
      6 C3          1.9440   -0.9040   -1.3480 c3        1 26P     -0.089400
      7 C4          3.2380   -0.5780   -2.0680 c3        1 26P     -0.083400
      8 C5          4.2660   -1.6890   -2.0400 c3        1 26P     -0.196400
      9 C6          5.0300   -1.7690   -0.7470 c         1 26P      0.441100
     10 O6          5.3640   -0.7530   -0.1200 o         1 26P     -0.594100
     11 C7          5.2740   -3.1920   -0.2210 c         1 26P      0.854600
     12 O71         6.2830   -3.8210   -0.6050 o         1 26P     -0.807300
     13 O72         4.3780   -3.6260    0.5690 o         1 26P     -0.807300
     14 H2          2.4600    0.4420    0.2800 hx        1 26P      0.081700
     15 HN21        2.8050   -2.4490    0.4830 hn        1 26P      0.458800
     16 HN22        2.0920   -1.7160    1.8200 hn        1 26P      0.458800
     17 H31         1.6750   -1.9820   -1.5000 hc        1 26P      0.074200
     18 H32         1.1130   -0.2900   -1.7990 hc        1 26P      0.074200
     19 H41         3.6920    0.3540   -1.6350 hc        1 26P      0.045200
     20 H42         2.9900   -0.3580   -3.1410 hc        1 26P      0.045200
     21 H51         5.0180   -1.5240   -2.8580 hc        1 26P      0.065700
     22 H52         3.7750   -2.6790   -2.2320 hc        1 26P      0.065700
     23 H23         3.5920   -1.2130    1.2470 hn        1 26P      0.458800
@<TRIPOS>BOND
     1    1    2 1   
     2    1    3 1   
     3    1    4 1   
     4    4    5 1   
     5    4    6 1   
     6    4   14 1   
     7    5   15 1   
     8    5   16 1   
     9    5   23 1   
    10    6    7 1   
    11    6   17 1   
    12    6   18 1   
    13    7    8 1   
    14    7   19 1   
    15    7   20 1   
    16    8    9 1   
    17    8   21 1   
    18    8   22 1   
    19    9   10 2   
    20    9   11 1   
    21   11   12 1   
    22   11   13 1   
@<TRIPOS>SUBSTRUCTURE
     1 26P         1 TEMP              0 ****  ****    0 ROOT
