@<TRIPOS>MOLECULE
26P
   23    22     1     0     0
SMALL
bcc


@<TRIPOS>ATOM
      1 C1          0.4660   -0.3910    0.6950 c         1 26P      0.922600
      2 O11        -0.3210    0.2630   -0.0230 o         1 26P     -0.793300
      3 O12         0.2340   -0.8990    1.8250 o         1 26P     -0.793300
      4 C2          1.9440   -0.5640    0.1390 c3        1 26P     -0.040500
      5 N2          2.7080   -1.5170    0.9910 n4        1 26P     -0.839600
      6 C3          1.9140   -0.9550   -1.3320 c3        1 26P     -0.089400
      7 C4          3.1810   -0.6150   -2.0920 c3        1 26P     -0.083400
      8 C5          4.2380   -1.6980   -2.0590 c3        1 26P     -0.196400
      9 C6          5.0360   -1.7220   -0.7840 c         1 26P      0.441100
     10 O6          5.3570   -0.6810   -0.1930 o         1 26P     -0.594100
     11 C7          5.3300   -3.1230   -0.2260 c         1 26P      0.854600
     12 O71         6.3460   -3.7360   -0.6180 o         1 26P     -0.807300
     13 O72         4.4650   -3.5600    0.5960 o         1 26P     -0.807300
     14 H2          2.4330    0.4470    0.2460 hx        1 26P      0.081700
     15 HN21        2.8600   -2.4270    0.5180 hn        1 26P      0.458800
     16 HN22        3.6310   -1.1500    1.2290 hn        1 26P      0.458800
     17 H31         1.0560   -0.3750   -1.7780 hc        1 26P      0.074200
     18 H32         1.6700   -2.0430   -1.4490 hc        1 26P      0.074200
     19 H41         3.6200    0.3400   -1.6960 hc        1 26P      0.045200
     20 H42         2.9020   -0.4310   -3.1650 hc        1 26P      0.045200
     21 H51         4.9660   -1.5360   -2.9000 hc        1 26P      0.065700
     22 H52         3.7690   -2.7060   -2.2120 hc        1 26P      0.065700
     23 H23         2.1590   -1.6770    1.8510 hn        1 26P      0.458800
@<TRIPOS>BOND
     1    1    2 1   
     2    1    3 1   
     3    1    4 1   
     4    4    5 1   
     5    4    6 1   
     6    4   14 1   
     7    5   15 1   
     8    5   16 1   
     9    5   23 1   
    10    6    7 1   
    11    6   17 1   
    12    6   18 1   
    13    7    8 1   
    14    7   19 1   
    15    7   20 1   
    16    8    9 1   
    17    8   21 1   
    18    8   22 1   
    19    9   10 2   
    20    9   11 1   
    21   11   12 1   
    22   11   13 1   
@<TRIPOS>SUBSTRUCTURE
     1 26P         1 TEMP              0 ****  ****    0 ROOT
