@<TRIPOS>MOLECULE
26P
   23    22     1     0     0
SMALL
bcc


@<TRIPOS>ATOM
      1 C1          0.4260   -0.2980    0.5250 c         1 26P      0.922600
      2 O11        -0.2570    0.4380   -0.2180 o         1 26P     -0.793300
      3 O12         0.0690   -0.8470    1.6030 o         1 26P     -0.793300
      4 C2          1.9350   -0.5330    0.0860 c3        1 26P     -0.040500
      5 N2          2.5670   -1.5720    0.9450 n4        1 26P     -0.839600
      6 C3          2.0100   -0.8480   -1.4020 c3        1 26P     -0.089400
      7 C4          3.3540   -0.5500   -2.0340 c3        1 26P     -0.083400
      8 C5          4.3420   -1.6950   -1.9720 c3        1 26P     -0.196400
      9 C6          5.0240   -1.8290   -0.6370 c         1 26P      0.441100
     10 O6          5.3510   -0.8400    0.0330 o         1 26P     -0.594100
     11 C7          5.1910   -3.2710   -0.1330 c         1 26P      0.854600
     12 O71         6.2020   -3.9240   -0.4710 o         1 26P     -0.807300
     13 O72         4.2350   -3.6950    0.5890 o         1 26P     -0.807300
     14 H2          2.4690    0.4400    0.2880 hx        1 26P      0.081700
     15 HN21        1.9380   -1.7410    1.7470 hn        1 26P      0.458800
     16 HN22        3.4860   -1.2740    1.2800 hn        1 26P      0.458800
     17 H31         1.7150   -1.9130   -1.5970 hc        1 26P      0.074200
     18 H32         1.2270   -0.1960   -1.8860 hc        1 26P      0.074200
     19 H41         3.8110    0.3560   -1.5520 hc        1 26P      0.045200
     20 H42         3.1800   -0.2980   -3.1150 hc        1 26P      0.045200
     21 H51         5.1470   -1.5370   -2.7390 hc        1 26P      0.065700
     22 H52         3.8320   -2.6640   -2.2160 hc        1 26P      0.065700
     23 H23         2.7080   -2.4650    0.4380 hn        1 26P      0.458800
@<TRIPOS>BOND
     1    1    2 1   
     2    1    3 1   
     3    1    4 1   
     4    4    5 1   
     5    4    6 1   
     6    4   14 1   
     7    5   15 1   
     8    5   16 1   
     9    5   23 1   
    10    6    7 1   
    11    6   17 1   
    12    6   18 1   
    13    7    8 1   
    14    7   19 1   
    15    7   20 1   
    16    8    9 1   
    17    8   21 1   
    18    8   22 1   
    19    9   10 2   
    20    9   11 1   
    21   11   12 1   
    22   11   13 1   
@<TRIPOS>SUBSTRUCTURE
     1 26P         1 TEMP              0 ****  ****    0 ROOT
