@<TRIPOS>MOLECULE
26S
   73    68     1     0     0
SMALL
bcc


@<TRIPOS>ATOM
      1 C1         -2.2050    0.8550    2.8800 c3        1 26S     -0.058000
      2 C2          0.6880    0.4090   -1.0740 c3        1 26S     -0.318000
      3 C3         -6.7060    0.4340   -0.7690 c1        1 26S     -0.180000
      4 C4         -5.1570   -0.6220   -3.9550 c2        1 26S     -0.166000
      5 C5         -1.1070    0.6220    2.0130 c1        1 26S      0.288000
      6 C6          0.7670    0.0620    0.3450 c2        1 26S      0.313000
      7 C7         -5.2950    0.4950   -0.5390 c3        1 26S      0.016000
      8 C8         -4.8210   -0.5190   -2.7090 c1        1 26S      0.039000
      9 C9         -7.0050   -6.9330    6.5270 c2        1 26S     -0.299000
     10 C10        -7.8930    0.4060   -0.9340 c1        1 26S     -0.166000
     11 C11        -1.9010    0.6320    4.3100 c2        1 26S     -0.526000
     12 C12        -0.1810    0.3950    1.2360 c1        1 26S     -0.306000
     13 C13        -4.4900   -0.3950   -1.4460 c2        1 26S     -0.814000
     14 C14        -6.0110   -6.6000    5.5470 c2        1 26S      0.197000
     15 C15        -7.7530   -5.8720    7.0450 c2        1 26S      0.072000
     16 C16        -6.6150   -4.3670    5.7500 c2        1 26S      0.207000
     17 C17        -4.5850   -2.6900    1.7760 c2        1 26S      0.287000
     18 C18        -6.7230   -4.0490   -0.6240 c1        1 26S     -0.131000
     19 C19        -7.4810   -5.0150   -1.0430 c2        1 26S     -0.154000
     20 C20        -5.9920   -3.0600   -0.1950 c2        1 26S     -0.188000
     21 C21        -4.5910   -3.2530    0.3280 c3        1 26S      0.082000
     22 C22       -10.1190   -0.3940   -0.1870 c1        1 26S     -0.039000
     23 C23         1.9440    0.1140   -1.8510 c2        1 26S      0.191000
     24 C27        -1.7230    1.5320    5.2550 c1        1 26S      0.278000
     25 N28        -5.8040   -5.2960    5.1500 n2        1 26S     -0.287000
     26 N29        -7.5930   -4.5720    6.6870 n2        1 26S     -0.290000
     27 N30        -5.2820   -7.6090    4.9480 nh        1 26S     -0.345000
     28 N31        -3.5680   -2.6690   -0.5050 n3        1 26S     -0.869000
     29 N32        -4.6860   -3.5700    2.8070 n         1 26S     -0.380000
     30 O33        -4.4710   -1.4580    1.9800 o         1 26S     -0.428000
     31 O36         2.9070   -0.4580   -1.3460 o         1 26S     -0.259000
     32 O37        -8.7420   -6.2250    8.0180 os        1 26S     -0.015000
     33 O38        -6.3390   -3.0870    5.3000 os        1 26S     -0.209000
     34 S39        -3.1480   -1.1350   -0.7760 s6        1 26S      2.868000
     35 H1         -2.6270    1.8870    2.6970 hc        1 26S      0.208000
     36 H2         -1.8680   -0.4350    4.6270 ha        1 26S      0.210000
     37 H3         -4.9440    1.5580   -0.6810 hc        1 26S      0.126500
     38 H4         -5.8620   -1.3910   -4.3130 ha        1 26S      0.175500
     39 H5         -3.0310    0.1240    2.5310 hc        1 26S      0.208000
     40 H6          1.6530   -0.5320    0.6770 ha        1 26S      0.200000
     41 H7         -5.0850    0.2120    0.5380 hc        1 26S      0.126500
     42 H8         -4.7530    0.0490   -4.7310 ha        1 26S      0.175500
     43 H9         -7.1850   -7.9620    6.8580 ha        1 26S      0.178000
     44 H18        -8.1470   -5.5750   -0.3680 ha        1 26S      0.151000
     45 H18A       -5.2960   -8.4950    5.3940 hn        1 26S      0.230000
     46 H19        -3.1240   -3.3660   -1.0670 hn        1 26S      0.256000
     47 H19A       -7.5070   -5.3280   -2.0980 ha        1 26S      0.151000
     48 H20        -4.4750   -7.3770    4.4200 hn        1 26S      0.230000
     49 H20A       -6.3720   -2.0210   -0.1840 ha        1 26S      0.168000
     50 H21        -4.3690   -4.3660    0.3700 h1        1 26S      0.119000
     51 H22       -10.3670    1.1870    1.4380 ha        1 26S      0.005833
     52 H22A      -11.0130    1.0730    1.2520 ha        1 26S      0.005833
     53 H22B       -9.5840   -0.9550    0.5960 ha        1 26S      0.042000
     54 H23        -0.1700   -0.1980   -1.5370 hc        1 26S      0.210000
     55 H23A        0.3890    1.4870   -1.2210 hc        1 26S      0.210000
     56 H23B        1.9180    0.4470   -2.9100 h4        1 26S      0.139000
     57 H24       -11.3690   -5.2950    7.1110 ha        1 26S      0.005833
     58 H24A      -11.5730   -5.8010    7.5150 ha        1 26S      0.005833
     59 H24B       -9.5250   -4.3290    8.4970 ha        1 26S      0.076000
     60 H25        -7.0000   -1.9320    6.9270 h1        1 26S      0.099000
     61 H25A       -6.7340   -1.1270    5.2900 h1        1 26S      0.099000
     62 H25B       -8.2190   -2.1820    5.5730 h1        1 26S      0.099000
     63 H26        -9.5560   -0.0440   -2.1490 hc        1 26S      0.165000
     64 H26A       -9.7220    1.4330   -1.1240 hc        1 26S      0.165000
     65 H27        -4.1140   -1.0290    4.4000 ha        1 26S      0.005833
     66 H27A       -4.5880   -1.2940    4.8080 ha        1 26S      0.005833
     67 HN32       -4.9230   -4.5190    2.6480 hn        1 26S      0.248000
     68 O34        -2.0690   -1.1570   -1.7140 o         1 26S     -0.979000
     69 O35        -2.7310   -0.4400    0.3870 o         1 26S     -0.979000
     70 H322       -4.8090   -3.2170    3.7320 hn        1 26S      0.248000
     71 C26        -9.3140    0.3750   -1.1210 c3        1 26S     -0.150000
     72 C24        -9.5160   -5.4260    8.6310 c1        1 26S      0.014000
     73 C25        -7.1430   -2.0230    5.8240 c3        1 26S     -0.062000
@<TRIPOS>BOND
     1    1    5 1   
     2    1   11 1   
     3    1   35 1   
     4    1   39 1   
     5    2    6 1   
     6    2   23 1   
     7    2   54 1   
     8    2   55 1   
     9    3    7 1   
    10    3   10 1   
    11    4    8 1   
    12    4   38 1   
    13    4   42 1   
    14    5   12 1   
    15    6   12 1   
    16    6   40 1   
    17    7   13 1   
    18    7   37 1   
    19    7   41 1   
    20    8   13 1   
    21    9   14 1   
    22    9   15 1   
    23    9   43 1   
    24   10   71 1   
    25   11   24 1   
    26   11   36 1   
    27   13   34 1   
    28   14   25 1   
    29   14   27 1   
    30   15   26 1   
    31   15   32 1   
    32   16   25 1   
    33   16   26 1   
    34   16   33 1   
    35   17   21 1   
    36   17   29 1   
    37   17   30 1   
    38   18   19 1   
    39   18   20 1   
    40   19   44 1   
    41   19   47 1   
    42   20   21 1   
    43   20   49 1   
    44   21   28 1   
    45   21   50 1   
    46   22   53 1   
    47   22   71 1   
    48   23   31 1   
    49   23   56 1   
    50   27   45 1   
    51   27   48 1   
    52   28   34 1   
    53   28   46 1   
    54   29   67 1   
    55   29   70 1   
    56   32   72 1   
    57   33   73 1   
    58   34   68 1   
    59   34   69 1   
    60   51   52 1   
    61   57   58 1   
    62   59   72 1   
    63   60   73 1   
    64   61   73 1   
    65   62   73 1   
    66   63   71 1   
    67   64   71 1   
    68   65   66 1   
@<TRIPOS>SUBSTRUCTURE
     1 26S         1 TEMP              0 ****  ****    0 ROOT
