@<TRIPOS>MOLECULE
26S
   72    65     1     0     0
SMALL
bcc


@<TRIPOS>ATOM
      1 C1          5.0860    2.6920   -1.6610 c1        1 26S     -0.045750
      2 C2          5.4920    2.1390    0.6580 c1        1 26S     -0.019500
      3 C3         -3.8520   -1.2200   -4.2600 c1        1 26S     -0.045750
      4 C4         -3.7870    1.0870   -4.8880 c1        1 26S     -0.094500
      5 C5          6.4600    2.6330   -1.9180 c1        1 26S     -0.045750
      6 C6          6.8540    2.0810    0.3990 c1        1 26S     -0.150500
      7 C7         -2.7960   -1.0100   -3.3750 c1        1 26S     -0.045750
      8 C8         -2.7450    1.2930   -4.0140 c1        1 26S      0.049500
      9 C9         -0.8630   -2.9570    3.7470 c1        1 26S     -0.292500
     10 C10        -4.3430   -0.1670   -5.0140 c1        1 26S      0.034900
     11 C11         4.6030    2.4440   -0.3660 c1        1 26S     -0.119100
     12 C12         7.3370    2.3310   -0.9010 c1        1 26S      0.111600
     13 C13        -2.2480    0.2310   -3.2520 c1        1 26S     -0.448200
     14 C14        -1.3380   -1.8650    3.0070 c1        1 26S      0.266800
     15 C15        -1.3680   -3.2040    5.0090 c1        1 26S      0.562900
     16 C16        -2.7880   -1.3050    4.7850 c1        1 26S      0.562900
     17 C17         1.0430    1.2820    0.0820 c1        1 26S      0.519500
     18 C18        -1.9550   -1.6700    0.7510 c3        1 26S      0.192800
     19 C19        -1.5750   -1.3310   -0.6580 c3        1 26S      0.020300
     20 C20        -0.1040   -0.4260    1.5720 c3        1 26S      0.125500
     21 C21         0.3440   -0.0730    0.1380 c2        1 26S      0.285200
     22 C22        -6.7910   -0.4670   -5.6180 c3        1 26S     -0.091100
     23 C23         9.6850    2.8320   -0.9800 c3        1 26S      0.113700
     24 C24        -0.3460   -4.1500    6.9510 c3        1 26S      0.126200
     25 C25        -4.0830   -0.4140    6.4910 c3        1 26S      0.126200
     26 C26        -5.3360   -0.5350   -6.1550 c3        1 26S     -0.086300
     27 C27         3.1550    2.6300   -0.0630 c3        1 26S      0.043400
     28 N28        -2.2880   -1.0570    3.5300 n1        1 26S     -0.612800
     29 N29        -2.3170   -2.3930    5.5260 n1        1 26S     -0.612800
     30 N30        -0.8660   -1.6490    1.6370 n3        1 26S     -0.628200
     31 N31        -0.8370   -0.1150   -0.7580 nh        1 26S     -0.498600
     32 N32         2.4710    1.3540   -0.1570 n3        1 26S     -0.391400
     33 O33         0.4120    2.2920    0.2580 o         1 26S     -0.611500
     34 O34         0.4110    0.5820   -2.9050 o         1 26S     -0.654300
     35 O35        -0.8400    2.1630   -1.9780 o         1 26S     -0.654300
     36 O36         8.6050    1.9900   -1.4430 os        1 26S     -0.311400
     37 O37        -0.9860   -4.3940    5.7090 os        1 26S     -0.288400
     38 O38        -3.8340   -0.4660    5.1300 os        1 26S     -0.288400
     39 S39        -0.8320    0.7440   -2.2090 s6        1 26S      1.547000
     40 H1          4.4680    2.9050   -2.3770 ha        1 26S      0.089000
     41 H2          5.1580    1.9660    1.5590 ha        1 26S      0.081500
     42 H3         -4.2390   -2.0960   -4.3470 ha        1 26S      0.089000
     43 H4         -4.1250    1.8170   -5.4090 ha        1 26S      0.087500
     44 H5          6.8050    2.8090   -2.8380 ha        1 26S      0.089000
     45 H6          7.4940    1.8630    1.1340 ha        1 26S      0.080500
     46 H7         -2.4390   -1.7720   -2.8280 ha        1 26S      0.089000
     47 H8         -2.3490    2.1880   -3.9250 ha        1 26S      0.090500
     48 H9         -0.1700   -3.5480    3.3680 ha        1 26S      0.112500
     49 H18        -2.3550   -2.5690    0.7620 h1        1 26S      0.064700
     50 H18A       -2.6260   -1.0220    1.0620 h1        1 26S      0.064700
     51 H19        -1.0180   -2.0760   -1.0280 h1        1 26S      0.076700
     52 H19A       -2.3990   -1.2490   -1.1990 h1        1 26S      0.076700
     53 H20        -0.6480    0.3000    1.9150 h1        1 26S      0.078200
     54 H20A        0.6600   -0.5170    2.1150 h1        1 26S      0.078200
     55 H21         1.0530   -0.6660   -0.1710 h4        1 26S     -0.023200
     56 H22        -6.9900    0.4540   -5.3180 hc        1 26S      0.042033
     57 H22A       -7.4390   -0.7290   -6.3600 hc        1 26S      0.042033
     58 H22B       -6.8920   -1.0900   -4.8580 hc        1 26S      0.042033
     59 H23        10.0210    2.4910   -0.0850 h1        1 26S      0.044367
     60 H23A       10.4270    2.8140   -1.6410 h1        1 26S      0.044367
     61 H23B        9.3540    3.7740   -0.8760 h1        1 26S      0.044367
     62 H24        -0.9810   -3.8060    7.5750 h1        1 26S      0.051867
     63 H24A        0.4000   -3.4750    6.8200 h1        1 26S      0.051867
     64 H24B        0.0370   -5.0070    7.3040 h1        1 26S      0.051867
     65 H25        -4.6630    0.3610    6.6890 h1        1 26S      0.051867
     66 H25A       -4.5340   -1.2420    6.7750 h1        1 26S      0.051867
     67 H25B       -3.2330   -0.3190    6.9760 h1        1 26S      0.051867
     68 H26        -5.2300    0.1050   -6.9020 hc        1 26S      0.054700
     69 H26A       -5.1440   -1.4540   -6.4770 hc        1 26S      0.054700
     70 H27         3.0500    3.0040    0.8840 h1        1 26S      0.069200
     71 H27A        2.7700    3.2500   -0.6990 h1        1 26S      0.069200
     72 HN32        2.9330    0.6030   -0.4060 hn        1 26S      0.305700
@<TRIPOS>BOND
     1    1    5 3   
     2    1   40 1   
     3    2   11 3   
     4    2   41 1   
     5    3    7 3   
     6    3   42 1   
     7    4   10 3   
     8    4   43 1   
     9    5   44 1   
    10    6   12 3   
    11    6   45 1   
    12    7   46 1   
    13    8   13 3   
    14    8   47 1   
    15    9   14 3   
    16    9   48 1   
    17   10   26 1   
    18   11   27 1   
    19   12   36 1   
    20   13   39 1   
    21   14   30 1   
    22   15   29 3   
    23   15   37 1   
    24   16   28 3   
    25   16   38 1   
    26   17   32 2   
    27   17   33 2   
    28   18   19 1   
    29   18   30 1   
    30   18   49 1   
    31   18   50 1   
    32   19   31 1   
    33   19   51 1   
    34   19   52 1   
    35   20   21 1   
    36   20   30 1   
    37   20   53 1   
    38   20   54 1   
    39   21   31 2   
    40   21   55 1   
    41   22   26 1   
    42   22   56 1   
    43   22   57 1   
    44   22   58 1   
    45   23   36 1   
    46   23   59 1   
    47   23   60 1   
    48   23   61 1   
    49   24   37 1   
    50   24   62 1   
    51   24   63 1   
    52   24   64 1   
    53   25   38 1   
    54   25   65 1   
    55   25   66 1   
    56   25   67 1   
    57   26   68 1   
    58   26   69 1   
    59   27   32 1   
    60   27   70 1   
    61   27   71 1   
    62   31   39 1   
    63   32   72 1   
    64   34   39 2   
    65   35   39 2   
@<TRIPOS>SUBSTRUCTURE
     1 26S         1 TEMP              0 ****  ****    0 ROOT
