@<TRIPOS>MOLECULE
26S
   73    64     1     0     0
SMALL
bcc


@<TRIPOS>ATOM
      1 C1         -0.4590    1.6560   -2.9650 c3        1 26S      0.001000
      2 C2         -0.7950   -0.4950    1.5030 c1        1 26S      0.172000
      3 C3         -5.4640    1.6100    0.5730 c1        1 26S     -0.157000
      4 C4         -8.9560   -0.2560   -0.3090 c2        1 26S     -0.171000
      5 C5         -0.8100    0.9710   -1.7550 c1        1 26S      0.074000
      6 C6         -1.4650   -0.2640    0.4190 c2        1 26S      0.086000
      7 C7         -5.7730    0.3610    1.2000 c3        1 26S      0.037000
      8 C8         -7.7070   -0.4460   -0.0270 c1        1 26S      0.057000
      9 C9         -5.4000   -7.1160    6.0030 c2        1 26S     -0.285000
     10 C10        -5.2110    2.6630    0.0580 c1        1 26S     -0.015000
     11 C11        -1.6550    2.1070   -3.7170 c2        1 26S     -0.516000
     12 C12        -1.0910    0.3990   -0.7350 c1        1 26S     -0.217000
     13 C13        -6.4390   -0.6130    0.2680 c2        1 26S     -0.825000
     14 C14        -4.8730   -6.3270    4.9200 c2        1 26S      0.209000
     15 C15        -6.6260   -6.7150    6.5390 c2        1 26S      0.065000
     16 C16        -6.7440   -4.9690    5.0790 c2        1 26S      0.061000
     17 C17        -3.9140   -2.4000    2.6450 c2        1 26S      0.352000
     18 C18        -7.7480   -3.8110   -0.7640 c1        1 26S      0.053000
     19 C19        -8.2730   -4.2450   -1.8700 c2        1 26S     -0.475000
     20 C20        -4.1910   -4.7550    2.0110 c1        1 26S     -0.024000
     21 C21        -4.3000   -3.3840    1.5070 c3        1 26S     -0.049000
     22 C22        -4.6850    4.9120   -1.0320 c1        1 26S     -0.128000
     23 C23        -0.2140   -0.8240    2.7690 c2        1 26S      0.217000
     24 C27        -1.9940    3.3430   -4.0170 c1        1 26S      0.263000
     25 N28        -5.5760   -5.2330    4.4400 n2        1 26S     -0.287000
     26 N29        -7.3360   -5.6370    6.1060 n2        1 26S     -0.276000
     27 N30        -3.6630   -6.6350    4.3620 nh        1 26S     -0.359000
     28 N31        -5.4860   -2.9660    0.8130 n3        1 26S     -0.901000
     29 N32        -4.7470   -2.2490    3.6950 n         1 26S     -0.366000
     30 O33        -2.8550   -1.7240    2.5290 o         1 26S     -0.526000
     31 O36         0.9450   -0.5640    3.0740 o         1 26S     -0.175000
     32 O37        -7.1300   -7.5190    7.6120 os        1 26S     -0.012000
     33 O38        -7.3980   -3.7740    4.5790 os        1 26S     -0.033000
     34 S39        -5.4920   -1.8470   -0.3590 s6        1 26S      2.877000
     35 H1          0.2070    2.5320   -2.7100 hc        1 26S      0.140000
     36 H2         -2.3230    1.2950   -4.0800 ha        1 26S      0.206000
     37 H3         -4.8190   -0.1010    1.5950 hc        1 26S      0.106000
     38 H4         -9.7720   -0.6940    0.2940 ha        1 26S      0.182500
     39 H5          0.1480    0.9560   -3.6150 hc        1 26S      0.140000
     40 H6         -2.5480   -0.6860    0.4210 ha        1 26S      0.352000
     41 H7         -6.4430    0.5500    2.0880 hc        1 26S      0.106000
     42 H8         -9.2760    0.3440   -1.1800 ha        1 26S      0.182500
     43 H9         -4.8720   -7.9910    6.4000 ha        1 26S      0.181000
     44 H18        -9.1240   -4.9370   -1.9550 ha        1 26S      0.205500
     45 H18A       -3.2010   -7.4590    4.6550 hn        1 26S      0.255000
     46 H19        -6.3140   -3.4820    1.0310 hn        1 26S      0.279000
     47 H19A       -7.8660   -3.9200   -2.8490 ha        1 26S      0.205500
     48 H20        -3.3170   -6.1200    3.5810 hn        1 26S      0.255000
     49 H20A       -4.9540   -5.4840    1.7030 ha        1 26S      0.085000
     50 H21        -3.4130   -3.3430    0.7720 h1        1 26S      0.179000
     51 H22       -10.3480    1.3620   -2.9040 ha        1 26S      0.003083
     52 H22A       -9.7730    1.7200   -2.9180 ha        1 26S      0.003083
     53 H22B       -4.4730    5.8480   -1.4870 ha        1 26S      0.241000
     54 H23         3.2770   -1.0230    2.9820 ha        1 26S      0.003083
     55 H23A        3.2260   -0.9470    3.6530 ha        1 26S      0.003083
     56 H23B       -0.9540   -1.3430    3.4430 h4        1 26S      0.227000
     57 H24        -9.8090   -8.4750    6.9430 ha        1 26S      0.003083
     58 H24A       -9.6540   -8.9600    7.3910 ha        1 26S      0.003083
     59 H24B       -8.8860   -6.4710    8.1180 ha        1 26S      0.079000
     60 H25        -8.5000   -1.8370    6.4440 ha        1 26S      0.003083
     61 H25A       -8.6140   -2.3540    6.8680 ha        1 26S      0.003083
     62 H25B       -9.3630   -4.0930    5.2770 ha        1 26S      0.096000
     63 H26       -11.6520   -1.1620    1.5190 ha        1 26S      0.003083
     64 H26A      -11.4550   -1.7840    1.3380 ha        1 26S      0.003083
     65 H27        -2.2360   -1.6370    5.2520 ha        1 26S      0.003083
     66 H27A       -2.3700   -1.0070    5.0430 ha        1 26S      0.003083
     67 HN32       -5.5770   -2.7900    3.7790 hn        1 26S      0.255500
     68 O34        -6.0460   -2.3430   -1.5570 o         1 26S     -0.956500
     69 O35        -4.1430   -1.3840   -0.4810 o         1 26S     -0.956500
     70 H322       -4.4850   -1.6650    4.4550 hn        1 26S      0.255500
     71 C26        -4.9280    3.8550   -0.5200 c1        1 26S     -0.091000
     72 C24        -8.1930   -7.3150    8.2740 c1        1 26S      0.020000
     73 C25        -8.6180   -3.4770    4.7450 c1        1 26S      0.009000
@<TRIPOS>BOND
     1    1    5 1   
     2    1   11 1   
     3    1   35 1   
     4    1   39 1   
     5    2    6 1   
     6    2   23 1   
     7    3    7 1   
     8    3   10 1   
     9    4    8 1   
    10    4   38 1   
    11    4   42 1   
    12    5   12 1   
    13    6   12 1   
    14    6   40 1   
    15    7   13 1   
    16    7   37 1   
    17    7   41 1   
    18    8   13 1   
    19    9   14 1   
    20    9   15 1   
    21    9   43 1   
    22   10   71 1   
    23   11   24 1   
    24   11   36 1   
    25   13   34 1   
    26   14   25 1   
    27   14   27 1   
    28   15   26 1   
    29   15   32 1   
    30   16   25 1   
    31   16   26 1   
    32   16   33 1   
    33   17   21 1   
    34   17   29 1   
    35   17   30 1   
    36   18   19 1   
    37   19   44 1   
    38   19   47 1   
    39   20   21 1   
    40   20   49 1   
    41   21   28 1   
    42   21   50 1   
    43   22   53 1   
    44   22   71 1   
    45   23   31 1   
    46   23   56 1   
    47   27   45 1   
    48   27   48 1   
    49   28   34 1   
    50   28   46 1   
    51   29   67 1   
    52   29   70 1   
    53   32   72 1   
    54   33   73 1   
    55   34   68 1   
    56   34   69 1   
    57   51   52 1   
    58   54   55 1   
    59   57   58 1   
    60   59   72 1   
    61   60   61 1   
    62   62   73 1   
    63   63   64 1   
    64   65   66 1   
@<TRIPOS>SUBSTRUCTURE
     1 26S         1 TEMP              0 ****  ****    0 ROOT
