@<TRIPOS>MOLECULE
26S
   72    75     1     0     0
SMALL
bcc


@<TRIPOS>ATOM
      1 C1         -5.0260    0.2530    0.0990 ca        1 26S     -0.084000
      2 C2         -5.6930    2.2780    1.2420 ca        1 26S     -0.084000
      3 C3          0.3730   -3.8150    1.7460 ca        1 26S     -0.160500
      4 C4          1.1240   -4.8090   -0.3230 ca        1 26S     -0.160500
      5 C5         -6.3000    0.1230   -0.4360 ca        1 26S     -0.185000
      6 C6         -6.9800    2.1630    0.7190 ca        1 26S     -0.185000
      7 C7         -0.2420   -2.7930    1.0270 ca        1 26S     -0.007500
      8 C8          0.5090   -3.7870   -1.0320 ca        1 26S     -0.007500
      9 C9          4.6940    2.0660   -1.0440 ca        1 26S     -0.453600
     10 C10         1.0620   -4.8320    1.0790 ca        1 26S     -0.003300
     11 C11        -4.7150    1.3290    0.9410 ca        1 26S     -0.157300
     12 C12        -7.2810    1.0850   -0.1210 ca        1 26S      0.128100
     13 C13        -0.1850   -2.7600   -0.3720 ca        1 26S     -0.407500
     14 C14         3.6060    1.9100   -0.1370 ca        1 26S      0.704200
     15 C15         5.8460    2.7250   -0.5570 ca        1 26S      0.699600
     16 C16         4.8530    3.0050    1.4900 ca        1 26S      0.902300
     17 C17        -1.1160    0.8130    0.7440 c         1 26S      0.643100
     18 C18         2.5200    0.1360   -1.4000 c3        1 26S      0.175800
     19 C19         1.1890   -0.2380   -2.0870 c3        1 26S      0.218800
     20 C20         1.2710    1.3020    0.3260 c3        1 26S      0.180800
     21 C21        -0.0590    0.9110   -0.3880 c3        1 26S      0.178500
     22 C22         1.0210   -7.2460    1.6710 c3        1 26S     -0.090100
     23 C23        -9.5310    1.8120   -0.3940 c3        1 26S      0.113700
     24 C24         8.0580    3.5170   -1.0540 c3        1 26S      0.124700
     25 C25         6.0060    4.1130    3.2810 c3        1 26S      0.125700
     26 C27        -3.3470    1.4430    1.5460 c3        1 26S      0.133300
     27 N28         3.6860    2.3750    1.1560 nb        1 26S     -0.766000
     28 N29         5.9640    3.2100    0.7070 nb        1 26S     -0.836000
     29 N30         2.3940    1.3440   -0.6000 nh        1 26S     -0.736300
     30 N31         0.0560   -0.2830   -1.1950 n3        1 26S     -0.807500
     31 N32        -2.2820    1.5240    0.5700 n         1 26S     -0.519900
     32 O33        -0.8470    0.2100    1.8020 o         1 26S     -0.612100
     33 O36        -8.5150    0.8660   -0.7020 os        1 26S     -0.326900
     34 O37         6.8670    2.8470   -1.4720 os        1 26S     -0.441100
     35 O38         4.8350    3.4510    2.7980 os        1 26S     -0.414100
     36 S39        -0.9610   -1.5690   -1.2550 sy        1 26S      1.517200
     37 H1         -4.2500   -0.4990   -0.1390 ha        1 26S      0.155500
     38 H2         -5.4540    3.1270    1.9020 ha        1 26S      0.155500
     39 H3          0.3150   -3.8170    2.8460 ha        1 26S      0.143500
     40 H4          1.6600   -5.6080   -0.8570 ha        1 26S      0.143500
     41 H5         -6.5570   -0.7150   -1.0980 ha        1 26S      0.144000
     42 H6         -7.7390    2.9160    0.9700 ha        1 26S      0.144000
     43 H7         -0.7850   -1.9950    1.5700 ha        1 26S      0.165000
     44 H8          0.5480   -3.7840   -2.1370 ha        1 26S      0.165000
     45 H9          4.6660    1.7320   -2.0850 ha        1 26S      0.169000
     46 H18         2.8650   -0.7310   -0.7650 h1        1 26S      0.055200
     47 H18A        3.2780    0.2980   -2.2150 h1        1 26S      0.055200
     48 H19         0.9840    0.5090   -2.9080 h1        1 26S      0.063200
     49 H19A        1.3230   -1.2530   -2.5640 h1        1 26S      0.063200
     50 H20         1.1180    2.3290    0.7620 h1        1 26S      0.082200
     51 H20A        1.4570    0.5800    1.1730 h1        1 26S      0.082200
     52 H21        -0.3310    1.7630   -1.0870 h1        1 26S      0.066700
     53 H22         1.5670   -8.0450    2.2290 hc        1 26S      0.040367
     54 H22A       -0.0220   -7.1870    2.0650 hc        1 26S      0.040367
     55 H22B        0.9740   -7.5340    0.5920 hc        1 26S      0.040367
     56 H23       -10.4200    1.4330   -0.9580 h1        1 26S      0.043700
     57 H23A       -9.7380    1.8270    0.7040 h1        1 26S      0.043700
     58 H23B       -9.2430    2.8310   -0.7510 h1        1 26S      0.043700
     59 H24         8.5400    2.9710   -0.2080 h1        1 26S      0.052700
     60 H24A        8.6990    3.4780   -1.9720 h1        1 26S      0.052700
     61 H24B        7.8360    4.5720   -0.7680 h1        1 26S      0.052700
     62 H25         5.7250    4.3580    4.3380 h1        1 26S      0.053033
     63 H25A        6.8880    3.4290    3.2520 h1        1 26S      0.053033
     64 H25B        6.2060    5.0420    2.6970 h1        1 26S      0.053033
     65 H26         2.7920   -6.0210    1.4780 hc        1 26S      0.054200
     66 H26A        1.7750   -5.6600    2.9300 hc        1 26S      0.054200
     67 H27        -3.2870    2.3740    2.1830 h1        1 26S      0.065700
     68 H27A       -3.1710    0.5530    2.2220 h1        1 26S      0.065700
     69 HN32       -2.5590    1.7300   -0.3640 hn        1 26S      0.313500
     70 C26         1.7310   -5.9240    1.8390 c3        1 26S     -0.052100
     71 O34        -1.0550   -2.0040   -2.5980 o         1 26S     -0.658300
     72 O35        -2.1810   -1.2100   -0.6400 o         1 26S     -0.658300
@<TRIPOS>BOND
     1    1    5 ar  
     2    1   11 ar  
     3    1   37 1   
     4    2    6 ar  
     5    2   11 ar  
     6    2   38 1   
     7    3    7 ar  
     8    3   10 ar  
     9    3   39 1   
    10    4    8 ar  
    11    4   10 ar  
    12    4   40 1   
    13    5   12 ar  
    14    5   41 1   
    15    6   12 ar  
    16    6   42 1   
    17    7   13 ar  
    18    7   43 1   
    19    8   13 ar  
    20    8   44 1   
    21    9   14 ar  
    22    9   15 ar  
    23    9   45 1   
    24   10   70 1   
    25   11   26 1   
    26   12   33 1   
    27   13   36 1   
    28   14   27 ar  
    29   14   29 1   
    30   15   28 ar  
    31   15   34 1   
    32   16   27 ar  
    33   16   28 ar  
    34   16   35 1   
    35   17   21 1   
    36   17   31 1   
    37   17   32 2   
    38   18   19 1   
    39   18   29 1   
    40   18   46 1   
    41   18   47 1   
    42   19   30 1   
    43   19   48 1   
    44   19   49 1   
    45   20   21 1   
    46   20   29 1   
    47   20   50 1   
    48   20   51 1   
    49   21   30 1   
    50   21   52 1   
    51   22   53 1   
    52   22   54 1   
    53   22   55 1   
    54   22   70 1   
    55   23   33 1   
    56   23   56 1   
    57   23   57 1   
    58   23   58 1   
    59   24   34 1   
    60   24   59 1   
    61   24   60 1   
    62   24   61 1   
    63   25   35 1   
    64   25   62 1   
    65   25   63 1   
    66   25   64 1   
    67   26   31 1   
    68   26   67 1   
    69   26   68 1   
    70   30   36 1   
    71   31   69 1   
    72   36   71 2   
    73   36   72 2   
    74   65   70 1   
    75   66   70 1   
@<TRIPOS>SUBSTRUCTURE
     1 26S         1 TEMP              0 ****  ****    0 ROOT
