@<TRIPOS>MOLECULE
26S
   73    65     1     0     0
SMALL
bcc


@<TRIPOS>ATOM
      1 C1         -2.0790    2.9180    0.9140 c3        1 26S     -0.031000
      2 C2          0.6540   -1.2090    1.0850 c2        1 26S     -0.302000
      3 C3         -7.2750   -0.6580    2.1710 c1        1 26S     -0.217000
      4 C4         -8.8690   -0.1950   -1.6820 c2        1 26S     -0.168000
      5 C5         -1.1460    1.8760    1.2140 c1        1 26S      0.120000
      6 C6          0.4880   -0.0470    1.7880 c2        1 26S      0.256000
      7 C7         -7.1550    0.5340    1.3820 c3        1 26S      0.013000
      8 C8         -7.8730    0.0060   -0.8800 c1        1 26S      0.031000
      9 C9         -6.4460   -8.6930    6.6270 c2        1 26S     -0.282000
     10 C10        -7.3920   -1.6350    2.8550 c1        1 26S     -0.198000
     11 C11        -2.0700    4.0000    1.9260 c2        1 26S     -0.518000
     12 C12        -0.3800    0.9740    1.4560 c1        1 26S     -0.315000
     13 C13        -6.8710    0.2450   -0.0660 c2        1 26S     -0.819000
     14 C14        -6.2680   -8.6530    5.2020 c2        1 26S      0.195000
     15 C15        -6.8070   -7.4950    7.2510 c2        1 26S      0.060000
     16 C16        -6.7950   -6.4040    5.2490 c2        1 26S      0.068000
     17 C17        -3.5650   -2.0200    0.8030 c2        1 26S      0.331000
     18 C18        -5.8090   -4.4190   -0.0500 c1        1 26S     -0.119000
     19 C19        -5.9320   -5.7020   -0.1940 c2        1 26S     -0.155000
     20 C20        -5.7150   -3.1310    0.1280 c2        1 26S     -0.202000
     21 C21        -4.5390   -2.3310   -0.3660 c3        1 26S      0.092000
     22 C22        -7.6300    2.5140   -3.5550 c1        1 26S     -0.232500
     23 C23        -0.0410   -1.5410   -0.0630 c1        1 26S      0.495000
     24 C27        -1.5530    5.2050    1.8140 c1        1 26S      0.262000
     25 N28        -6.4550   -7.4770    4.4930 n2        1 26S     -0.220000
     26 N29        -6.9960   -6.3190    6.5960 n2        1 26S     -0.276000
     27 N30        -5.8750   -9.7840    4.5290 nv        1 26S     -0.351000
     28 N31        -4.9030   -1.1490   -1.1000 n7        1 26S     -0.877000
     29 N32        -4.0460   -1.8300    2.0540 nt        1 26S     -0.375000
     30 O33        -2.3280   -1.9910    0.5700 o         1 26S     -0.507000
     31 O36        -0.5520   -1.8520   -1.0570 o         1 26S      0.069000
     32 O37        -6.9760   -7.5590    8.6710 os        1 26S     -0.014000
     33 O38        -6.9170   -5.1680    4.5000 os        1 26S      0.005000
     34 S39        -5.2820    0.3480   -0.6010 s6        1 26S      2.840000
     35 H1         -1.8570    3.3260   -0.1160 hc        1 26S      0.166500
     36 H2         -2.6010    3.7570    2.8740 ha        1 26S      0.204000
     37 H3         -8.1120    1.1260    1.4660 hc        1 26S      0.124500
     38 H4         -9.2910   -1.1950   -1.8700 ha        1 26S      0.179000
     39 H5         -3.1190    2.4530    0.8660 hc        1 26S      0.166500
     40 H6          1.1050    0.0990    2.7040 ha        1 26S      0.190000
     41 H7         -6.3290    1.1800    1.8040 hc        1 26S      0.124500
     42 H8         -9.3330    0.6390   -2.2410 ha        1 26S      0.179000
     43 H9         -6.3060   -9.6100    7.2110 ha        1 26S      0.179000
     44 H18        -5.5520   -6.4150    0.5540 ha        1 26S      0.150500
     45 H18A       -5.8850  -10.6460    5.0160 hn        1 26S      0.242500
     46 H19        -4.9660   -1.3410   -2.0780 hn        1 26S      0.254000
     47 H19A       -6.4300   -6.1500   -1.0680 ha        1 26S      0.150500
     48 H20        -5.8430   -9.7940    3.5390 hn        1 26S      0.242500
     49 H20A       -6.5170   -2.5750    0.6500 ha        1 26S      0.162000
     50 H21        -3.9280   -2.9880   -1.0660 h1        1 26S      0.132000
     51 H22        -6.6280    2.3560   -3.2220 ha        1 26S      0.231500
     52 H22A       -4.3520    2.4550   -3.5760 ha        1 26S      0.003200
     53 H22B       -4.4070    2.9640   -3.1320 ha        1 26S      0.003200
     54 H23         1.7310   -4.1000   -0.5000 ha        1 26S      0.003200
     55 H23A        1.4080   -3.5220   -0.3510 ha        1 26S      0.003200
     56 H23B        1.3700   -1.9860    1.4290 ha        1 26S      0.224000
     57 H24        -9.6810   -6.6770    9.3660 ha        1 26S      0.003200
     58 H24A       -9.5600   -7.0670    9.9080 ha        1 26S      0.003200
     59 H24B       -7.4620   -5.5560    9.1030 ha        1 26S      0.075000
     60 H25        -6.7550   -2.8140    6.3540 ha        1 26S      0.003200
     61 H25A       -6.6270   -2.5050    5.7630 ha        1 26S      0.003200
     62 H25B       -8.5770   -4.3790    5.5200 ha        1 26S      0.088000
     63 H26        -7.5100   -2.5080    3.4680 ha        1 26S      0.265000
     64 H26A       -9.7410    2.8690   -4.2720 ha        1 26S      0.231500
     65 H27        -4.3670    1.7480    2.6720 ha        1 26S      0.003200
     66 H27A       -4.5020    2.4060    2.7630 ha        1 26S      0.003200
     67 HN32       -5.0230   -1.8240    2.2380 hn        1 26S      0.244000
     68 O34        -5.2100    1.1980   -1.7300 o         1 26S     -0.945500
     69 O35        -4.4420    0.7410    0.4750 o         1 26S     -0.945500
     70 H322       -3.4260   -1.6100    2.7950 hn        1 26S      0.244000
     71 C26        -8.7520    2.6940   -3.9290 c1        1 26S     -0.232500
     72 C24        -7.2850   -6.5940    9.4370 c1        1 26S      0.014000
     73 C25        -7.8000   -4.2890    4.7420 c1        1 26S     -0.035000
@<TRIPOS>BOND
     1    1    5 1   
     2    1   11 1   
     3    1   35 1   
     4    1   39 1   
     5    2    6 1   
     6    2   23 1   
     7    2   56 1   
     8    3    7 1   
     9    3   10 1   
    10    4    8 1   
    11    4   38 1   
    12    4   42 1   
    13    5   12 1   
    14    6   12 1   
    15    6   40 1   
    16    7   13 1   
    17    7   37 1   
    18    7   41 1   
    19    8   13 1   
    20    9   14 1   
    21    9   15 1   
    22    9   43 1   
    23   10   63 1   
    24   11   24 1   
    25   11   36 1   
    26   13   34 1   
    27   14   25 1   
    28   14   27 1   
    29   15   26 1   
    30   15   32 1   
    31   16   25 1   
    32   16   26 1   
    33   16   33 1   
    34   17   21 1   
    35   17   29 1   
    36   17   30 1   
    37   18   19 1   
    38   18   20 1   
    39   19   44 1   
    40   19   47 1   
    41   20   21 1   
    42   20   49 1   
    43   21   28 1   
    44   21   50 1   
    45   22   51 1   
    46   22   71 1   
    47   23   31 1   
    48   27   45 1   
    49   27   48 1   
    50   28   34 1   
    51   28   46 1   
    52   29   67 1   
    53   29   70 1   
    54   32   72 1   
    55   33   73 1   
    56   34   68 1   
    57   34   69 1   
    58   52   53 1   
    59   54   55 1   
    60   57   58 1   
    61   59   72 1   
    62   60   61 1   
    63   62   73 1   
    64   64   71 1   
    65   65   66 1   
@<TRIPOS>SUBSTRUCTURE
     1 26S         1 TEMP              0 ****  ****    0 ROOT
