@<TRIPOS>MOLECULE
26T
   20    19     1     0     0
SMALL
bcc


@<TRIPOS>ATOM
      1 C01        -0.1540    0.6540    0.5350 c3        1 26T     -0.298100
      2 C02         1.2290    0.2430    0.2620 c         1 26T      0.588100
      3 C03         2.1000   -0.0570    1.4750 c3        1 26T     -0.088900
      4 C04         2.5330    1.2220    2.2000 c         1 26T      0.540100
      5 C05         1.5930    1.6830    3.3070 c3        1 26T      0.144400
      6 O06         1.3230    3.0160    3.2630 os        1 26T     -0.536200
      7 P07        -0.3540    3.4270    2.9900 p5        1 26T      1.314900
      8 O08        -1.0500    2.2290    3.5800 o         1 26T     -0.908500
      9 O09        -0.4960    4.7370    3.6970 o         1 26T     -0.908500
     10 O10        -0.3850    3.4370    1.4790 o         1 26T     -0.908500
     11 O11         3.6270    1.7150    1.9090 o         1 26T     -0.576100
     12 O12         3.2360   -0.8220    1.0930 oh        1 26T     -0.619800
     13 O13         1.7210    0.1180   -0.8740 o         1 26T     -0.627100
     14 H1         -0.7900    0.5900   -0.3760 hc        1 26T      0.112700
     15 H2         -0.6070    0.0720    1.3710 hc        1 26T      0.112700
     16 H3         -0.1720    1.7720    0.9000 hc        1 26T      0.112700
     17 H4          1.5380   -0.7220    2.1890 h1        1 26T      0.087700
     18 H5          2.1520    1.4260    4.2610 h1        1 26T      0.022200
     19 H6          0.6430    1.0680    3.2610 h1        1 26T      0.022200
     20 H9          3.7340   -0.2680    0.4760 ho        1 26T      0.413000
@<TRIPOS>BOND
     1    1    2 1   
     2    1   14 1   
     3    1   15 1   
     4    1   16 1   
     5    2    3 1   
     6    2   13 2   
     7    3    4 1   
     8    3   12 1   
     9    3   17 1   
    10    4    5 1   
    11    4   11 2   
    12    5    6 1   
    13    5   18 1   
    14    5   19 1   
    15    6    7 1   
    16    7    8 1   
    17    7    9 1   
    18    7   10 1   
    19   12   20 1   
@<TRIPOS>SUBSTRUCTURE
     1 26T         1 TEMP              0 ****  ****    0 ROOT
