@<TRIPOS>MOLECULE
26T
   20    19     1     0     0
SMALL
bcc


@<TRIPOS>ATOM
      1 C01        -0.1530    0.6670    0.5280 c3        1 26T     -0.298100
      2 C02         1.2320    0.2650    0.2480 c         1 26T      0.588100
      3 C03         2.1050   -0.0480    1.4560 c3        1 26T     -0.088900
      4 C04         2.5330    1.2230    2.1980 c         1 26T      0.540100
      5 C05         1.5920    1.6650    3.3120 c3        1 26T      0.144400
      6 O06         1.3170    2.9980    3.2870 os        1 26T     -0.536200
      7 P07        -0.3610    3.4060    3.0200 p5        1 26T      1.314900
      8 O08        -1.0520    2.1980    3.5950 o         1 26T     -0.908500
      9 O09        -0.5080    4.7060    3.7450 o         1 26T     -0.908500
     10 O10        -0.3940    3.4360    1.5090 o         1 26T     -0.908500
     11 O11         3.6260    1.7240    1.9130 o         1 26T     -0.576100
     12 O12         3.2440   -0.8030    1.0630 oh        1 26T     -0.619800
     13 O13         1.7230    0.1580   -0.8890 o         1 26T     -0.627100
     14 H1         -0.7890    0.6130   -0.3840 hc        1 26T      0.112700
     15 H2         -0.1750    1.7790    0.9070 hc        1 26T      0.112700
     16 H3         -0.6020    0.0720    1.3560 hc        1 26T      0.112700
     17 H4          1.5460   -0.7250    2.1620 h1        1 26T      0.087700
     18 H5          2.1520    1.3970    4.2620 h1        1 26T      0.022200
     19 H6          0.6450    1.0480    3.2580 h1        1 26T      0.022200
     20 H9          3.7390   -0.2380    0.4540 ho        1 26T      0.413000
@<TRIPOS>BOND
     1    1    2 1   
     2    1   14 1   
     3    1   15 1   
     4    1   16 1   
     5    2    3 1   
     6    2   13 2   
     7    3    4 1   
     8    3   12 1   
     9    3   17 1   
    10    4    5 1   
    11    4   11 2   
    12    5    6 1   
    13    5   18 1   
    14    5   19 1   
    15    6    7 1   
    16    7    8 1   
    17    7    9 1   
    18    7   10 1   
    19   12   20 1   
@<TRIPOS>SUBSTRUCTURE
     1 26T         1 TEMP              0 ****  ****    0 ROOT
