@<TRIPOS>MOLECULE
26U
   53    50     1     0     0
SMALL
bcc


@<TRIPOS>ATOM
      1 C15         2.4050   -0.8060    2.4060 c3        1 26U     -0.178000
      2 C33         3.6700   -1.0100    3.2090 c3        1 26U     -0.149000
      3 C17         3.6590   -0.0930    4.4090 c3        1 26U     -0.108000
      4 C12         4.4000    1.1830    4.0760 c3        1 26U     -0.208000
      5 C49         4.3360   -0.7790    5.5740 c3        1 26U     -0.208000
      6 C14         1.8390   -2.1510    2.0060 c1        1 26U      0.324000
      7 O32         1.8810   -3.0830    2.7850 o         1 26U     -0.363000
      8 N1          1.3480   -2.3490    0.6900 n2        1 26U     -0.336000
      9 C1          1.2220   -1.2220   -0.4750 c3        1 26U      0.024000
     10 C7         -0.1410   -0.5400   -0.5310 c2        1 26U      0.270000
     11 O22        -0.8280   -0.4730    0.4680 o         1 26U     -0.350000
     12 C2          1.5420   -1.9080   -1.6030 c3        1 26U     -0.166000
     13 C3          1.1770   -3.3630   -1.3220 c3        1 26U     -0.170000
     14 C4          0.9180   -3.4560    0.1920 c3        1 26U     -0.018000
     15 N23        -0.5930    0.0430   -1.7440 n         1 26U     -0.366000
     16 C24        -0.8370    1.4400   -1.8120 c3        1 26U      0.002000
     17 C25        -2.2440    1.6820   -2.3080 c2        1 26U     -0.112000
     18 C30        -3.2960    1.7390   -1.4060 c2        1 26U     -0.113000
     19 C29        -4.5710    2.0550   -1.8470 c1        1 26U     -0.117000
     20 C28        -4.7960    2.3150   -3.1890 c1        1 26U     -0.097000
     21 C21        -6.1660    2.7570   -3.6540 c2        1 26U      0.115000
     22 N46        -6.4010    4.0220   -3.8830 n1        1 26U     -0.301000
     23 N47        -7.1960    1.8000   -3.8390 n3        1 26U     -0.332000
     24 C27        -3.7450    2.2580   -4.0910 c1        1 26U     -0.109000
     25 C26        -2.4690    1.9420   -3.6510 c1        1 26U     -0.121000
     26 H15         1.7490   -0.3240    2.9480 hc        1 26U      0.110000
     27 H15A        2.6090   -0.2860    1.6030 hc        1 26U      0.110000
     28 H33         4.4470   -0.8070    2.6500 hc        1 26U      0.098500
     29 H33A        3.7190   -1.9400    3.5100 hc        1 26U      0.098500
     30 H17         2.7370    0.1200    4.6480 hc        1 26U      0.085000
     31 H12         5.3600    0.9960    4.0120 hc        1 26U      0.072833
     32 H12A        4.0780    1.5330    3.2190 hc        1 26U      0.072833
     33 H12B        4.2420    1.8460    4.7790 hc        1 26U      0.072833
     34 H49         5.3060   -0.6600    5.5050 hc        1 26U      0.072833
     35 H49A        4.0180   -0.3860    6.4140 hc        1 26U      0.072833
     36 H49B        4.1220   -1.7350    5.5600 hc        1 26U      0.072833
     37 H1          1.8200   -0.4620   -0.3210 h1        1 26U      0.107000
     38 H2          1.0230   -1.5710   -2.3630 hc        1 26U      0.096000
     39 H2A         2.5020   -1.8290   -1.7870 hc        1 26U      0.096000
     40 H3          1.9190   -3.9490   -1.5730 hc        1 26U      0.095500
     41 H3A         0.3710   -3.6090   -1.8180 hc        1 26U      0.095500
     42 H4          1.4100   -4.2120    0.5730 h1        1 26U      0.100000
     43 H4A        -0.0420   -3.5550    0.3650 h1        1 26U      0.100000
     44 HN23       -0.6960   -0.4740   -2.4870 hn        1 26U      0.215000
     45 H24        -0.7320    1.8330   -0.9220 h1        1 26U      0.112000
     46 H24A       -0.1980    1.8530   -2.4290 h1        1 26U      0.112000
     47 H30        -3.1370    1.5560   -0.4610 ha        1 26U      0.161000
     48 H29        -5.3100    2.0950   -1.2120 ha        1 26U      0.136000
     49 HN46       -5.7370    4.6390   -3.7640 DU        1 26U      0.150000
     50 HN47       -7.9950    2.0530   -4.2050 hn        1 26U      0.194500
     51 HN4A       -7.0660    0.9330   -3.5810 hn        1 26U      0.194500
     52 H27        -3.9030    2.4410   -5.0360 ha        1 26U      0.144000
     53 H26        -1.7300    1.9020   -4.2860 ha        1 26U      0.135000
@<TRIPOS>BOND
     1    1    2 1   
     2    1    6 1   
     3    1   26 1   
     4    1   27 1   
     5    2    3 1   
     6    2   28 1   
     7    2   29 1   
     8    3    4 1   
     9    3    5 1   
    10    3   30 1   
    11    4   31 1   
    12    4   32 1   
    13    4   33 1   
    14    5   34 1   
    15    5   35 1   
    16    5   36 1   
    17    6    7 1   
    18    8    9 1   
    19    8   14 1   
    20    9   10 1   
    21    9   12 1   
    22    9   37 1   
    23   10   11 1   
    24   10   15 1   
    25   12   13 1   
    26   12   38 1   
    27   12   39 1   
    28   13   14 1   
    29   13   40 1   
    30   13   41 1   
    31   14   42 1   
    32   14   43 1   
    33   15   16 1   
    34   15   44 1   
    35   16   17 1   
    36   16   45 1   
    37   16   46 1   
    38   17   18 1   
    39   17   25 1   
    40   18   19 1   
    41   18   47 1   
    42   19   48 1   
    43   20   21 1   
    44   20   24 1   
    45   21   22 1   
    46   21   23 1   
    47   23   50 1   
    48   23   51 1   
    49   24   52 1   
    50   25   53 1   
@<TRIPOS>SUBSTRUCTURE
     1 26U         1 TEMP              0 ****  ****    0 ROOT
