@<TRIPOS>MOLECULE
26U
   55    56     1     0     0
SMALL
bcc


@<TRIPOS>ATOM
      1 C15        -0.3700   -0.0300   -0.7340 c3        1 26U     -0.143400
      2 C33         0.9920   -0.3870   -1.2930 c3        1 26U     -0.072400
      3 C17         1.9470   -0.8340   -0.1950 c3        1 26U     -0.067700
      4 C12         3.3720   -0.7930   -0.7100 c3        1 26U     -0.095100
      5 C49         1.6110   -2.2250    0.3000 c3        1 26U     -0.095100
      6 C14        -1.3200    0.3860   -1.8280 c         1 26U      0.677100
      7 O32        -1.0810    0.2290   -3.0480 o         1 26U     -0.661100
      8 N1         -2.5120    1.0440   -1.4950 n         1 26U     -0.491800
      9 C1         -3.6380    1.0320   -2.4070 c3        1 26U      0.042700
     10 C7         -3.6250    2.1590   -3.4520 c         1 26U      0.537100
     11 O22        -4.5970    2.7140   -3.9380 o         1 26U     -0.429100
     12 C2         -4.9340    1.1230   -1.5630 c3        1 26U     -0.085400
     13 C3         -4.4880    1.3350   -0.1220 c3        1 26U     -0.098400
     14 C4         -2.9610    1.1820   -0.1110 c3        1 26U      0.071000
     15 N23        -2.2680    2.5520   -3.9940 ny        1 26U     -0.682800
     16 C24        -2.2870    3.4970   -5.1480 c3        1 26U      0.152100
     17 C25        -2.4660    2.8230   -6.4740 ca        1 26U     -0.113300
     18 C30        -1.3570    2.3090   -7.1540 ca        1 26U     -0.088500
     19 C29        -1.5090    1.7560   -8.4260 ca        1 26U     -0.088000
     20 C28        -2.7770    1.7210   -9.0180 ca        1 26U     -0.223900
     21 C21        -2.9430    1.0900  -10.3500 ce        1 26U      0.572800
     22 N46        -2.9360   -0.1350  -10.7050 n2        1 26U     -0.679100
     23 N47        -3.1500    2.1050  -11.4420 nz        1 26U     -0.821600
     24 C27        -3.8920    2.2260   -8.3380 ca        1 26U     -0.088000
     25 C26        -3.7340    2.7730   -7.0650 ca        1 26U     -0.088500
     26 H15        -0.8160   -0.9230   -0.2140 hc        1 26U      0.092200
     27 H15A       -0.2720    0.7930    0.0250 hc        1 26U      0.092200
     28 H33         0.8840   -1.2010   -2.0580 hc        1 26U      0.055700
     29 H33A        1.4190    0.5080   -1.8190 hc        1 26U      0.055700
     30 H17         1.8630   -0.1160    0.6700 hc        1 26U      0.049700
     31 H12         3.6490    0.2440   -1.0180 hc        1 26U      0.043200
     32 H12A        3.4910   -1.4700   -1.5900 hc        1 26U      0.043200
     33 H12B        4.0780   -1.1250    0.0890 hc        1 26U      0.043200
     34 H49         1.6680   -2.9660   -0.5350 hc        1 26U      0.043200
     35 H49A        2.3360   -2.5340    1.0920 hc        1 26U      0.043200
     36 H49B        0.5840   -2.2570    0.7350 hc        1 26U      0.043200
     37 H1         -3.6310    0.0880   -3.0390 h1        1 26U      0.116700
     38 H2         -5.5980    1.9520   -1.9120 hc        1 26U      0.092200
     39 H2A        -5.5000    0.1620   -1.6710 hc        1 26U      0.092200
     40 H3         -4.9610    0.5820    0.5580 hc        1 26U      0.087700
     41 H3A        -4.7810    2.3510    0.2430 hc        1 26U      0.087700
     42 H4         -2.6580    0.2820    0.4930 h1        1 26U      0.076200
     43 H4A        -2.4650    2.0890    0.3340 h1        1 26U      0.076200
     44 HN23       -1.7450    2.9850   -3.2210 hn        1 26U      0.483300
     45 H24        -1.3030    4.0560   -5.1420 hx        1 26U      0.123700
     46 H24A       -3.1200    4.2440   -4.9780 hx        1 26U      0.123700
     47 H30        -0.3520    2.3440   -6.6990 ha        1 26U      0.174500
     48 H29        -0.6290    1.3490   -8.9520 ha        1 26U      0.167000
     49 HN46       -2.8050   -0.8500  -10.0190 hn        1 26U      0.497400
     50 HN47       -3.9440    2.7010  -11.1870 hn        1 26U      0.477467
     51 HN4A       -2.3040    2.6800  -11.5200 hn        1 26U      0.477467
     52 H27        -4.8970    2.1820   -8.7880 ha        1 26U      0.167000
     53 H26        -4.6140    3.1670   -6.5240 ha        1 26U      0.174500
     54 H232       -1.7690    1.6770   -4.2530 hn        1 26U      0.483300
     55 H473       -3.3380    1.6560  -12.3510 hn        1 26U      0.477467
@<TRIPOS>BOND
     1    1    2 1   
     2    1    6 1   
     3    1   26 1   
     4    1   27 1   
     5    2    3 1   
     6    2   28 1   
     7    2   29 1   
     8    3    4 1   
     9    3    5 1   
    10    3   30 1   
    11    4   31 1   
    12    4   32 1   
    13    4   33 1   
    14    5   34 1   
    15    5   35 1   
    16    5   36 1   
    17    6    7 2   
    18    6    8 1   
    19    8    9 1   
    20    8   14 1   
    21    9   10 1   
    22    9   12 1   
    23    9   37 1   
    24   10   11 2   
    25   10   15 1   
    26   12   13 1   
    27   12   38 1   
    28   12   39 1   
    29   13   14 1   
    30   13   40 1   
    31   13   41 1   
    32   14   42 1   
    33   14   43 1   
    34   15   16 1   
    35   15   44 1   
    36   15   54 1   
    37   16   17 1   
    38   16   45 1   
    39   16   46 1   
    40   17   18 ar  
    41   17   25 ar  
    42   18   19 ar  
    43   18   47 1   
    44   19   20 ar  
    45   19   48 1   
    46   20   21 1   
    47   20   24 ar  
    48   21   22 2   
    49   21   23 1   
    50   22   49 1   
    51   23   50 1   
    52   23   51 1   
    53   23   55 1   
    54   24   25 ar  
    55   24   52 1   
    56   25   53 1   
@<TRIPOS>SUBSTRUCTURE
     1 26U         1 TEMP              0 ****  ****    0 ROOT
