@<TRIPOS>MOLECULE
26U
   55    56     1     0     0
SMALL
bcc


@<TRIPOS>ATOM
      1 C15        -0.3520   -0.0160   -0.7400 c3        1 26U     -0.143400
      2 C33         0.9980   -0.3990   -1.3100 c3        1 26U     -0.072400
      3 C17         1.9580   -0.8500   -0.2170 c3        1 26U     -0.067700
      4 C12         3.3780   -0.8360   -0.7470 c3        1 26U     -0.095100
      5 C49         1.6070   -2.2310    0.2950 c3        1 26U     -0.095100
      6 C14        -1.3080    0.4030   -1.8280 c         1 26U      0.677100
      7 O32        -1.0830    0.2310   -3.0490 o         1 26U     -0.661100
      8 N1         -2.4860    1.0820   -1.4890 n         1 26U     -0.491800
      9 C1         -3.6210    1.0780   -2.3900 c3        1 26U      0.042700
     10 C7         -3.6030    2.1950   -3.4460 c         1 26U      0.537100
     11 O22        -4.5720    2.7590   -3.9280 o         1 26U     -0.429100
     12 C2         -4.9070    1.1960   -1.5340 c3        1 26U     -0.085400
     13 C3         -4.4430    1.4150   -0.0990 c3        1 26U     -0.098400
     14 C4         -2.9180    1.2400   -0.1020 c3        1 26U      0.071000
     15 N23        -2.2460    2.5630   -4.0040 n4        1 26U     -0.682800
     16 C24        -2.2630    3.4970   -5.1680 c3        1 26U      0.152100
     17 C25        -2.4640    2.8140   -6.4850 ca        1 26U     -0.113300
     18 C30        -1.3680    2.2780   -7.1710 ca        1 26U     -0.088500
     19 C29        -1.5410    1.7150   -8.4370 ca        1 26U     -0.088000
     20 C28        -2.8150    1.6920   -9.0160 ca        1 26U     -0.223900
     21 C21        -3.0020    1.0500  -10.3390 ce        1 26U      0.572800
     22 N46        -3.0140   -0.1770  -10.6830 n2        1 26U     -0.679100
     23 N47        -3.2070    2.0580  -11.4390 n4        1 26U     -0.821600
     24 C27        -3.9160    2.2180   -8.3300 ca        1 26U     -0.088000
     25 C26        -3.7380    2.7750   -7.0630 ca        1 26U     -0.088500
     26 H15        -0.8060   -0.8980   -0.2060 hc        1 26U      0.092200
     27 H15A       -0.2340    0.8120    0.0100 hc        1 26U      0.092200
     28 H33         1.4330    0.4840   -1.8480 hc        1 26U      0.055700
     29 H33A        0.8710   -1.2180   -2.0660 hc        1 26U      0.055700
     30 H17         1.8930   -0.1220    0.6420 hc        1 26U      0.049700
     31 H12         3.6680    0.1940   -1.0690 hc        1 26U      0.043200
     32 H12A        3.4780   -1.5240   -1.6210 hc        1 26U      0.043200
     33 H12B        4.0870   -1.1700    0.0480 hc        1 26U      0.043200
     34 H49         2.3350   -2.5430    1.0830 hc        1 26U      0.043200
     35 H49A        0.5830   -2.2430    0.7410 hc        1 26U      0.043200
     36 H49B        1.6430   -2.9800   -0.5330 hc        1 26U      0.043200
     37 H1         -3.6340    0.1270   -3.0120 h1        1 26U      0.116700
     38 H2         -5.4880    0.2430   -1.6270 hc        1 26U      0.092200
     39 H2A        -5.5620    2.0310   -1.8840 hc        1 26U      0.092200
     40 H3         -4.9200    0.6760    0.5930 hc        1 26U      0.087700
     41 H3A        -4.7170    2.4390    0.2590 hc        1 26U      0.087700
     42 H4         -2.6230    0.3410    0.5070 h1        1 26U      0.076200
     43 H4A        -2.4050    2.1430    0.3290 h1        1 26U      0.076200
     44 HN23       -1.7620    1.6790   -4.2600 hn        1 26U      0.483300
     45 H24        -1.2720    4.0420   -5.1760 hx        1 26U      0.123700
     46 H24A       -3.0840    4.2570   -4.9970 hx        1 26U      0.123700
     47 H30        -0.3590    2.3040   -6.7260 ha        1 26U      0.174500
     48 H29        -0.6710    1.2920   -8.9670 ha        1 26U      0.167000
     49 HN46       -2.8850   -0.8880   -9.9920 hn        1 26U      0.497400
     50 HN47       -3.9900    2.6670  -11.1810 hn        1 26U      0.477467
     51 HN4A       -3.4100    1.6030  -12.3420 hn        1 26U      0.477467
     52 H27        -4.9260    2.1840   -8.7690 ha        1 26U      0.167000
     53 H26        -4.6080    3.1860   -6.5180 ha        1 26U      0.174500
     54 H232       -1.7090    2.9960   -3.2410 hn        1 26U      0.483300
     55 H473       -2.3540    2.6210  -11.5320 hn        1 26U      0.477467
@<TRIPOS>BOND
     1    1    2 1   
     2    1    6 1   
     3    1   26 1   
     4    1   27 1   
     5    2    3 1   
     6    2   28 1   
     7    2   29 1   
     8    3    4 1   
     9    3    5 1   
    10    3   30 1   
    11    4   31 1   
    12    4   32 1   
    13    4   33 1   
    14    5   34 1   
    15    5   35 1   
    16    5   36 1   
    17    6    7 2   
    18    6    8 1   
    19    8    9 1   
    20    8   14 1   
    21    9   10 1   
    22    9   12 1   
    23    9   37 1   
    24   10   11 2   
    25   10   15 1   
    26   12   13 1   
    27   12   38 1   
    28   12   39 1   
    29   13   14 1   
    30   13   40 1   
    31   13   41 1   
    32   14   42 1   
    33   14   43 1   
    34   15   16 1   
    35   15   44 1   
    36   15   54 1   
    37   16   17 1   
    38   16   45 1   
    39   16   46 1   
    40   17   18 ar  
    41   17   25 ar  
    42   18   19 ar  
    43   18   47 1   
    44   19   20 ar  
    45   19   48 1   
    46   20   21 1   
    47   20   24 ar  
    48   21   22 2   
    49   21   23 1   
    50   22   49 1   
    51   23   50 1   
    52   23   51 1   
    53   23   55 1   
    54   24   25 ar  
    55   24   52 1   
    56   25   53 1   
@<TRIPOS>SUBSTRUCTURE
     1 26U         1 TEMP              0 ****  ****    0 ROOT
