@<TRIPOS>MOLECULE
26U
   55    56     1     0     0
SMALL
bcc


@<TRIPOS>ATOM
      1 C15        -0.3840   -0.0140   -0.7240 c3        1 26U     -0.143400
      2 C33         0.9690   -0.4080   -1.2820 c3        1 26U     -0.072400
      3 C17         1.9180   -0.8600   -0.1800 c3        1 26U     -0.067700
      4 C12         3.3420   -0.8560   -0.7000 c3        1 26U     -0.095100
      5 C49         1.5540   -2.2370    0.3340 c3        1 26U     -0.095100
      6 C14        -1.3280    0.4070   -1.8210 c         1 26U      0.677100
      7 O32        -1.0950    0.2280   -3.0390 o         1 26U     -0.661100
      8 N1         -2.5030    1.0950   -1.4940 n         1 26U     -0.491800
      9 C1         -3.6320    1.0950   -2.4030 c3        1 26U      0.042700
     10 C7         -3.5980    2.2070   -3.4640 c         1 26U      0.537100
     11 O22        -4.5600    2.7750   -3.9560 o         1 26U     -0.429100
     12 C2         -4.9240    1.2260   -1.5570 c3        1 26U     -0.085400
     13 C3         -4.4690    1.4490   -0.1200 c3        1 26U     -0.098400
     14 C4         -2.9450    1.2620   -0.1110 c3        1 26U      0.071000
     15 N23        -2.2350    2.5630   -4.0140 n4        1 26U     -0.682800
     16 C24        -2.2360    3.4930   -5.1810 c3        1 26U      0.152100
     17 C25        -2.4320    2.8060   -6.4970 ca        1 26U     -0.113300
     18 C30        -1.3350    2.2600   -7.1730 ca        1 26U     -0.088500
     19 C29        -1.5030    1.6940   -8.4380 ca        1 26U     -0.088000
     20 C28        -2.7730    1.6770   -9.0260 ca        1 26U     -0.223900
     21 C21        -2.9540    1.0320  -10.3490 ce        1 26U      0.572800
     22 N46        -2.9720   -0.1970  -10.6880 n2        1 26U     -0.679100
     23 N47        -3.1450    2.0360  -11.4530 n4        1 26U     -0.821600
     24 C27        -3.8750    2.2130   -8.3500 ca        1 26U     -0.088000
     25 C26        -3.7030    2.7730   -7.0840 ca        1 26U     -0.088500
     26 H15        -0.8470   -0.8910   -0.1910 hc        1 26U      0.092200
     27 H15A       -0.2660    0.8170    0.0240 hc        1 26U      0.092200
     28 H33         0.8420   -1.2290   -2.0350 hc        1 26U      0.055700
     29 H33A        1.4130    0.4710   -1.8210 hc        1 26U      0.055700
     30 H17         1.8510   -0.1290    0.6750 hc        1 26U      0.049700
     31 H12         3.4440   -1.5480   -1.5700 hc        1 26U      0.043200
     32 H12A        3.6400    0.1700   -1.0230 hc        1 26U      0.043200
     33 H12B        4.0430   -1.1920    0.1030 hc        1 26U      0.043200
     34 H49         0.5270   -2.2410    0.7720 hc        1 26U      0.043200
     35 H49A        2.2750   -2.5500    1.1290 hc        1 26U      0.043200
     36 H49B        1.5930   -2.9900   -0.4900 hc        1 26U      0.043200
     37 H1         -3.6470    0.1420   -3.0210 h1        1 26U      0.116700
     38 H2         -5.5710    2.0640   -1.9160 hc        1 26U      0.092200
     39 H2A        -5.5100    0.2760   -1.6500 hc        1 26U      0.092200
     40 H3         -4.9560    0.7170    0.5730 hc        1 26U      0.087700
     41 H3A        -4.7380    2.4770    0.2310 hc        1 26U      0.087700
     42 H4         -2.4280    2.1640    0.3200 h1        1 26U      0.076200
     43 H4A        -2.6610    0.3640    0.5050 h1        1 26U      0.076200
     44 HN23       -1.7550    1.6750   -4.2630 hn        1 26U      0.483300
     45 H24        -1.2410    4.0310   -5.1840 hx        1 26U      0.123700
     46 H24A       -3.0540    4.2590   -5.0190 hx        1 26U      0.123700
     47 H30        -0.3290    2.2820   -6.7210 ha        1 26U      0.174500
     48 H29        -0.6320    1.2640   -8.9610 ha        1 26U      0.167000
     49 HN46       -2.8530   -0.9060   -9.9930 hn        1 26U      0.497400
     50 HN47       -3.3460    1.5790  -12.3560 hn        1 26U      0.477467
     51 HN4A       -3.9260    2.6520  -11.2030 hn        1 26U      0.477467
     52 H27        -4.8820    2.1830   -8.7960 ha        1 26U      0.167000
     53 H26        -4.5740    3.1920   -6.5460 ha        1 26U      0.174500
     54 H232       -1.7000    2.9950   -3.2480 hn        1 26U      0.483300
     55 H473       -2.2880    2.5930  -11.5430 hn        1 26U      0.477467
@<TRIPOS>BOND
     1    1    2 1   
     2    1    6 1   
     3    1   26 1   
     4    1   27 1   
     5    2    3 1   
     6    2   28 1   
     7    2   29 1   
     8    3    4 1   
     9    3    5 1   
    10    3   30 1   
    11    4   31 1   
    12    4   32 1   
    13    4   33 1   
    14    5   34 1   
    15    5   35 1   
    16    5   36 1   
    17    6    7 2   
    18    6    8 1   
    19    8    9 1   
    20    8   14 1   
    21    9   10 1   
    22    9   12 1   
    23    9   37 1   
    24   10   11 2   
    25   10   15 1   
    26   12   13 1   
    27   12   38 1   
    28   12   39 1   
    29   13   14 1   
    30   13   40 1   
    31   13   41 1   
    32   14   42 1   
    33   14   43 1   
    34   15   16 1   
    35   15   44 1   
    36   15   54 1   
    37   16   17 1   
    38   16   45 1   
    39   16   46 1   
    40   17   18 ar  
    41   17   25 ar  
    42   18   19 ar  
    43   18   47 1   
    44   19   20 ar  
    45   19   48 1   
    46   20   21 1   
    47   20   24 ar  
    48   21   22 2   
    49   21   23 1   
    50   22   49 1   
    51   23   50 1   
    52   23   51 1   
    53   23   55 1   
    54   24   25 ar  
    55   24   52 1   
    56   25   53 1   
@<TRIPOS>SUBSTRUCTURE
     1 26U         1 TEMP              0 ****  ****    0 ROOT
