@<TRIPOS>MOLECULE
26U
   53    54     1     0     0
SMALL
bcc


@<TRIPOS>ATOM
      1 C15        -4.2820    0.1930   -0.1180 c3        1 26U     -0.142400
      2 C33        -4.5440   -1.2430   -0.5170 c3        1 26U     -0.072400
      3 C17        -6.0110   -1.6170   -0.3640 c3        1 26U     -0.067700
      4 C12        -6.1600   -3.1250   -0.3540 c3        1 26U     -0.090600
      5 C49        -6.8540   -1.0170   -1.4700 c3        1 26U     -0.090600
      6 C14        -2.8190    0.5470   -0.3000 c         1 26U      0.664100
      7 O32        -2.0390   -0.1760   -0.9560 o         1 26U     -0.624100
      8 N1         -2.3420    1.6930    0.3180 n         1 26U     -0.465800
      9 C1         -1.0110    2.2220    0.0470 c3        1 26U      0.033700
     10 C7          0.0760    1.6070    0.9610 c         1 26U      0.651100
     11 O22         0.7930    2.3250    1.6880 o         1 26U     -0.624100
     12 C2         -1.0880    3.7530    0.2350 c3        1 26U     -0.088400
     13 C3         -2.4510    4.0460    0.8510 c3        1 26U     -0.090400
     14 C4         -3.2170    2.7130    0.8660 c3        1 26U      0.088000
     15 N23         0.2120    0.2370    0.9320 n         1 26U     -0.549900
     16 C24         1.2660   -0.4370    1.6400 c3        1 26U      0.131300
     17 C25         2.5370   -0.6230    0.8560 ca        1 26U     -0.108300
     18 C30         2.9110   -1.8890    0.3970 ca        1 26U     -0.124000
     19 C29         4.1060   -2.0570   -0.3010 ca        1 26U     -0.103500
     20 C28         4.9320   -0.9550   -0.5440 ca        1 26U     -0.139900
     21 C21         6.2180   -1.1290   -1.2910 ce        1 26U      0.649800
     22 N46         6.4540   -0.3570   -2.3090 n2        1 26U     -0.825100
     23 N47         7.0190   -2.1960   -0.8240 nh        1 26U     -0.957800
     24 C27         4.5540    0.3160   -0.0990 ca        1 26U     -0.103500
     25 C26         3.3610    0.4780    0.6030 ca        1 26U     -0.124000
     26 H15        -4.5870    0.3560    0.9500 hc        1 26U      0.066700
     27 H15A       -4.8890    0.8880   -0.7580 hc        1 26U      0.066700
     28 H33        -4.2150   -1.4040   -1.5780 hc        1 26U      0.060200
     29 H33A       -3.9160   -1.9180    0.1240 hc        1 26U      0.060200
     30 H17        -6.3820   -1.2180    0.6230 hc        1 26U      0.042700
     31 H12        -5.5970   -3.5680    0.5020 hc        1 26U      0.034867
     32 H12A       -7.2360   -3.4060   -0.2560 hc        1 26U      0.034867
     33 H12B       -5.7640   -3.5620   -1.3020 hc        1 26U      0.034867
     34 H49        -7.9240   -1.3080   -1.3410 hc        1 26U      0.034867
     35 H49A       -6.7870    0.0970   -1.4580 hc        1 26U      0.034867
     36 H49B       -6.5070   -1.3810   -2.4680 hc        1 26U      0.034867
     37 H1         -0.7150    1.9700   -1.0150 h1        1 26U      0.085700
     38 H2         -0.2600    4.1150    0.8960 hc        1 26U      0.074700
     39 H2A        -0.9840    4.2530   -0.7590 hc        1 26U      0.074700
     40 H3         -2.3410    4.4370    1.8920 hc        1 26U      0.056700
     41 H3A        -3.0080    4.8080    0.2540 hc        1 26U      0.056700
     42 H4         -4.1620    2.7930    0.2610 h1        1 26U      0.045700
     43 H4A        -3.5000    2.4280    1.9170 h1        1 26U      0.045700
     44 HN23       -0.2510   -0.2740    0.2110 hn        1 26U      0.338500
     45 H24         1.5080    0.1560    2.5710 h1        1 26U      0.066700
     46 H24A        0.8700   -1.4470    1.9530 h1        1 26U      0.066700
     47 H30         2.2610   -2.7570    0.5810 ha        1 26U      0.145500
     48 H29         4.3870   -3.0550   -0.6700 ha        1 26U      0.145500
     49 HN46        7.3210   -0.4990   -2.7830 hn        1 26U      0.381400
     50 HN47        6.8250   -2.5000    0.1020 hn        1 26U      0.397300
     51 HN4A        7.9870   -2.1570   -1.0450 hn        1 26U      0.397300
     52 H27         5.1920    1.1880   -0.3100 ha        1 26U      0.145500
     53 H26         3.0540    1.4760    0.9600 ha        1 26U      0.145500
@<TRIPOS>BOND
     1    1    2 1   
     2    1    6 1   
     3    1   26 1   
     4    1   27 1   
     5    2    3 1   
     6    2   28 1   
     7    2   29 1   
     8    3    4 1   
     9    3    5 1   
    10    3   30 1   
    11    4   31 1   
    12    4   32 1   
    13    4   33 1   
    14    5   34 1   
    15    5   35 1   
    16    5   36 1   
    17    6    7 2   
    18    6    8 1   
    19    8    9 1   
    20    8   14 1   
    21    9   10 1   
    22    9   12 1   
    23    9   37 1   
    24   10   11 2   
    25   10   15 1   
    26   12   13 1   
    27   12   38 1   
    28   12   39 1   
    29   13   14 1   
    30   13   40 1   
    31   13   41 1   
    32   14   42 1   
    33   14   43 1   
    34   15   16 1   
    35   15   44 1   
    36   16   17 1   
    37   16   45 1   
    38   16   46 1   
    39   17   18 ar  
    40   17   25 ar  
    41   18   19 ar  
    42   18   47 1   
    43   19   20 ar  
    44   19   48 1   
    45   20   21 1   
    46   20   24 ar  
    47   21   22 2   
    48   21   23 1   
    49   22   49 1   
    50   23   50 1   
    51   23   51 1   
    52   24   25 ar  
    53   24   52 1   
    54   25   53 1   
@<TRIPOS>SUBSTRUCTURE
     1 26U         1 TEMP              0 ****  ****    0 ROOT
