@<TRIPOS>MOLECULE
26Z
   45    47     1     0     0
SMALL
bcc


@<TRIPOS>ATOM
      1 N01        -0.0190    0.5090   -0.1650 nc        1 26Z     -0.555000
      2 N02        -2.2210    0.6660    0.9230 n4        1 26Z     -0.594100
      3 N03         2.3440    0.3040   -0.8360 n4        1 26Z     -0.801300
      4 N04         5.8590   -1.8700    5.7480 n4        1 26Z     -0.712000
      5 N05        -7.0480   -0.8520   -3.4810 n4        1 26Z     -0.813500
      6 C06         1.5040   -0.1170    1.5430 cd        1 26Z     -0.272000
      7 C07         1.2910    0.2280    0.1720 cc        1 26Z      0.452200
      8 C08        -0.7870    0.3710    0.9510 cd        1 26Z      0.355300
      9 C09        -2.9780    0.1010   -0.2170 ca        1 26Z      0.036600
     10 C10         2.8410   -0.4970    2.0820 c         1 26Z      0.631300
     11 C11         3.1040   -0.5400    3.5320 ca        1 26Z     -0.177600
     12 C12         2.2910    0.0810    4.4880 ca        1 26Z     -0.059000
     13 C13         2.6310    0.0460    5.8390 ca        1 26Z     -0.085000
     14 C14         3.7940   -0.5990    6.2640 ca        1 26Z     -0.027000
     15 C15         4.6240   -1.2160    5.3070 ca        1 26Z     -0.041400
     16 C16         4.2830   -1.1910    3.9450 ca        1 26Z     -0.021000
     17 C17        -3.6900   -1.0990   -0.0500 ca        1 26Z     -0.111000
     18 C18        -4.4740   -1.5750   -1.1040 ca        1 26Z      0.027500
     19 C19        -4.5610   -0.8850   -2.3240 ca        1 26Z     -0.411500
     20 C20        -3.8360    0.3090   -2.4650 ca        1 26Z      0.027500
     21 C21        -3.0430    0.8100   -1.4280 ca        1 26Z     -0.111000
     22 O22         3.7260   -0.7780    1.2620 o         1 26Z     -0.501100
     23 O23        -5.5770   -2.9060   -3.4140 o         1 26Z     -0.514300
     24 O24        -4.9020   -1.0000   -4.8080 o         1 26Z     -0.514300
     25 S25         0.0760   -0.0900    2.3520 ss        1 26Z      0.375700
     26 S26        -5.3430   -1.5720   -3.6400 sy        1 26Z      1.441200
     27 HN02       -2.6430    0.3120    1.7980 hn        1 26Z      0.494800
     28 HN03        3.0290   -0.4630   -0.6700 hn        1 26Z      0.506800
     29 HN0A        2.8340    1.2100   -0.7520 hn        1 26Z      0.506800
     30 HN04        6.5240   -1.1590    6.0920 hn        1 26Z      0.487800
     31 HN0B        5.6540   -2.5290    6.5150 hn        1 26Z      0.487800
     32 HN05       -7.7500   -1.6000   -3.3930 hn        1 26Z      0.484467
     33 HN0C       -7.2990   -0.3230   -4.3270 hn        1 26Z      0.484467
     34 H12         1.3850    0.6390    4.1920 ha        1 26Z      0.132000
     35 H13         1.9870    0.5430    6.5900 ha        1 26Z      0.207000
     36 H14         4.0430   -0.6050    7.3440 ha        1 26Z      0.204000
     37 H16         4.9270   -1.6640    3.1770 ha        1 26Z      0.193000
     38 H17        -3.6590   -1.6810    0.8890 ha        1 26Z      0.192000
     39 H18        -5.0160   -2.5370   -0.9670 ha        1 26Z      0.213000
     40 H20        -3.8630    0.8690   -3.4250 ha        1 26Z      0.213000
     41 H21        -2.4870    1.7520   -1.5890 ha        1 26Z      0.192000
     42 H022       -2.3340    1.7000    0.8910 hn        1 26Z      0.494800
     43 H033        1.9590    0.2180   -1.7910 hn        1 26Z      0.506800
     44 H043        6.2970   -2.3870    4.9740 hn        1 26Z      0.487800
     45 H053       -7.1870   -0.2250   -2.6910 hn        1 26Z      0.484467
@<TRIPOS>BOND
     1    1    7 1   
     2    1    8 2   
     3    2    8 1   
     4    2    9 1   
     5    2   27 1   
     6    2   42 1   
     7    3    7 1   
     8    3   28 1   
     9    3   29 1   
    10    3   43 1   
    11    4   15 1   
    12    4   30 1   
    13    4   31 1   
    14    4   44 1   
    15    5   26 1   
    16    5   32 1   
    17    5   33 1   
    18    5   45 1   
    19    6    7 2   
    20    6   10 1   
    21    6   25 1   
    22    8   25 1   
    23    9   17 ar  
    24    9   21 ar  
    25   10   11 1   
    26   10   22 2   
    27   11   12 ar  
    28   11   16 ar  
    29   12   13 ar  
    30   12   34 1   
    31   13   14 ar  
    32   13   35 1   
    33   14   15 ar  
    34   14   36 1   
    35   15   16 ar  
    36   16   37 1   
    37   17   18 ar  
    38   17   38 1   
    39   18   19 ar  
    40   18   39 1   
    41   19   20 ar  
    42   19   26 1   
    43   20   21 ar  
    44   20   40 1   
    45   21   41 1   
    46   23   26 2   
    47   24   26 2   
@<TRIPOS>SUBSTRUCTURE
     1 26Z         1 TEMP              0 ****  ****    0 ROOT
