@<TRIPOS>MOLECULE
26Z
   41    39     1     0     0
SMALL
bcc


@<TRIPOS>ATOM
      1 N01        -0.0950    1.2870   -1.1440 n2        1 26Z     -0.221000
      2 N02        -1.9320    1.5440    0.4500 n3        1 26Z     -0.232000
      3 N03         2.3170    1.2870   -2.2700 n3        1 26Z     -0.332000
      4 N04         7.2250   -0.6910    2.9840 n3        1 26Z     -0.331000
      5 N05        -7.6260   -0.8010   -2.3160 n3        1 26Z     -0.953000
      6 C06         1.9150    1.2700    0.2460 c1        1 26Z     -0.600000
      7 C07         1.4750    1.2820   -1.1280 c2        1 26Z      0.198000
      8 C08        -0.5600    1.2780    0.2060 c2        1 26Z     -0.096000
      9 C09        -2.9300    0.7770   -0.2040 c2        1 26Z      0.127000
     10 C10         3.3470    1.3680    0.7220 c1        1 26Z      0.361000
     11 C11         3.9690    0.2230    1.4910 c2        1 26Z     -0.095000
     12 C12         3.2150   -0.9030    1.7870 c2        1 26Z     -0.159000
     13 C13         3.7930   -1.9640    2.4660 c1        1 26Z     -0.096000
     14 C14         5.1240   -1.9010    2.8470 c1        1 26Z     -0.177000
     15 C15         5.8770   -0.7750    2.5510 c2        1 26Z      0.058000
     16 C16         5.2990    0.2860    1.8730 c2        1 26Z     -0.148000
     17 C17        -3.3390   -0.5120    0.0980 c1        1 26Z     -0.161000
     18 C18        -4.3310   -1.1190   -0.6580 c1        1 26Z      0.005000
     19 C19        -4.9130   -0.4370   -1.7140 c1        1 26Z     -0.859000
     20 C20        -4.5040    0.8530   -2.0160 c1        1 26Z      0.008000
     21 C21        -3.5120    1.4600   -1.2600 c2        1 26Z     -0.209000
     22 O22         4.0070    2.3530    0.4620 o         1 26Z     -0.344000
     23 O23        -5.9510   -2.6770   -2.6940 o         1 26Z     -0.939500
     24 O24        -5.8580   -0.9900   -4.1350 o         1 26Z     -0.939500
     25 S25         0.6740    1.2670    1.1330 ss        1 26Z      0.488000
     26 S26        -6.1060   -1.2500   -2.7440 s6        1 26Z      2.871000
     27 HN02       -2.1720    2.1980    1.0390 hn        1 26Z      0.234000
     28 HN03        3.2220    1.2080   -2.1700 hn        1 26Z      0.252000
     29 HN0A        1.9540    1.3560   -3.1060 hn        1 26Z      0.252000
     30 HN04        7.5890   -1.3660    3.4830 hn        1 26Z      0.189000
     31 HN0B        7.7250    0.0470    2.7800 hn        1 26Z      0.189000
     32 HN05       -8.0340   -0.1030   -2.7430 hn        1 26Z      0.241500
     33 HN0C       -8.0750   -1.2660   -1.6690 hn        1 26Z      0.241500
     34 H12         2.2780   -0.9470    1.5190 ha        1 26Z      0.144000
     35 H13         3.2620   -2.7560    2.6740 ha        1 26Z      0.133000
     36 H14         5.5310   -2.6490    3.3250 ha        1 26Z      0.134000
     37 H16         5.8280    1.0810    1.6700 ha        1 26Z      0.150000
     38 H17        -2.9300   -0.9930    0.8420 ha        1 26Z      0.165000
     39 H18        -4.6190   -2.0280   -0.4450 ha        1 26Z      0.155000
     40 H20        -4.9130    1.3340   -2.7590 ha        1 26Z      0.155000
     41 H21        -3.2240    2.3680   -1.4720 ha        1 26Z      0.138000
@<TRIPOS>BOND
     1    1    7 1   
     2    1    8 1   
     3    2    8 1   
     4    2    9 1   
     5    2   27 1   
     6    3    7 1   
     7    3   28 1   
     8    3   29 1   
     9    4   15 1   
    10    4   30 1   
    11    4   31 1   
    12    5   26 1   
    13    5   32 1   
    14    5   33 1   
    15    6    7 1   
    16    6   25 1   
    17    8   25 1   
    18    9   17 1   
    19    9   21 1   
    20   10   11 1   
    21   10   22 1   
    22   11   12 1   
    23   11   16 1   
    24   12   13 1   
    25   12   34 1   
    26   13   35 1   
    27   14   15 1   
    28   14   36 1   
    29   15   16 1   
    30   16   37 1   
    31   17   38 1   
    32   18   19 1   
    33   18   39 1   
    34   19   26 1   
    35   20   21 1   
    36   20   40 1   
    37   21   41 1   
    38   23   26 1   
    39   24   26 1   
@<TRIPOS>SUBSTRUCTURE
     1 26Z         1 TEMP              0 ****  ****    0 ROOT
