@<TRIPOS>MOLECULE
26Z
   42    44     1     0     0
SMALL
bcc


@<TRIPOS>ATOM
      1 N01         0.4950    0.3980   -0.5590 nc        1 26Z     -0.718000
      2 N02        -1.5260    0.4810    0.8020 nh        1 26Z     -0.677300
      3 N03         2.7580    0.1420   -1.3930 nh        1 26Z     -0.924500
      4 N04         1.9580   -2.0380    5.8250 nh        1 26Z     -0.818200
      5 N05        -6.4900   -2.3220   -2.2060 n4        1 26Z     -0.778500
      6 C06         2.2150   -0.0620    1.0090 cd        1 26Z     -0.410000
      7 C07         1.8720    0.1720   -0.3550 cc        1 26Z      0.696200
      8 C08        -0.1420    0.2960    0.6300 cd        1 26Z      0.562300
      9 C09        -2.4950    0.1940   -0.1170 ca        1 26Z      0.322600
     10 C10         3.5630   -0.2100    1.5260 c         1 26Z      0.637300
     11 C11         3.6640   -0.3290    3.0020 ca        1 26Z     -0.129600
     12 C12         4.6240    0.4270    3.6780 ca        1 26Z     -0.117000
     13 C13         4.6970    0.3540    5.0700 ca        1 26Z     -0.089000
     14 C14         3.8390   -0.4700    5.7850 ca        1 26Z     -0.165000
     15 C15         2.8740   -1.2590    5.1110 ca        1 26Z      0.142600
     16 C16         2.8020   -1.1770    3.7020 ca        1 26Z     -0.192000
     17 C17        -2.2850   -0.6430   -1.2600 ca        1 26Z     -0.215500
     18 C18        -3.3150   -0.9190   -2.1190 ca        1 26Z      0.051500
     19 C19        -4.6320   -0.4130   -1.9290 ca        1 26Z     -0.662500
     20 C20        -4.8330    0.4020   -0.7820 ca        1 26Z      0.051500
     21 C21        -3.8250    0.6960    0.0960 ca        1 26Z     -0.215500
     22 O22         4.5660   -0.1930    0.7970 o         1 26Z     -0.544100
     23 O23        -5.3760   -1.1630   -4.2010 o         1 26Z     -0.581300
     24 O24        -6.8940    0.1260   -2.8560 o         1 26Z     -0.581300
     25 S25         0.8540   -0.0700    1.9790 ss        1 26Z      0.061700
     26 S26        -5.7660   -0.6580   -2.9790 sy        1 26Z      1.519200
     27 HN02       -1.7710    1.0910    1.5590 hn        1 26Z      0.468800
     28 HN03        2.4900    0.4960   -2.2790 hn        1 26Z      0.459300
     29 HN0A        3.7280    0.0960   -1.1630 hn        1 26Z      0.459300
     30 HN04        1.6250   -2.8360    5.3310 hn        1 26Z      0.394800
     31 HN0B        2.2390   -2.2460    6.7590 hn        1 26Z      0.394800
     32 HN05       -7.4670   -2.1950   -1.9610 hn        1 26Z      0.444467
     33 HN0C       -6.4300   -3.0750   -2.8840 hn        1 26Z      0.444467
     34 H12         5.3180    1.0660    3.1110 ha        1 26Z      0.155000
     35 H13         5.4500    0.9530    5.6070 ha        1 26Z      0.147000
     36 H14         3.9140   -0.5100    6.8830 ha        1 26Z      0.144000
     37 H16         2.0950   -1.8210    3.1520 ha        1 26Z      0.134000
     38 H17        -1.2860   -1.0660   -1.4660 ha        1 26Z      0.179500
     39 H18        -3.1170   -1.5460   -3.0110 ha        1 26Z      0.164000
     40 H20        -5.8410    0.8310   -0.6110 ha        1 26Z      0.164000
     41 H21        -4.0350    1.3420    0.9650 ha        1 26Z      0.179500
     42 H053       -5.9860   -2.6020   -1.3730 hn        1 26Z      0.444467
@<TRIPOS>BOND
     1    1    7 1   
     2    1    8 2   
     3    2    8 1   
     4    2    9 1   
     5    2   27 1   
     6    3    7 1   
     7    3   28 1   
     8    3   29 1   
     9    4   15 1   
    10    4   30 1   
    11    4   31 1   
    12    5   26 1   
    13    5   32 1   
    14    5   33 1   
    15    5   42 1   
    16    6    7 2   
    17    6   10 1   
    18    6   25 1   
    19    8   25 1   
    20    9   17 ar  
    21    9   21 ar  
    22   10   11 1   
    23   10   22 2   
    24   11   12 ar  
    25   11   16 ar  
    26   12   13 ar  
    27   12   34 1   
    28   13   14 ar  
    29   13   35 1   
    30   14   15 ar  
    31   14   36 1   
    32   15   16 ar  
    33   16   37 1   
    34   17   18 ar  
    35   17   38 1   
    36   18   19 ar  
    37   18   39 1   
    38   19   20 ar  
    39   19   26 1   
    40   20   21 ar  
    41   20   40 1   
    42   21   41 1   
    43   23   26 2   
    44   24   26 2   
@<TRIPOS>SUBSTRUCTURE
     1 26Z         1 TEMP              0 ****  ****    0 ROOT
