@<TRIPOS>MOLECULE
26Z
   41    43     1     0     0
SMALL
bcc


@<TRIPOS>ATOM
      1 N01         0.1580    1.3560    0.0470 nc        1 26Z     -0.747000
      2 N02        -0.5920   -0.9610    0.2270 nh        1 26Z     -0.711300
      3 N03         1.4510    3.3780   -0.2620 nh        1 26Z     -0.932500
      4 N04         5.6460   -2.8540   -1.3550 nh        1 26Z     -0.817200
      5 N05        -6.9120   -1.2240   -1.1550 n3        1 26Z     -1.026700
      6 C06         2.5310    1.1700   -0.0710 cd        1 26Z     -0.419000
      7 C07         1.3940    2.0260   -0.0920 cc        1 26Z      0.717200
      8 C08         0.3810    0.0300    0.1340 cd        1 26Z      0.672300
      9 C09        -1.9760   -0.7180    0.2000 ca        1 26Z      0.208600
     10 C10         3.9050    1.6030   -0.0910 c         1 26Z      0.641300
     11 C11         4.9370    0.5350   -0.0050 ca        1 26Z     -0.118600
     12 C12         6.0320    0.7220    0.8450 ca        1 26Z     -0.123000
     13 C13         6.9990   -0.2760    0.9490 ca        1 26Z     -0.100000
     14 C14         6.8970   -1.4470    0.2080 ca        1 26Z     -0.173000
     15 C15         5.8010   -1.6460   -0.6650 ca        1 26Z      0.133600
     16 C16         4.8220   -0.6310   -0.7630 ca        1 26Z     -0.175000
     17 C17        -2.5630    0.2330   -0.6620 ca        1 26Z     -0.185000
     18 C18        -3.9440    0.3670   -0.7070 ca        1 26Z      0.006500
     19 C19        -4.7890   -0.4280    0.0760 ca        1 26Z     -0.414500
     20 C20        -4.2020   -1.3680    0.9310 ca        1 26Z      0.006500
     21 C21        -2.8260   -1.5210    1.0030 ca        1 26Z     -0.185000
     22 O22         4.2390    2.8000   -0.1420 o         1 26Z     -0.581100
     23 O23        -6.7460    1.0950   -0.3630 o         1 26Z     -0.659800
     24 O24        -7.0030   -0.6930    1.2420 o         1 26Z     -0.659800
     25 S25         2.0520   -0.4440    0.0490 ss        1 26Z     -0.088300
     26 S26        -6.4610   -0.2320    0.0220 sy        1 26Z      1.532200
     27 HN02       -0.3130   -1.7450    0.7830 hn        1 26Z      0.439800
     28 HN03        0.6410    3.9290   -0.1210 hn        1 26Z      0.455300
     29 HN0A        2.3490    3.8090   -0.2360 hn        1 26Z      0.455300
     30 HN04        6.4980   -3.3500   -1.5030 hn        1 26Z      0.389300
     31 HN0B        5.0880   -2.7860   -2.1770 hn        1 26Z      0.389300
     32 HN05       -7.1650   -2.1680   -1.0080 hn        1 26Z      0.446300
     33 HN0C       -6.9910   -0.9490   -2.1010 hn        1 26Z      0.446300
     34 H12         6.1230    1.6580    1.4160 ha        1 26Z      0.150000
     35 H13         7.8590   -0.1330    1.6210 ha        1 26Z      0.136000
     36 H14         7.6720   -2.2210    0.3070 ha        1 26Z      0.134000
     37 H16         3.9730   -0.7510   -1.4580 ha        1 26Z      0.143000
     38 H17        -1.9420    0.8770   -1.3040 ha        1 26Z      0.152000
     39 H18        -4.3880    1.1340   -1.3680 ha        1 26Z      0.155000
     40 H20        -4.8510   -1.9840    1.5800 ha        1 26Z      0.155000
     41 H21        -2.4040   -2.2680    1.6930 ha        1 26Z      0.152000
@<TRIPOS>BOND
     1    1    7 1   
     2    1    8 2   
     3    2    8 1   
     4    2    9 1   
     5    2   27 1   
     6    3    7 1   
     7    3   28 1   
     8    3   29 1   
     9    4   15 1   
    10    4   30 1   
    11    4   31 1   
    12    5   26 1   
    13    5   32 1   
    14    5   33 1   
    15    6    7 2   
    16    6   10 1   
    17    6   25 1   
    18    8   25 1   
    19    9   17 ar  
    20    9   21 ar  
    21   10   11 1   
    22   10   22 2   
    23   11   12 ar  
    24   11   16 ar  
    25   12   13 ar  
    26   12   34 1   
    27   13   14 ar  
    28   13   35 1   
    29   14   15 ar  
    30   14   36 1   
    31   15   16 ar  
    32   16   37 1   
    33   17   18 ar  
    34   17   38 1   
    35   18   19 ar  
    36   18   39 1   
    37   19   20 ar  
    38   19   26 1   
    39   20   21 ar  
    40   20   40 1   
    41   21   41 1   
    42   23   26 2   
    43   24   26 2   
@<TRIPOS>SUBSTRUCTURE
     1 26Z         1 TEMP              0 ****  ****    0 ROOT
