@<TRIPOS>MOLECULE
26Z
   42    44     1     0     0
SMALL
bcc


@<TRIPOS>ATOM
      1 N01         0.4970    0.4080   -0.5470 nc        1 26Z     -0.718000
      2 N02        -1.5290    0.4680    0.8070 nu        1 26Z     -0.677300
      3 N03         2.7640    0.1730   -1.3760 nv        1 26Z     -0.924500
      4 N04         1.9550   -2.0650    5.8230 nv        1 26Z     -0.818200
      5 N05        -6.4670   -2.3260   -2.2500 nz        1 26Z     -0.778500
      6 C06         2.2150   -0.0530    1.0220 cd        1 26Z     -0.410000
      7 C07         1.8750    0.1890   -0.3410 cc        1 26Z      0.696200
      8 C08        -0.1430    0.2930    0.6380 cd        1 26Z      0.562300
      9 C09        -2.4930    0.1860   -0.1180 ca        1 26Z      0.322600
     10 C10         3.5620   -0.1970    1.5430 c         1 26Z      0.637300
     11 C11         3.6590   -0.3260    3.0180 ca        1 26Z     -0.129600
     12 C12         4.6120    0.4310    3.7030 ca        1 26Z     -0.117000
     13 C13         4.6810    0.3490    5.0940 ca        1 26Z     -0.089000
     14 C14         3.8260   -0.4850    5.8010 ca        1 26Z     -0.165000
     15 C15         2.8680   -1.2750    5.1170 ca        1 26Z      0.142600
     16 C16         2.8000   -1.1840    3.7090 ca        1 26Z     -0.192000
     17 C17        -2.2750   -0.6340   -1.2710 ca        1 26Z     -0.215500
     18 C18        -3.3010   -0.9050   -2.1360 ca        1 26Z      0.051500
     19 C19        -4.6220   -0.4100   -1.9440 ca        1 26Z     -0.662500
     20 C20        -4.8310    0.3890   -0.7870 ca        1 26Z      0.051500
     21 C21        -3.8270    0.6780    0.0970 ca        1 26Z     -0.215500
     22 O22         4.5670   -0.1680    0.8170 o         1 26Z     -0.544100
     23 O23        -5.3550   -1.1350   -4.2280 o         1 26Z     -0.581300
     24 O24        -6.8840    0.1270   -2.8700 o         1 26Z     -0.581300
     25 S25         0.8500   -0.0770    1.9880 ss        1 26Z      0.060700
     26 S26        -5.7520   -0.6490   -3.0000 sy        1 26Z      1.519200
     27 HN02       -1.7800    1.0660    1.5710 hn        1 26Z      0.468800
     28 HN03        3.7340    0.1310   -1.1440 hn        1 26Z      0.459300
     29 HN0A        2.4970    0.5320   -2.2600 hn        1 26Z      0.459300
     30 HN04        2.2330   -2.2790    6.7560 hn        1 26Z      0.394800
     31 HN0B        1.6280   -2.8610    5.3220 hn        1 26Z      0.394800
     32 HN05       -6.4010   -3.0700   -2.9380 hn        1 26Z      0.444467
     33 HN0C       -5.9640   -2.6140   -1.4200 hn        1 26Z      0.444467
     34 H12         5.3040    1.0790    3.1430 ha        1 26Z      0.155000
     35 H13         5.4280    0.9490    5.6380 ha        1 26Z      0.147000
     36 H14         3.8980   -0.5330    6.8990 ha        1 26Z      0.144000
     37 H16         2.0990   -1.8280    3.1520 ha        1 26Z      0.134000
     38 H17        -1.2740   -1.0490   -1.4790 ha        1 26Z      0.179000
     39 H18        -3.0970   -1.5200   -3.0350 ha        1 26Z      0.164000
     40 H20        -5.8410    0.8100   -0.6140 ha        1 26Z      0.164000
     41 H21        -4.0430    1.3120    0.9740 ha        1 26Z      0.179000
     42 H053       -7.4460   -2.2080   -2.0060 hn        1 26Z      0.444467
@<TRIPOS>BOND
     1    1    7 1   
     2    1    8 2   
     3    2    8 1   
     4    2    9 1   
     5    2   27 1   
     6    3    7 1   
     7    3   28 1   
     8    3   29 1   
     9    4   15 1   
    10    4   30 1   
    11    4   31 1   
    12    5   26 1   
    13    5   32 1   
    14    5   33 1   
    15    5   42 1   
    16    6    7 2   
    17    6   10 1   
    18    6   25 1   
    19    8   25 1   
    20    9   17 ar  
    21    9   21 ar  
    22   10   11 1   
    23   10   22 2   
    24   11   12 ar  
    25   11   16 ar  
    26   12   13 ar  
    27   12   34 1   
    28   13   14 ar  
    29   13   35 1   
    30   14   15 ar  
    31   14   36 1   
    32   15   16 ar  
    33   16   37 1   
    34   17   18 ar  
    35   17   38 1   
    36   18   19 ar  
    37   18   39 1   
    38   19   20 ar  
    39   19   26 1   
    40   20   21 ar  
    41   20   40 1   
    42   21   41 1   
    43   23   26 2   
    44   24   26 2   
@<TRIPOS>SUBSTRUCTURE
     1 26Z         1 TEMP              0 ****  ****    0 ROOT
