@<TRIPOS>MOLECULE
270
   18    19     1     0     0
SMALL
bcc


@<TRIPOS>ATOM
      1 N1         -0.0790   -0.1380    0.0110 n2        1 270     -0.279200
      2 C1          1.4310   -0.1040    0.0500 c3        1 270      0.403900
      3 C2         -0.4480   -0.0620    1.2670 ca        1 270      0.033000
      4 C3         -1.7570    0.0260    1.8750 ca        1 270     -0.129000
      5 C4         -1.8520    0.0960    3.2220 ca        1 270     -0.062000
      6 C5         -0.6910    0.0950    4.0920 ca        1 270     -0.062000
      7 C6          0.5750    0.0250    3.6220 ca        1 270     -0.129000
      8 C7          0.7910   -0.0630    2.1950 ca        1 270      0.033000
      9 N3          1.8930   -0.1380    1.4880 n2        1 270     -0.279200
     10 N2          2.0560   -1.2070   -0.7840 n4        1 270     -0.824600
     11 H1          1.7760    0.8810   -0.4100 hx        1 270      0.161700
     12 H3         -2.6400    0.0360    1.2150 ha        1 270      0.184000
     13 H4         -2.8420    0.1610    3.7100 ha        1 270      0.175000
     14 H5         -0.8810    0.1610    5.1790 ha        1 270      0.175000
     15 H6          1.4560    0.0350    4.2850 ha        1 270      0.184000
     16 H21         1.7310   -1.1130   -1.7520 hn        1 270      0.471133
     17 H22         1.7900   -2.1310   -0.4290 hn        1 270      0.471133
     18 H23         3.0770   -1.1140   -0.7450 hn        1 270      0.471133
@<TRIPOS>BOND
     1    1    2 1   
     2    1    3 2   
     3    2    9 1   
     4    2   10 1   
     5    2   11 1   
     6    3    4 ar  
     7    3    8 ar  
     8    4    5 ar  
     9    4   12 1   
    10    5    6 ar  
    11    5   13 1   
    12    6    7 ar  
    13    6   14 1   
    14    7    8 ar  
    15    7   15 1   
    16    8    9 2   
    17   10   16 1   
    18   10   17 1   
    19   10   18 1   
@<TRIPOS>SUBSTRUCTURE
     1 270         1 TEMP              0 ****  ****    0 ROOT
