@<TRIPOS>MOLECULE
270
   17    18     1     0     0
SMALL
bcc


@<TRIPOS>ATOM
      1 N1          1.2210    0.1340    1.0730 n2        1 270     -0.259700
      2 C1          0.0030    0.2680    1.9680 c3        1 270      0.447900
      3 C2          0.7530    0.0460   -0.1450 ca        1 270     -0.042000
      4 C3          1.4350   -0.0480   -1.4210 ca        1 270     -0.101000
      5 C4          0.7070   -0.1190   -2.5570 ca        1 270     -0.110500
      6 C5         -0.7400   -0.0970   -2.5550 ca        1 270     -0.110500
      7 C6         -1.4640   -0.0040   -1.4180 ca        1 270     -0.101000
      8 C7         -0.7790    0.0730   -0.1440 ca        1 270     -0.042000
      9 N3         -1.2320    0.1830    1.0750 n2        1 270     -0.259700
     10 N2          0.0140   -0.6030    3.1320 n3        1 270     -0.867800
     11 H1          0.0250    1.3390    2.3570 h3        1 270      0.119700
     12 H3          2.5350   -0.0640   -1.4210 ha        1 270      0.155000
     13 H4          1.2040   -0.1960   -3.5370 ha        1 270      0.140500
     14 H5         -1.2410   -0.1600   -3.5350 ha        1 270      0.140500
     15 H6         -2.5640    0.0150   -1.4170 ha        1 270      0.155000
     16 H21        -0.8210   -0.4560    3.6670 hn        1 270      0.367300
     17 H22         0.0830   -1.5690    2.8760 hn        1 270      0.367300
@<TRIPOS>BOND
     1    1    2 1   
     2    1    3 2   
     3    2    9 1   
     4    2   10 1   
     5    2   11 1   
     6    3    4 ar  
     7    3    8 ar  
     8    4    5 ar  
     9    4   12 1   
    10    5    6 ar  
    11    5   13 1   
    12    6    7 ar  
    13    6   14 1   
    14    7    8 ar  
    15    7   15 1   
    16    8    9 2   
    17   10   16 1   
    18   10   17 1   
@<TRIPOS>SUBSTRUCTURE
     1 270         1 TEMP              0 ****  ****    0 ROOT
