@<TRIPOS>MOLECULE
270
   17    14     1     0     0
SMALL
bcc


@<TRIPOS>ATOM
      1 N1         -0.0290    0.1460   -1.6490 n1        1 270     -0.444800
      2 C1          1.3670    0.1460   -1.6490 ce        1 270      0.429500
      3 C2         -0.6460    0.1460   -0.3360 cg        1 270      0.291800
      4 C3         -1.9490    0.1460    0.1490 c1        1 270     -0.048000
      5 C4         -2.1820    0.1460    1.5280 c1        1 270     -0.048000
      6 C5         -1.0960    0.1460    2.4280 c1        1 270     -0.048000
      7 C6          0.2150    0.1460    1.9430 c1        1 270     -0.048000
      8 C7          0.4500    0.1460    0.5720 cg        1 270      0.291800
      9 N3          1.6260    0.1460   -0.2780 n1        1 270     -0.685400
     10 N2          1.9740   -0.9710   -2.3820 nh        1 270     -0.466100
     11 H1          1.7440    0.9220   -2.1050 h5        1 270     -0.015200
     12 H3         -2.7010    0.1460   -0.4730 ha        1 270      0.089500
     13 H4         -3.0970    0.1460    1.8680 ha        1 270      0.089500
     14 H5         -1.2600    0.1460    3.3900 ha        1 270      0.089500
     15 H6          0.9660    0.1460    2.5660 ha        1 270      0.089500
     16 H21         1.7350   -0.9240   -3.2610 hn        1 270      0.215700
     17 H22         2.8820   -0.9240   -2.3110 hn        1 270      0.215700
@<TRIPOS>BOND
     1    1    3 3   
     2    2    9 1   
     3    2   10 2   
     4    2   11 1   
     5    3    8 1   
     6    4    5 3   
     7    4   12 1   
     8    5   13 1   
     9    6    7 3   
    10    6   14 1   
    11    7   15 1   
    12    8    9 3   
    13   10   16 1   
    14   10   17 1   
@<TRIPOS>SUBSTRUCTURE
     1 270         1 TEMP              0 ****  ****    0 ROOT
