@<TRIPOS>MOLECULE
271
   20    18     1     0     0
SMALL
bcc


@<TRIPOS>ATOM
      1 N03         1.7150    0.0690   -0.9600 n3        1 271     -0.306000
      2 C04         3.1160    0.3540   -0.8880 c3        1 271     -0.124000
      3 C23         1.1990   -0.1140    0.3490 c3        1 271     -0.038000
      4 C24        -0.3120   -0.1090    0.2970 c2        1 271     -0.089000
      5 C25        -0.9970   -1.2110    0.6080 c2        1 271     -0.126000
      6 C26        -2.4210   -1.1690    0.6670 c1        1 271     -0.133000
      7 C27        -3.0740   -0.0210    0.4090 c1        1 271     -0.131000
      8 C28        -2.3750    1.1020    0.0910 c1        1 271     -0.131000
      9 C29        -0.9840    1.0670    0.0330 c1        1 271     -0.110000
     10 H03         1.5740   -0.7160   -1.4730 hn        1 271      0.158000
     11 H041        3.5380   -0.2570   -0.2920 h1        1 271      0.068667
     12 H042        3.2510    1.3000   -0.5500 h1        1 271      0.068667
     13 H043        3.5230    0.2620   -1.8110 h1        1 271      0.068667
     14 H231        1.5170    0.6450    0.9450 h1        1 271      0.076500
     15 H232        1.5460   -1.0460    0.7440 h1        1 271      0.076500
     16 H25        -0.5270   -2.0410    0.7930 ha        1 271      0.130000
     17 H26        -2.9190   -1.9650    0.8930 ha        1 271      0.130000
     18 H27        -4.0210    0.0050    0.4480 ha        1 271      0.131000
     19 H28        -2.8670    1.9650   -0.1020 ha        1 271      0.131000
     20 H29        -0.4820    1.8800   -0.1980 ha        1 271      0.146000
@<TRIPOS>BOND
     1    1    2 1   
     2    1    3 1   
     3    1   10 1   
     4    2   11 1   
     5    2   12 1   
     6    2   13 1   
     7    3    4 1   
     8    3   14 1   
     9    3   15 1   
    10    4    5 1   
    11    4    9 1   
    12    5    6 1   
    13    5   16 1   
    14    6   17 1   
    15    7    8 1   
    16    7   18 1   
    17    8   19 1   
    18    9   20 1   
@<TRIPOS>SUBSTRUCTURE
     1 271         1 TEMP              0 ****  ****    0 ROOT
