@<TRIPOS>MOLECULE
271
   20    20     1     0     0
SMALL
bcc


@<TRIPOS>ATOM
      1 N03        -2.2810    0.4160   -0.3890 n3        1 271     -0.827200
      2 C04        -3.6750    0.1120   -0.2070 c3        1 271      0.152100
      3 C23        -1.4270   -0.1440    0.6430 c3        1 271      0.206100
      4 C24         0.0330   -0.0980    0.3060 ca        1 271     -0.096300
      5 C25         0.6260    1.0930   -0.1270 ca        1 271     -0.118000
      6 C26         1.9910    1.1330   -0.4080 ca        1 271     -0.133500
      7 C27         2.7720   -0.0130   -0.2550 ca        1 271     -0.128000
      8 C28         2.1840   -1.2010    0.1780 ca        1 271     -0.133500
      9 C29         0.8190   -1.2460    0.4560 ca        1 271     -0.118000
     10 H03        -1.9680    0.1310   -1.2980 hn        1 271      0.362800
     11 H041       -3.9050   -0.9900   -0.2080 h1        1 271      0.029367
     12 H042       -4.0180    0.5360    0.7730 h1        1 271      0.029367
     13 H043       -4.2570    0.5970   -1.0340 h1        1 271      0.029367
     14 H231       -1.5970    0.4670    1.5790 h1        1 271      0.037200
     15 H232       -1.7140   -1.2110    0.8910 h1        1 271      0.037200
     16 H25         0.0110    1.9980   -0.2450 ha        1 271      0.138000
     17 H26         2.4520    2.0710   -0.7500 ha        1 271      0.131000
     18 H27         3.8490    0.0210   -0.4750 ha        1 271      0.130000
     19 H28         2.7980   -2.1060    0.3000 ha        1 271      0.131000
     20 H29         0.3610   -2.1870    0.7960 ha        1 271      0.138000
@<TRIPOS>BOND
     1    1    2 1   
     2    1    3 1   
     3    1   10 1   
     4    2   11 1   
     5    2   12 1   
     6    2   13 1   
     7    3    4 1   
     8    3   14 1   
     9    3   15 1   
    10    4    5 ar  
    11    4    9 ar  
    12    5    6 ar  
    13    5   16 1   
    14    6    7 ar  
    15    6   17 1   
    16    7    8 ar  
    17    7   18 1   
    18    8    9 ar  
    19    8   19 1   
    20    9   20 1   
@<TRIPOS>SUBSTRUCTURE
     1 271         1 TEMP              0 ****  ****    0 ROOT
