@<TRIPOS>MOLECULE
271
   21    21     1     0     0
SMALL
bcc


@<TRIPOS>ATOM
      1 N03         0.0350    0.0010   -0.0150 n4        1 271     -0.764000
      2 C04         1.5120    0.0010    0.0040 c3        1 271      0.076100
      3 C23        -0.5540    0.0010    1.3710 c3        1 271      0.175100
      4 C24        -2.0410    0.0000    1.3100 ca        1 271     -0.200300
      5 C25        -2.7400   -1.2130    1.2990 ca        1 271     -0.098000
      6 C26        -4.1330   -1.2110    1.2820 ca        1 271     -0.117000
      7 C27        -4.8310   -0.0010    1.2760 ca        1 271     -0.073000
      8 C28        -4.1340    1.2090    1.2890 ca        1 271     -0.117000
      9 C29        -2.7410    1.2130    1.3060 ca        1 271     -0.098000
     10 H03        -0.3080   -0.8280   -0.5170 hn        1 271      0.453800
     11 H041        1.8820    0.9180    0.5380 hx        1 271      0.108700
     12 H042        1.8830   -0.9150    0.5380 hx        1 271      0.108700
     13 H043        1.8990    0.0010   -1.0520 hx        1 271      0.108700
     14 H231       -0.1690    0.9180    1.9030 hx        1 271      0.108700
     15 H232       -0.1690   -0.9170    1.9030 hx        1 271      0.108700
     16 H25        -2.1950   -2.1700    1.3230 ha        1 271      0.139000
     17 H26        -4.6840   -2.1650    1.2800 ha        1 271      0.162000
     18 H27        -5.9330   -0.0020    1.2670 ha        1 271      0.164000
     19 H28        -4.6860    2.1630    1.2940 ha        1 271      0.162000
     20 H29        -2.1970    2.1700    1.3370 ha        1 271      0.139000
     21 H032       -0.3080    0.8300   -0.5170 hn        1 271      0.453800
@<TRIPOS>BOND
     1    1    2 1   
     2    1    3 1   
     3    1   10 1   
     4    1   21 1   
     5    2   11 1   
     6    2   12 1   
     7    2   13 1   
     8    3    4 1   
     9    3   14 1   
    10    3   15 1   
    11    4    5 ar  
    12    4    9 ar  
    13    5    6 ar  
    14    5   16 1   
    15    6    7 ar  
    16    6   17 1   
    17    7    8 ar  
    18    7   18 1   
    19    8    9 ar  
    20    8   19 1   
    21    9   20 1   
@<TRIPOS>SUBSTRUCTURE
     1 271         1 TEMP              0 ****  ****    0 ROOT
