@<TRIPOS>MOLECULE
272
   27    29     1     0     0
SMALL
bcc


@<TRIPOS>ATOM
      1 C1         -3.9430    0.6320    0.2380 ca        1 272      0.161100
      2 C2         -3.6230   -0.6650   -0.2030 ca        1 272     -0.153000
      3 C3         -2.2680   -0.9230   -0.3200 ca        1 272      0.081100
      4 C4         -1.2450    0.0310   -0.0280 ca        1 272     -0.254900
      5 C5         -1.6030    1.3000    0.4100 ca        1 272     -0.019000
      6 C6         -2.9560    1.5960    0.5410 ca        1 272     -0.235000
      7 O10        -1.6430   -2.1200   -0.7230 os        1 272     -0.005600
      8 N11        -0.3260   -1.9520   -0.7050 nc        1 272     -0.414200
      9 C12        -0.0030   -0.7110   -0.2970 cd        1 272      0.440500
     10 C13         1.3360   -0.1620   -0.1790 ca        1 272     -0.238900
     11 C14         2.4090   -0.8630    0.4030 ca        1 272      0.212100
     12 C15         3.6880   -0.2790    0.4880 ca        1 272     -0.259000
     13 C16         3.8800    1.0050   -0.0220 ca        1 272      0.176100
     14 C17         2.8190    1.7240   -0.6090 ca        1 272     -0.197000
     15 C18         1.5690    1.1330   -0.6770 ca        1 272     -0.041000
     16 O22         5.0960    1.6400    0.0190 oh        1 272     -0.491100
     17 O23         2.3290   -2.1190    0.9410 oh        1 272     -0.490100
     18 O24        -5.2840    0.9050    0.3590 oh        1 272     -0.488100
     19 H2         -4.4000   -1.4040   -0.4330 ha        1 272      0.176000
     20 H5         -0.8360    2.0520    0.6510 ha        1 272      0.150000
     21 H6         -3.2670    2.5930    0.8860 ha        1 272      0.141000
     22 H15         4.5080   -0.8470    0.9480 ha        1 272      0.157000
     23 H17         3.0010    2.7320   -1.0040 ha        1 272      0.156000
     24 H18         0.7320    1.6820   -1.1400 ha        1 272      0.142000
     25 H22         5.7370    1.0400    0.4300 ho        1 272      0.426000
     26 H23         1.4200   -2.4470    0.8720 ho        1 272      0.442000
     27 H24        -5.3810    1.8180    0.6700 ho        1 272      0.426000
@<TRIPOS>BOND
     1    1    2 ar  
     2    1    6 ar  
     3    1   18 1   
     4    2    3 ar  
     5    2   19 1   
     6    3    4 ar  
     7    3    7 1   
     8    4    5 ar  
     9    4    9 1   
    10    5    6 ar  
    11    5   20 1   
    12    6   21 1   
    13    7    8 1   
    14    8    9 2   
    15    9   10 1   
    16   10   11 ar  
    17   10   15 ar  
    18   11   12 ar  
    19   11   17 1   
    20   12   13 ar  
    21   12   22 1   
    22   13   14 ar  
    23   13   16 1   
    24   14   15 ar  
    25   14   23 1   
    26   15   24 1   
    27   16   25 1   
    28   17   26 1   
    29   18   27 1   
@<TRIPOS>SUBSTRUCTURE
     1 272         1 TEMP              0 ****  ****    0 ROOT
