@<TRIPOS>MOLECULE
272
   27    29     1     0     0
SMALL
bcc


@<TRIPOS>ATOM
      1 C1         -0.0550   -0.1440   -0.0010 ca        1 272      0.160100
      2 C2          1.3480   -0.0980   -0.0170 ca        1 272     -0.214000
      3 C3          1.9510   -0.0520    1.2300 ca        1 272      0.085100
      4 C4          1.2260   -0.0490    2.4610 ca        1 272     -0.251900
      5 C5         -0.1640   -0.0990    2.4340 ca        1 272     -0.030000
      6 C6         -0.8030   -0.1460    1.2000 ca        1 272     -0.180000
      7 O10         3.3250   -0.0050    1.5350 os        1 272     -0.012600
      8 N11         3.4810    0.0270    2.8550 nc        1 272     -0.374200
      9 C12         2.2900   -0.0000    3.4770 cd        1 272      0.443500
     10 C13         2.0670    0.0320    4.9110 ca        1 272     -0.178900
     11 C14         2.7850   -0.7950    5.8000 ca        1 272      0.201100
     12 C15         2.5580   -0.7350    7.1840 ca        1 272     -0.312000
     13 C16         1.6020    0.1610    7.6740 ca        1 272      0.179100
     14 C17         0.8680    0.9880    6.8040 ca        1 272     -0.197000
     15 C18         1.1100    0.9110    5.4400 ca        1 272     -0.043000
     16 O22         1.3230    0.2810    9.0120 oh        1 272     -0.490100
     17 O23         3.6900   -1.6730    5.2620 oh        1 272     -0.473100
     18 O24        -0.7930   -0.1920   -1.1580 oh        1 272     -0.491100
     19 H2          1.9270   -0.0990   -0.9480 ha        1 272      0.159000
     20 H5         -0.7450   -0.1040    3.3680 ha        1 272      0.148000
     21 H6         -1.9000   -0.1870    1.1360 ha        1 272      0.157000
     22 H15         3.1250   -1.3810    7.8670 ha        1 272      0.140000
     23 H17         0.1220    1.6810    7.2150 ha        1 272      0.157000
     24 H18         0.5430    1.5580    4.7490 ha        1 272      0.146000
     25 H22         1.8960   -0.3300    9.4980 ho        1 272      0.423000
     26 H23         4.1370   -2.1320    5.9890 ho        1 272      0.423000
     27 H24        -0.1800   -0.1910   -1.9090 ho        1 272      0.425000
@<TRIPOS>BOND
     1    1    2 ar  
     2    1    6 ar  
     3    1   18 1   
     4    2    3 ar  
     5    2   19 1   
     6    3    4 ar  
     7    3    7 1   
     8    4    5 ar  
     9    4    9 1   
    10    5    6 ar  
    11    5   20 1   
    12    6   21 1   
    13    7    8 1   
    14    8    9 2   
    15    9   10 1   
    16   10   11 ar  
    17   10   15 ar  
    18   11   12 ar  
    19   11   17 1   
    20   12   13 ar  
    21   12   22 1   
    22   13   14 ar  
    23   13   16 1   
    24   14   15 ar  
    25   14   23 1   
    26   15   24 1   
    27   16   25 1   
    28   17   26 1   
    29   18   27 1   
@<TRIPOS>SUBSTRUCTURE
     1 272         1 TEMP              0 ****  ****    0 ROOT
