@<TRIPOS>MOLECULE
272
   27    21     1     0     0
SMALL
bcc


@<TRIPOS>ATOM
      1 C1         -1.2600   -1.9590   -3.0940 c1        1 272      0.131667
      2 C2          0.1130   -2.0400   -2.9940 c1        1 272     -0.088000
      3 C3          0.7480   -1.6480   -1.8240 c1        1 272     -0.066000
      4 C4          0.0220   -1.1880   -0.7830 c1        1 272     -0.066000
      5 C5         -1.3940   -1.1060   -0.8900 c1        1 272     -0.088000
      6 C6         -2.0080   -1.4880   -2.0320 c1        1 272     -0.249000
      7 O10         2.0720   -1.6210   -1.4650 o         1 272     -0.009700
      8 N11         2.1550   -1.1350   -0.1780 n2        1 272     -0.038300
      9 C12         0.9010   -0.8670    0.2460 c1        1 272     -0.015000
     10 C13         0.8010    0.2930    1.0260 c1        1 272     -0.094000
     11 C14         0.2960    0.2090    2.3190 c1        1 272      0.131667
     12 C15         0.0640    1.3690    3.0570 c1        1 272     -0.249000
     13 C16         0.3350    2.5950    2.5080 c1        1 272      0.131667
     14 C17         0.8410    2.6810    1.2130 c1        1 272     -0.249000
     15 C18         1.0720    1.5180    0.4750 c1        1 272     -0.037000
     16 O22         0.0570    3.8090    3.2650 oh        1 272     -0.239000
     17 O23        -0.0370   -1.0380    2.8520 oh        1 272     -0.239000
     18 O24        -1.9850   -2.1040   -4.3280 oh        1 272     -0.239000
     19 H2          0.6740   -2.3990   -3.8010 ha        1 272      0.160000
     20 H5         -1.9570   -0.7550   -0.0920 ha        1 272      0.160000
     21 H6         -2.9370   -1.4300   -2.1060 ha        1 272      0.145333
     22 H15        -0.2690    1.3120    3.9100 ha        1 272      0.145333
     23 H17         1.0310    3.5420    0.8270 ha        1 272      0.145333
     24 H18         1.4420    1.5810   -0.4680 ha        1 272      0.144000
     25 H22         0.8520    4.2420    3.4540 ho        1 272      0.224000
     26 H23         0.3150   -1.1120    3.7420 ho        1 272      0.224000
     27 H24        -1.9450   -1.2590   -4.8380 ho        1 272      0.224000
@<TRIPOS>BOND
     1    1    6 1   
     2    1   18 1   
     3    2    3 1   
     4    2   19 1   
     5    4    5 1   
     6    5   20 1   
     7    6   21 1   
     8    7    8 2   
     9    8    9 1   
    10    9   10 1   
    11   10   15 1   
    12   11   12 1   
    13   11   17 1   
    14   12   22 1   
    15   13   14 1   
    16   13   16 1   
    17   14   23 1   
    18   15   24 1   
    19   16   25 1   
    20   17   26 1   
    21   18   27 1   
@<TRIPOS>SUBSTRUCTURE
     1 272         1 TEMP              0 ****  ****    0 ROOT
