@<TRIPOS>MOLECULE
272
   27    29     1     0     0
SMALL
bcc


@<TRIPOS>ATOM
      1 C1         -0.0660   -0.1430    0.0040 ca        1 272      0.160100
      2 C2          1.3370   -0.1040   -0.0170 ca        1 272     -0.214000
      3 C3          1.9440   -0.0590    1.2280 ca        1 272      0.085100
      4 C4          1.2220   -0.0500    2.4610 ca        1 272     -0.251900
      5 C5         -0.1680   -0.0930    2.4390 ca        1 272     -0.030000
      6 C6         -0.8110   -0.1390    1.2070 ca        1 272     -0.180000
      7 O10         3.3180   -0.0190    1.5290 os        1 272     -0.012600
      8 N11         3.4790    0.0150    2.8490 nc        1 272     -0.374200
      9 C12         2.2890   -0.0050    3.4740 cd        1 272      0.443500
     10 C13         2.0710    0.0300    4.9090 ca        1 272     -0.178900
     11 C14         2.7870   -0.8000    5.7970 ca        1 272      0.201100
     12 C15         2.5650   -0.7360    7.1810 ca        1 272     -0.312000
     13 C16         1.6150    0.1650    7.6730 ca        1 272      0.179100
     14 C17         0.8830    0.9950    6.8030 ca        1 272     -0.197000
     15 C18         1.1200    0.9150    5.4390 ca        1 272     -0.043000
     16 O22         1.3400    0.2890    9.0120 oh        1 272     -0.490100
     17 O23         3.6860   -1.6840    5.2570 oh        1 272     -0.473100
     18 O24        -0.8080   -0.1880   -1.1520 oh        1 272     -0.491100
     19 H2          1.9130   -0.1090   -0.9490 ha        1 272      0.159000
     20 H5         -0.7460   -0.0930    3.3740 ha        1 272      0.148000
     21 H6         -1.9080   -0.1740    1.1450 ha        1 272      0.157000
     22 H15         3.1300   -1.3840    7.8640 ha        1 272      0.140000
     23 H17         0.1420    1.6930    7.2160 ha        1 272      0.157000
     24 H18         0.5550    1.5640    4.7490 ha        1 272      0.146000
     25 H22         1.9120   -0.3240    9.4970 ho        1 272      0.423000
     26 H23         4.1320   -2.1430    5.9840 ho        1 272      0.423000
     27 H24        -0.1970   -0.1920   -1.9040 ho        1 272      0.425000
@<TRIPOS>BOND
     1    1    2 ar  
     2    1    6 ar  
     3    1   18 1   
     4    2    3 ar  
     5    2   19 1   
     6    3    4 ar  
     7    3    7 1   
     8    4    5 ar  
     9    4    9 1   
    10    5    6 ar  
    11    5   20 1   
    12    6   21 1   
    13    7    8 1   
    14    8    9 2   
    15    9   10 1   
    16   10   11 ar  
    17   10   15 ar  
    18   11   12 ar  
    19   11   17 1   
    20   12   13 ar  
    21   12   22 1   
    22   13   14 ar  
    23   13   16 1   
    24   14   15 ar  
    25   14   23 1   
    26   15   24 1   
    27   16   25 1   
    28   17   26 1   
    29   18   27 1   
@<TRIPOS>SUBSTRUCTURE
     1 272         1 TEMP              0 ****  ****    0 ROOT
