@<TRIPOS>MOLECULE
273
   20    19     1     0     0
SMALL
bcc


@<TRIPOS>ATOM
      1 C1          0.0420    0.5380   -1.1570 c3        1 273     -0.076900
      2 C2          1.3650    0.8220   -1.2140 c3        1 273     -0.083400
      3 C3          2.0000    0.1460    0.0470 c3        1 273     -0.083400
      4 C4          0.7850   -0.2950    0.9770 c3        1 273     -0.076900
      5 C5         -0.3480    0.3430    0.4520 c3        1 273     -0.074500
      6 C6         -1.6430   -0.4090    0.6760 c2        1 273      0.159800
      7 N7         -2.1230   -1.3500   -0.3310 nh        1 273     -0.831600
      8 N8         -2.3380   -0.2090    1.7770 n1        1 273     -0.316000
      9 H11        -0.1430   -0.2970   -1.6520 hc        1 273      0.050950
     10 H12        -0.4730    1.2710   -1.5370 hc        1 273      0.050950
     11 H21         1.5100    1.8250   -1.1850 hc        1 273      0.043700
     12 H22         1.7460    0.4560   -2.0100 hc        1 273      0.043700
     13 H31         2.5360   -0.6610   -0.2270 hc        1 273      0.043700
     14 H32         2.5690    0.7830    0.5170 hc        1 273      0.043700
     15 H41         0.6700   -1.2780    0.9460 hc        1 273      0.050950
     16 H42         0.9390   -0.0050    1.8860 hc        1 273      0.050950
     17 H5         -0.5340    1.2070    0.9010 hc        1 273      0.060700
     18 H71        -2.6670   -1.0600   -1.0030 hn        1 273      0.399800
     19 H72        -1.8670   -2.2360   -0.2940 hn        1 273      0.399800
     20 H8         -2.0250    0.4070    2.4330 DU        1 273      0.144000
@<TRIPOS>BOND
     1    1    2 1   
     2    1    5 1   
     3    1    9 1   
     4    1   10 1   
     5    2    3 1   
     6    2   11 1   
     7    2   12 1   
     8    3    4 1   
     9    3   13 1   
    10    3   14 1   
    11    4    5 1   
    12    4   15 1   
    13    4   16 1   
    14    5    6 1   
    15    5   17 1   
    16    6    7 1   
    17    6    8 2   
    18    7   18 1   
    19    7   19 1   
@<TRIPOS>SUBSTRUCTURE
     1 273         1 TEMP              0 ****  ****    0 ROOT
