@<TRIPOS>MOLECULE
273
   21    21     1     0     0
SMALL
bcc


@<TRIPOS>ATOM
      1 C1         -0.1290    0.1490    0.1330 c3        1 273     -0.085400
      2 C2          1.3790    0.3330   -0.0200 c3        1 273     -0.080400
      3 C3          2.0320   -0.1590    1.2660 c3        1 273     -0.080400
      4 C4          0.9260   -0.7340    2.1440 c3        1 273     -0.085400
      5 C5         -0.3710   -0.1080    1.6230 c3        1 273     -0.164000
      6 C6         -1.5830   -0.9670    1.9020 c2        1 273      0.534200
      7 N7         -2.8160   -0.4660    1.1910 n4        1 273     -0.828600
      8 N8         -1.7550   -1.9950    2.6360 n2        1 273     -0.718100
      9 H11        -0.4640   -0.7250   -0.4820 hc        1 273      0.055700
     10 H12        -0.6790    1.0580   -0.2160 hc        1 273      0.055700
     11 H21         1.6240    1.4110   -0.1970 hc        1 273      0.071450
     12 H22         1.7510   -0.2430   -0.9050 hc        1 273      0.071450
     13 H31         2.8070   -0.9370    1.0520 hc        1 273      0.071450
     14 H32         2.5450    0.6870    1.7910 hc        1 273      0.071450
     15 H41         0.9100   -1.8490    2.0380 hc        1 273      0.055700
     16 H42         1.0870   -0.4870    3.2210 hc        1 273      0.055700
     17 H5         -0.5250    0.8780    2.1500 hc        1 273      0.095700
     18 H71        -2.6210   -0.4510    0.1830 hn        1 273      0.471133
     19 H72        -3.0120    0.4860    1.5130 hn        1 273      0.471133
     20 H8         -0.9750   -2.3730    3.1340 hn        1 273      0.492400
     21 H73        -3.6340   -1.0620    1.3720 hn        1 273      0.471133
@<TRIPOS>BOND
     1    1    2 1   
     2    1    5 1   
     3    1    9 1   
     4    1   10 1   
     5    2    3 1   
     6    2   11 1   
     7    2   12 1   
     8    3    4 1   
     9    3   13 1   
    10    3   14 1   
    11    4    5 1   
    12    4   15 1   
    13    4   16 1   
    14    5    6 1   
    15    5   17 1   
    16    6    7 1   
    17    6    8 2   
    18    7   18 1   
    19    7   19 1   
    20    7   21 1   
    21    8   20 1   
@<TRIPOS>SUBSTRUCTURE
     1 273         1 TEMP              0 ****  ****    0 ROOT
