@<TRIPOS>MOLECULE
273
   21    21     1     0     0
SMALL
bcc


@<TRIPOS>ATOM
      1 C1         -0.1050    0.1270    0.1260 c3        1 273     -0.085400
      2 C2          1.4050    0.3150    0.0130 c3        1 273     -0.080400
      3 C3          2.0230   -0.1510    1.3260 c3        1 273     -0.080400
      4 C4          0.8950   -0.7140    2.1830 c3        1 273     -0.085400
      5 C5         -0.3900   -0.1030    1.6130 c3        1 273     -0.164000
      6 C6         -1.6050   -0.9610    1.8740 c2        1 273      0.534200
      7 N7         -2.8180   -0.4810    1.1160 n4        1 273     -0.828600
      8 N8         -1.7950   -1.9750    2.6240 n2        1 273     -0.718100
      9 H11        -0.6490    1.0260   -0.2550 hc        1 273      0.055700
     10 H12        -0.4190   -0.7600   -0.4810 hc        1 273      0.055700
     11 H21         1.8060   -0.2740   -0.8490 hc        1 273      0.071700
     12 H22         1.6510    1.3910   -0.1750 hc        1 273      0.071700
     13 H31         2.8050   -0.9310    1.1490 hc        1 273      0.071700
     14 H32         2.5190    0.7050    1.8500 hc        1 273      0.071700
     15 H41         1.0240   -0.4450    3.2600 hc        1 273      0.055700
     16 H42         0.8850   -1.8310    2.0990 hc        1 273      0.055700
     17 H5         -0.5620    0.8920    2.1170 hc        1 273      0.095700
     18 H71        -3.0260    0.4770    1.4110 hn        1 273      0.471133
     19 H72        -3.6400   -1.0760    1.2870 hn        1 273      0.471133
     20 H8         -1.0290   -2.3390    3.1530 hn        1 273      0.492400
     21 H73        -2.5950   -0.4880    0.1150 hn        1 273      0.471133
@<TRIPOS>BOND
     1    1    2 1   
     2    1    5 1   
     3    1    9 1   
     4    1   10 1   
     5    2    3 1   
     6    2   11 1   
     7    2   12 1   
     8    3    4 1   
     9    3   13 1   
    10    3   14 1   
    11    4    5 1   
    12    4   15 1   
    13    4   16 1   
    14    5    6 1   
    15    5   17 1   
    16    6    7 1   
    17    6    8 2   
    18    7   18 1   
    19    7   19 1   
    20    7   21 1   
    21    8   20 1   
@<TRIPOS>SUBSTRUCTURE
     1 273         1 TEMP              0 ****  ****    0 ROOT
