@<TRIPOS>MOLECULE
273
   21    21     1     0     0
SMALL
bcc


@<TRIPOS>ATOM
      1 C1         -0.1000    0.1160    0.1190 c3        1 273     -0.085400
      2 C2          1.4100    0.3040    0.0040 c3        1 273     -0.080400
      3 C3          2.0290   -0.1450    1.3230 c3        1 273     -0.080400
      4 C4          0.9010   -0.6990    2.1860 c3        1 273     -0.085400
      5 C5         -0.3840   -0.0960    1.6090 c3        1 273     -0.164000
      6 C6         -1.5990   -0.9530    1.8790 c2        1 273      0.534200
      7 N7         -2.8130   -0.4820    1.1170 nz        1 273     -0.828600
      8 N8         -1.7880   -1.9580    2.6410 n2        1 273     -0.718100
      9 H11        -0.4130   -0.7790   -0.4780 hc        1 273      0.055700
     10 H12        -0.6440    1.0100   -0.2730 hc        1 273      0.055700
     11 H21         1.8110   -0.2960   -0.8520 hc        1 273      0.071450
     12 H22         1.6560    1.3770   -0.1980 hc        1 273      0.071450
     13 H31         2.5230    0.7180    1.8360 hc        1 273      0.071450
     14 H32         2.8120   -0.9260    1.1550 hc        1 273      0.071450
     15 H41         1.0290   -0.4170    3.2600 hc        1 273      0.055700
     16 H42         0.8920   -1.8170    2.1150 hc        1 273      0.055700
     17 H5         -0.5570    0.9050    2.1010 hc        1 273      0.095700
     18 H71        -2.5890   -0.4990    0.1160 hn        1 273      0.471133
     19 H72        -3.6340   -1.0760    1.2940 hn        1 273      0.471133
     20 H8         -1.0210   -2.3160    3.1740 hn        1 273      0.492400
     21 H73        -3.0220    0.4790    1.4020 hn        1 273      0.471133
@<TRIPOS>BOND
     1    1    2 1   
     2    1    5 1   
     3    1    9 1   
     4    1   10 1   
     5    2    3 1   
     6    2   11 1   
     7    2   12 1   
     8    3    4 1   
     9    3   13 1   
    10    3   14 1   
    11    4    5 1   
    12    4   15 1   
    13    4   16 1   
    14    5    6 1   
    15    5   17 1   
    16    6    7 1   
    17    6    8 2   
    18    7   18 1   
    19    7   19 1   
    20    7   21 1   
    21    8   20 1   
@<TRIPOS>SUBSTRUCTURE
     1 273         1 TEMP              0 ****  ****    0 ROOT
