@<TRIPOS>MOLECULE
273
   20    20     1     0     0
SMALL
bcc


@<TRIPOS>ATOM
      1 C1         -0.7260   -1.1440   -0.5190 c3        1 273     -0.076400
      2 C2         -2.1780   -0.6930   -0.4280 c3        1 273     -0.081400
      3 C3         -2.2040    0.6430    0.3030 c3        1 273     -0.081400
      4 C4         -0.7660    1.0080    0.6500 c3        1 273     -0.076400
      5 C5          0.0720   -0.2530    0.4340 c3        1 273     -0.154000
      6 C6          1.4640    0.0710   -0.1110 c2        1 273      0.594200
      7 N7          2.5260   -0.2750    0.7530 nh        1 273     -0.892800
      8 N8          1.6970    0.6750   -1.2380 n2        1 273     -0.843100
      9 H11        -0.6200   -2.2190   -0.2300 hc        1 273      0.048950
     10 H12        -0.3600   -1.0480   -1.5730 hc        1 273      0.048950
     11 H21        -2.6230   -0.5960   -1.4500 hc        1 273      0.043700
     12 H22        -2.7870   -1.4510    0.1270 hc        1 273      0.043700
     13 H31        -2.6660    1.4360   -0.3350 hc        1 273      0.043700
     14 H32        -2.8210    0.5640    1.2330 hc        1 273      0.043700
     15 H41        -0.4150    1.8490    0.0010 hc        1 273      0.048950
     16 H42        -0.6820    1.3530    1.7110 hc        1 273      0.048950
     17 H5          0.1530   -0.7850    1.4220 hc        1 273      0.062700
     18 H71         2.3880   -1.1470    1.2150 hn        1 273      0.393300
     19 H72         3.4410   -0.1820    0.3640 hn        1 273      0.393300
     20 H8          0.8750    0.9670   -1.7210 hn        1 273      0.391400
@<TRIPOS>BOND
     1    1    2 1   
     2    1    5 1   
     3    1    9 1   
     4    1   10 1   
     5    2    3 1   
     6    2   11 1   
     7    2   12 1   
     8    3    4 1   
     9    3   13 1   
    10    3   14 1   
    11    4    5 1   
    12    4   15 1   
    13    4   16 1   
    14    5    6 1   
    15    5   17 1   
    16    6    7 1   
    17    6    8 2   
    18    7   18 1   
    19    7   19 1   
    20    8   20 1   
@<TRIPOS>SUBSTRUCTURE
     1 273         1 TEMP              0 ****  ****    0 ROOT
