@<TRIPOS>MOLECULE
274
   69    73     1     0     0
SMALL
bcc


@<TRIPOS>ATOM
      1 C22        -0.3780    0.5040    0.1680 c         1 274      0.696700
      2 O4          0.7850    0.7660    0.5360 o         1 274     -0.596100
      3 C19        -1.4760    0.3950    1.1400 cc        1 274     -0.234600
      4 C18        -1.4760   -0.4570    2.2850 cc        1 274     -0.025300
      5 C21        -0.4210   -1.3980    2.6700 c3        1 274     -0.051800
      6 C20        -2.6750    1.1580    1.1750 cd        1 274     -0.022600
      7 C23        -3.1050    2.2090    0.2320 c3        1 274     -0.050800
      8 N3         -3.3960    0.7790    2.2880 na        1 274     -0.133100
      9 C17        -2.6920   -0.2120    2.9870 cd        1 274     -0.164100
     10 C16        -3.0900   -0.8740    4.1860 cf        1 274      0.066800
     11 C14        -4.2000   -0.7770    4.9420 cc        1 274     -0.179400
     12 C12        -4.4330   -1.5620    6.1650 ca        1 274     -0.123800
     13 C9         -3.6780   -2.5110    6.8150 ca        1 274      0.029000
     14 C15        -5.4220    0.0760    4.7890 c         1 274      0.727700
     15 O3         -5.7270    0.9110    3.9250 o         1 274     -0.635500
     16 N2         -6.2960   -0.2160    5.8690 n         1 274     -0.471100
     17 C13        -5.7210   -1.1810    6.6960 ca        1 274      0.124600
     18 C11        -6.2070   -1.7610    7.8680 ca        1 274     -0.199000
     19 C10        -5.4130   -2.7190    8.4970 ca        1 274      0.027000
     20 C8         -4.1660   -3.1100    7.9940 ca        1 274     -0.427500
     21 S1         -3.2380   -4.2420    8.8110 sy        1 274      1.513200
     22 O1         -1.8840   -4.0560    8.4640 o         1 274     -0.649800
     23 O2         -3.5430   -4.1750   10.1890 o         1 274     -0.649800
     24 N1         -3.7870   -5.6840    8.2260 nh        1 274     -0.675900
     25 C7         -4.7060   -6.4720    9.0020 c3        1 274      0.194100
     26 C3         -3.5060   -6.1610    6.9260 ca        1 274      0.155600
     27 C1         -4.5350   -6.7050    6.1260 ca        1 274     -0.148000
     28 C2         -4.2430   -7.1840    4.8490 ca        1 274      0.030400
     29 CL1        -5.4960   -7.8370    3.9010 cl        1 274     -0.093400
     30 C4         -2.9440   -7.1350    4.3380 ca        1 274     -0.137000
     31 C5         -1.9290   -6.6000    5.1280 ca        1 274     -0.107000
     32 C6         -2.1910   -6.1230    6.4090 ca        1 274     -0.157000
     33 C24         0.4070    0.4360   -2.1610 c3        1 274      0.077500
     34 C27         0.7710   -0.9310   -2.7770 c3        1 274      0.141800
     35 N5         -0.3910   -1.6650   -3.2580 n3        1 274     -0.732600
     36 C28        -0.0420   -2.9580   -3.8020 c3        1 274      0.157100
     37 C26        -1.4530   -1.7480   -2.2670 c3        1 274      0.141800
     38 C25        -1.8150   -0.3750   -1.6570 c3        1 274      0.077500
     39 N4         -0.6720    0.3810   -1.1960 n         1 274     -0.453800
     40 H211       -0.1760   -1.2960    3.7570 hc        1 274      0.057367
     41 H212        0.5100   -1.1970    2.0800 hc        1 274      0.057367
     42 H213       -0.7470   -2.4520    2.4800 hc        1 274      0.057367
     43 H231       -2.3330    3.0190    0.2020 hc        1 274      0.063700
     44 H232       -3.2000    1.7740   -0.7960 hc        1 274      0.063700
     45 H233       -4.0860    2.6620    0.5190 hc        1 274      0.063700
     46 H3         -4.2710    1.1630    2.5640 hn        1 274      0.335700
     47 H16        -2.3190   -1.6000    4.5320 ha        1 274      0.149000
     48 H9         -2.6830   -2.8030    6.4350 ha        1 274      0.158000
     49 H2         -7.1690    0.2170    6.0220 hn        1 274      0.347500
     50 H11        -7.1800   -1.4750    8.2900 ha        1 274      0.150000
     51 H10        -5.7740   -3.1750    9.4370 ha        1 274      0.153000
     52 H7C1       -4.5380   -6.2740   10.0970 h1        1 274      0.053367
     53 H7C2       -5.7710   -6.2180    8.7460 h1        1 274      0.053367
     54 H7C3       -4.5470   -7.5660    8.8080 h1        1 274      0.053367
     55 H1         -5.5670   -6.7580    6.5060 ha        1 274      0.151000
     56 H6         -1.3620   -5.7100    7.0120 ha        1 274      0.175000
     57 H4         -2.7240   -7.5160    3.3300 ha        1 274      0.150000
     58 H5         -0.9000   -6.5610    4.7400 ha        1 274      0.143000
     59 H241        1.3320    0.8600   -1.6790 h1        1 274      0.065700
     60 H242        0.0780    1.1320   -2.9850 h1        1 274      0.065700
     61 H271        1.3560   -1.5270   -2.0170 h1        1 274      0.039200
     62 H272        1.4440   -0.7420   -3.6590 h1        1 274      0.039200
     63 H281        0.7120   -2.8120   -4.6190 h1        1 274      0.033033
     64 H282        0.3910   -3.6610   -3.0380 h1        1 274      0.033033
     65 H283       -0.9630   -3.4270   -4.2380 h1        1 274      0.033033
     66 H261       -1.1920   -2.4600   -1.4310 h1        1 274      0.039200
     67 H262       -2.3720   -2.1450   -2.7820 h1        1 274      0.039200
     68 H251       -2.5380   -0.5520   -0.8130 h1        1 274      0.065700
     69 H252       -2.3320    0.2460   -2.4450 h1        1 274      0.065700
@<TRIPOS>BOND
     1    1    2 2   
     2    1    3 1   
     3    1   39 1   
     4    3    4 1   
     5    3    6 2   
     6    4    5 1   
     7    4    9 2   
     8    5   40 1   
     9    5   41 1   
    10    5   42 1   
    11    6    7 1   
    12    6    8 1   
    13    7   43 1   
    14    7   44 1   
    15    7   45 1   
    16    8    9 1   
    17    8   46 1   
    18    9   10 1   
    19   10   11 2   
    20   10   47 1   
    21   11   12 1   
    22   11   14 1   
    23   12   13 ar  
    24   12   17 ar  
    25   13   20 ar  
    26   13   48 1   
    27   14   15 2   
    28   14   16 1   
    29   16   17 1   
    30   16   49 1   
    31   17   18 ar  
    32   18   19 ar  
    33   18   50 1   
    34   19   20 ar  
    35   19   51 1   
    36   20   21 1   
    37   21   22 2   
    38   21   23 2   
    39   21   24 1   
    40   24   25 1   
    41   24   26 1   
    42   25   52 1   
    43   25   53 1   
    44   25   54 1   
    45   26   27 ar  
    46   26   32 ar  
    47   27   28 ar  
    48   27   55 1   
    49   28   29 1   
    50   28   30 ar  
    51   30   31 ar  
    52   30   57 1   
    53   31   32 ar  
    54   31   58 1   
    55   32   56 1   
    56   33   34 1   
    57   33   39 1   
    58   33   59 1   
    59   33   60 1   
    60   34   35 1   
    61   34   61 1   
    62   34   62 1   
    63   35   36 1   
    64   35   37 1   
    65   36   63 1   
    66   36   64 1   
    67   36   65 1   
    68   37   38 1   
    69   37   66 1   
    70   37   67 1   
    71   38   39 1   
    72   38   68 1   
    73   38   69 1   
@<TRIPOS>SUBSTRUCTURE
     1 274         1 TEMP              0 ****  ****    0 ROOT
