@<TRIPOS>MOLECULE
274
   69    73     1     0     0
SMALL
bcc


@<TRIPOS>ATOM
      1 C22         1.7550    1.8440    1.2590 c         1 274      0.696700
      2 O4          0.6450    1.4780    1.6950 o         1 274     -0.596100
      3 C19         2.9790    1.0850    1.5630 cc        1 274     -0.234600
      4 C18         3.4250    0.7410    2.8740 cc        1 274     -0.025300
      5 C21         2.7860    1.1150    4.1380 c3        1 274     -0.051800
      6 C20         3.8750    0.4890    0.6350 cd        1 274     -0.022600
      7 C23         3.8040    0.5220   -0.8390 c3        1 274     -0.050800
      8 N3          4.8500   -0.1800    1.3460 na        1 274     -0.133100
      9 C17         4.6070   -0.0430    2.7190 cd        1 274     -0.164100
     10 C16         5.3770   -0.5760    3.7930 cf        1 274      0.066800
     11 C14         6.5130   -1.3020    3.8130 cc        1 274     -0.179400
     12 C12         7.1690   -1.7660    5.0450 ca        1 274     -0.123800
     13 C9          6.8580   -1.6110    6.3770 ca        1 274      0.029000
     14 C15         7.3720   -1.8120    2.6980 c         1 274      0.727700
     15 O3          7.2620   -1.6960    1.4690 o         1 274     -0.635500
     16 N2          8.4560   -2.5260    3.2740 n         1 274     -0.471100
     17 C13         8.3470   -2.5100    4.6640 ca        1 274      0.124600
     18 C11         9.1710   -3.0840    5.6340 ca        1 274     -0.199000
     19 C10         8.8210   -2.9050    6.9720 ca        1 274      0.027000
     20 C8          7.6910   -2.1780    7.3630 ca        1 274     -0.428500
     21 S1          7.3000   -2.0250    8.9860 sy        1 274      1.513200
     22 O1          5.9190   -1.7640    9.0990 o         1 274     -0.649800
     23 O2          7.7800   -3.1570    9.6810 o         1 274     -0.649800
     24 N1          8.1720   -0.7090    9.4680 nh        1 274     -0.675900
     25 C7          9.3990   -0.8880   10.1980 c3        1 274      0.194100
     26 C3          7.8560    0.6190    9.1040 ca        1 274      0.155600
     27 C1          8.8660    1.4960    8.6530 ca        1 274     -0.148000
     28 C2          8.5440    2.8080    8.3070 ca        1 274      0.031400
     29 CL1         9.7750    3.8510    7.7660 cl        1 274     -0.093400
     30 C4          7.2310    3.2770    8.3950 ca        1 274     -0.137000
     31 C5          6.2360    2.4120    8.8420 ca        1 274     -0.107000
     32 C6          6.5310    1.1000    9.2020 ca        1 274     -0.157000
     33 C24         0.6570    3.7370    0.1380 c3        1 274      0.077500
     34 C27         0.6320    5.1030    0.8550 c3        1 274      0.141800
     35 N5          1.8670    5.8560    0.6860 n3        1 274     -0.732600
     36 C28         1.8440    7.1190    1.3890 c3        1 274      0.157100
     37 C26         3.0510    5.0700    0.9960 c3        1 274      0.141800
     38 C25         3.0720    3.7040    0.2740 c3        1 274      0.077500
     39 N4          1.8450    2.9520    0.4060 n         1 274     -0.453800
     40 H211        3.3820    1.9050    4.6620 hc        1 274      0.057367
     41 H212        1.7550    1.5090    3.9480 hc        1 274      0.057367
     42 H213        2.7020    0.2300    4.8170 hc        1 274      0.057367
     43 H231        2.8250    0.0930   -1.1730 hc        1 274      0.063700
     44 H232        3.8630    1.5830   -1.1940 hc        1 274      0.063700
     45 H233        4.6300   -0.0610   -1.3170 hc        1 274      0.063700
     46 H3          5.5980   -0.6980    0.9460 hn        1 274      0.335700
     47 H16         4.9330   -0.3280    4.7840 ha        1 274      0.149000
     48 H9          5.9530   -1.0600    6.6880 ha        1 274      0.158000
     49 H2          9.1670   -2.9810    2.7640 hn        1 274      0.347500
     50 H11        10.0630   -3.6620    5.3600 ha        1 274      0.150000
     51 H10         9.4520   -3.3690    7.7520 ha        1 274      0.153000
     52 H7C1       10.2790   -0.9370    9.5000 h1        1 274      0.053367
     53 H7C2        9.3490   -1.8450   10.7870 h1        1 274      0.053367
     54 H7C3        9.5600   -0.0370   10.9110 h1        1 274      0.053367
     55 H1          9.9100    1.1520    8.5760 ha        1 274      0.151000
     56 H6          5.7180    0.4420    9.5580 ha        1 274      0.175000
     57 H4          6.9870    4.3140    8.1210 ha        1 274      0.150000
     58 H5          5.1980    2.7710    8.9220 ha        1 274      0.143000
     59 H241       -0.2600    3.1620    0.4470 h1        1 274      0.065700
     60 H242        0.6190    3.9070   -0.9750 h1        1 274      0.065700
     61 H271       -0.2020    5.7110    0.4060 h1        1 274      0.039200
     62 H272        0.3890    4.9370    1.9450 h1        1 274      0.039200
     63 H281        2.7800    7.6860    1.1420 h1        1 274      0.033033
     64 H282        1.7790    7.0070    2.5060 h1        1 274      0.033033
     65 H283        0.9590    7.7100    1.0380 h1        1 274      0.033033
     66 H261        3.1600    4.8950    2.1060 h1        1 274      0.039200
     67 H262        3.9500    5.6530    0.6500 h1        1 274      0.039200
     68 H251        3.2390    3.8810   -0.8280 h1        1 274      0.065700
     69 H252        3.9430    3.1150    0.6740 h1        1 274      0.065700
@<TRIPOS>BOND
     1    1    2 2   
     2    1    3 1   
     3    1   39 1   
     4    3    4 1   
     5    3    6 2   
     6    4    5 1   
     7    4    9 2   
     8    5   40 1   
     9    5   41 1   
    10    5   42 1   
    11    6    7 1   
    12    6    8 1   
    13    7   43 1   
    14    7   44 1   
    15    7   45 1   
    16    8    9 1   
    17    8   46 1   
    18    9   10 1   
    19   10   11 2   
    20   10   47 1   
    21   11   12 1   
    22   11   14 1   
    23   12   13 ar  
    24   12   17 ar  
    25   13   20 ar  
    26   13   48 1   
    27   14   15 2   
    28   14   16 1   
    29   16   17 1   
    30   16   49 1   
    31   17   18 ar  
    32   18   19 ar  
    33   18   50 1   
    34   19   20 ar  
    35   19   51 1   
    36   20   21 1   
    37   21   22 2   
    38   21   23 2   
    39   21   24 1   
    40   24   25 1   
    41   24   26 1   
    42   25   52 1   
    43   25   53 1   
    44   25   54 1   
    45   26   27 ar  
    46   26   32 ar  
    47   27   28 ar  
    48   27   55 1   
    49   28   29 1   
    50   28   30 ar  
    51   30   31 ar  
    52   30   57 1   
    53   31   32 ar  
    54   31   58 1   
    55   32   56 1   
    56   33   34 1   
    57   33   39 1   
    58   33   59 1   
    59   33   60 1   
    60   34   35 1   
    61   34   61 1   
    62   34   62 1   
    63   35   36 1   
    64   35   37 1   
    65   36   63 1   
    66   36   64 1   
    67   36   65 1   
    68   37   38 1   
    69   37   66 1   
    70   37   67 1   
    71   38   39 1   
    72   38   68 1   
    73   38   69 1   
@<TRIPOS>SUBSTRUCTURE
     1 274         1 TEMP              0 ****  ****    0 ROOT
