@<TRIPOS>MOLECULE
274
   69    73     1     0     0
SMALL
bcc


@<TRIPOS>ATOM
      1 C22        -0.4120    0.5520    0.1800 c         1 274      0.696700
      2 O4          0.7450    0.8330    0.5550 o         1 274     -0.596100
      3 C19        -1.5120    0.4200    1.1480 cc        1 274     -0.234600
      4 C18        -1.5000   -0.4340    2.2910 cc        1 274     -0.025300
      5 C21        -0.4300   -1.3560    2.6780 c3        1 274     -0.051800
      6 C20        -2.7250    1.1610    1.1790 cd        1 274     -0.022600
      7 C23        -3.1710    2.2050    0.2370 c3        1 274     -0.050800
      8 N3         -3.4430    0.7660    2.2880 na        1 274     -0.133100
      9 C17        -2.7240   -0.2130    2.9880 cd        1 274     -0.164100
     10 C16        -3.1140   -0.8850    4.1840 cf        1 274      0.066800
     11 C14        -4.2290   -0.8100    4.9370 cc        1 274     -0.179400
     12 C12        -4.4510   -1.6000    6.1570 ca        1 274     -0.123800
     13 C9         -3.6820   -2.5380    6.8080 ca        1 274      0.029000
     14 C15        -5.4650    0.0220    4.7810 c         1 274      0.727700
     15 O3         -5.7810    0.8530    3.9170 o         1 274     -0.635500
     16 N2         -6.3360   -0.2860    5.8590 ns        1 274     -0.471100
     17 C13        -5.7470   -1.2430    6.6850 ca        1 274      0.124600
     18 C11        -6.2270   -1.8330    7.8550 ca        1 274     -0.199000
     19 C10        -5.4170   -2.7780    8.4840 ca        1 274      0.027000
     20 C8         -4.1630   -3.1470    7.9840 ca        1 274     -0.428500
     21 S1         -3.2180   -4.2640    8.8030 sy        1 274      1.513200
     22 O1         -1.8680   -4.0610    8.4510 o         1 274     -0.649800
     23 O2         -3.5210   -4.1980   10.1810 o         1 274     -0.649800
     24 N1         -3.7490   -5.7150    8.2220 nh        1 274     -0.675900
     25 C7         -4.6530   -6.5150    9.0040 c3        1 274      0.194100
     26 C3         -3.4670   -6.1910    6.9220 ca        1 274      0.155600
     27 C1         -4.4910   -6.7510    6.1280 ca        1 274     -0.148000
     28 C2         -4.1980   -7.2280    4.8500 ca        1 274      0.031400
     29 Cl1        -5.4450   -7.9010    3.9080 cl        1 274     -0.093400
     30 C4         -2.9020   -7.1610    4.3330 ca        1 274     -0.137000
     31 C5         -1.8920   -6.6100    5.1180 ca        1 274     -0.107000
     32 C6         -2.1550   -6.1350    6.3990 ca        1 274     -0.157000
     33 C24         0.3850    0.5090   -2.1460 c3        1 274      0.077500
     34 C27         0.7770   -0.8490   -2.7640 c3        1 274      0.141800
     35 N5         -0.3690   -1.6030   -3.2540 n3        1 274     -0.732600
     36 C28         0.0060   -2.8870   -3.8010 c3        1 274      0.157100
     37 C26        -1.4340   -1.7090   -2.2680 c3        1 274      0.141800
     38 C25        -1.8240   -0.3460   -1.6530 c3        1 274      0.077500
     39 N4         -0.6980    0.4290   -1.1860 n         1 274     -0.453800
     40 H211       -0.1910   -1.2520    3.7660 hc        1 274      0.057367
     41 H212        0.4990   -1.1380    2.0920 hc        1 274      0.057367
     42 H213       -0.7360   -2.4160    2.4850 hc        1 274      0.057367
     43 H231       -3.2600    1.7690   -0.7910 hc        1 274      0.063700
     44 H232       -4.1570    2.6450    0.5250 hc        1 274      0.063700
     45 H233       -2.4100    3.0260    0.2050 hc        1 274      0.063700
     46 H3         -4.3260    1.1320    2.5610 hn        1 274      0.335700
     47 H16        -2.3320   -1.5980    4.5310 ha        1 274      0.149000
     48 H9         -2.6810   -2.8120    6.4290 ha        1 274      0.158000
     49 H2         -7.2170    0.1310    6.0090 hn        1 274      0.347500
     50 H11        -7.2050   -1.5640    8.2750 ha        1 274      0.150000
     51 H10        -5.7730   -3.2410    9.4230 ha        1 274      0.153000
     52 H7C1       -4.4830   -6.3130   10.0980 h1        1 274      0.053367
     53 H7C2       -4.4800   -7.6070    8.8100 h1        1 274      0.053367
     54 H7C3       -5.7230   -6.2760    8.7520 h1        1 274      0.053367
     55 H1         -5.5210   -6.8180    6.5120 ha        1 274      0.151000
     56 H6         -1.3290   -5.7090    6.9970 ha        1 274      0.175000
     57 H4         -2.6800   -7.5410    3.3250 ha        1 274      0.150000
     58 H5         -0.8650   -6.5570    4.7250 ha        1 274      0.143000
     59 H241        1.2990    0.9480   -1.6570 h1        1 274      0.065700
     60 H242        0.0460    1.2010   -2.9680 h1        1 274      0.065700
     61 H271        1.4500   -0.6440   -3.6430 h1        1 274      0.039200
     62 H272        1.3700   -1.4370   -2.0040 h1        1 274      0.039200
     63 H281        0.4490   -3.5850   -3.0380 h1        1 274      0.033033
     64 H282       -0.9030   -3.3710   -4.2420 h1        1 274      0.033033
     65 H283        0.7610   -2.7240   -4.6140 h1        1 274      0.033033
     66 H261       -1.1630   -2.4200   -1.4330 h1        1 274      0.039200
     67 H262       -2.3430   -2.1220   -2.7880 h1        1 274      0.039200
     68 H251       -2.3490    0.2680   -2.4410 h1        1 274      0.065700
     69 H252       -2.5470   -0.5400   -0.8140 h1        1 274      0.065700
@<TRIPOS>BOND
     1    1    2 2   
     2    1    3 1   
     3    1   39 1   
     4    3    4 1   
     5    3    6 2   
     6    4    5 1   
     7    4    9 2   
     8    5   40 1   
     9    5   41 1   
    10    5   42 1   
    11    6    7 1   
    12    6    8 1   
    13    7   43 1   
    14    7   44 1   
    15    7   45 1   
    16    8    9 1   
    17    8   46 1   
    18    9   10 1   
    19   10   11 2   
    20   10   47 1   
    21   11   12 1   
    22   11   14 1   
    23   12   13 ar  
    24   12   17 ar  
    25   13   20 ar  
    26   13   48 1   
    27   14   15 2   
    28   14   16 1   
    29   16   17 1   
    30   16   49 1   
    31   17   18 ar  
    32   18   19 ar  
    33   18   50 1   
    34   19   20 ar  
    35   19   51 1   
    36   20   21 1   
    37   21   22 2   
    38   21   23 2   
    39   21   24 1   
    40   24   25 1   
    41   24   26 1   
    42   25   52 1   
    43   25   53 1   
    44   25   54 1   
    45   26   27 ar  
    46   26   32 ar  
    47   27   28 ar  
    48   27   55 1   
    49   28   29 1   
    50   28   30 ar  
    51   30   31 ar  
    52   30   57 1   
    53   31   32 ar  
    54   31   58 1   
    55   32   56 1   
    56   33   34 1   
    57   33   39 1   
    58   33   59 1   
    59   33   60 1   
    60   34   35 1   
    61   34   61 1   
    62   34   62 1   
    63   35   36 1   
    64   35   37 1   
    65   36   63 1   
    66   36   64 1   
    67   36   65 1   
    68   37   38 1   
    69   37   66 1   
    70   37   67 1   
    71   38   39 1   
    72   38   68 1   
    73   38   69 1   
@<TRIPOS>SUBSTRUCTURE
     1 274         1 TEMP              0 ****  ****    0 ROOT
