@<TRIPOS>MOLECULE
274
   69    63     1     0     0
SMALL
bcc


@<TRIPOS>ATOM
      1 C22         4.9740   -1.5210    0.5290 c1        1 274      0.370000
      2 O4          5.2440   -2.2720    1.4300 o         1 274     -0.356000
      3 C19         3.4870   -0.9610    0.3850 c1        1 274     -0.115000
      4 C18         2.4040   -1.3690    1.1120 c1        1 274     -0.115000
      5 C21         2.4360   -2.2740    2.3340 c2        1 274     -0.177000
      6 C20         3.0410   -0.0800   -0.5820 c1        1 274     -0.060000
      7 C23         3.9170    0.7180   -1.5320 c2        1 274     -0.177000
      8 N3          1.6800    0.0500   -0.4430 n2        1 274     -0.132000
      9 C17         1.2810   -0.7390    0.5950 c1        1 274     -0.060000
     10 C16        -0.1450   -0.8620    1.1330 c1        1 274      0.056000
     11 C14        -0.7090    0.1920    1.9010 c1        1 274     -0.175000
     12 C12        -1.7670    0.6990    1.3240 c1        1 274     -0.111000
     13 C9         -3.1050    0.3450    1.2020 c2        1 274      0.018000
     14 C15         0.2060    1.5690    2.2110 c2        1 274      0.366000
     15 O3         -0.1920    2.3890    3.0330 o         1 274     -0.360000
     16 N2          0.2720    2.0020    1.1980 n         1 274     -0.325000
     17 C13        -1.2900    1.8860    0.7140 c2        1 274      0.131000
     18 C11        -2.1580    2.6900   -0.0020 c2        1 274     -0.197000
     19 C10        -3.5170    2.3280   -0.1260 c1        1 274      0.031000
     20 C8         -3.9840    1.1620    0.4740 c1        1 274     -0.868000
     21 S1         -5.6550    1.6120    1.0040 s4        1 274      2.071800
     22 O1         -5.8020    1.4920    2.4410 o         1 274     -0.533400
     23 O2         -5.9030    3.0190    0.8150 o         1 274     -0.533400
     24 N1         -6.7780    0.6910    0.2020 n2        1 274     -0.768000
     25 C7         -6.5070    0.2430   -1.1060 c3        1 274     -0.076000
     26 C3         -8.0820    0.5230    0.7510 c2        1 274      0.100000
     27 C1         -8.5620   -0.7320    0.9950 c2        1 274     -0.162000
     28 C2         -9.8210   -0.8960    1.5710 c1        1 274     -0.037000
     29 CL1       -10.4590   -2.4970    1.8320 cl        1 274     -0.016000
     30 C4        -10.5800    0.2080    1.8940 c2        1 274     -0.146000
     31 C5        -10.0910    1.4830    1.6460 c1        1 274     -0.093000
     32 C6         -8.8540    1.6440    1.0800 c1        1 274     -0.167000
     33 C24         7.4430   -1.2990   -0.1540 c3        1 274     -0.038500
     34 C27         8.1070   -1.7840   -1.4510 c3        1 274     -0.094500
     35 N5          7.8860   -0.8910   -2.5330 n3        1 274     -0.258000
     36 C28         8.3960   -1.4600   -3.7270 c3        1 274     -0.119000
     37 C26         6.4880   -0.5740   -2.7090 c3        1 274     -0.094500
     38 C25         5.8330   -0.0950   -1.4060 c3        1 274     -0.038500
     39 N4          6.0680   -0.9750   -0.3400 n3        1 274     -0.312000
     40 H211        3.0820   -1.9360    2.9700 ha        1 274      0.100333
     41 H212        1.5560   -2.2920    2.7450 ha        1 274      0.100333
     42 H213        2.6880   -3.1820    2.0630 ha        1 274      0.100333
     43 H231        4.2540    0.1280   -2.2370 ha        1 274      0.100333
     44 H232        3.3880    1.4420   -1.9360 ha        1 274      0.100333
     45 H233        4.6690    1.1010   -1.0390 ha        1 274      0.100333
     46 H3          1.1390    0.5710   -0.9540 DU        1 274      0.286000
     47 H16        -0.6440   -1.7110    1.0180 ha        1 274      0.149000
     48 H9         -3.4350   -0.4770    1.6240 ha        1 274      0.160000
     49 H2          0.7630    2.7600    1.0140 hn        1 274      0.262000
     50 H11        -1.8290    3.5100   -0.4240 ha        1 274      0.150000
     51 H10        -4.1270    2.8940   -0.6290 ha        1 274      0.149000
     52 H7C1       -5.8040   -0.4410   -1.0790 h1        1 274      0.088000
     53 H7C2       -6.2020    1.0100   -1.6630 h1        1 274      0.088000
     54 H7C3       -7.3290   -0.1430   -1.4990 h1        1 274      0.088000
     55 H1         -8.0580   -1.5280    0.6670 ha        1 274      0.151000
     56 H6         -8.5110    2.5390    0.9070 ha        1 274      0.155000
     57 H4        -11.4730    0.0920    2.3040 ha        1 274      0.150000
     58 H5        -10.6370    2.2770    1.8790 ha        1 274      0.141000
     59 H241        7.5140   -2.0000    0.5170 h1        1 274      0.105250
     60 H242        7.9250   -0.4880    0.1730 h1        1 274      0.105250
     61 H271        9.0770   -1.8710   -1.3010 h1        1 274      0.078750
     62 H272        7.7350   -2.6760   -1.6890 h1        1 274      0.078750
     63 H281        9.3590   -1.6100   -3.6310 h1        1 274      0.072667
     64 H282        7.9520   -2.3040   -3.8980 h1        1 274      0.072667
     65 H283        8.2360   -0.8530   -4.4690 h1        1 274      0.072667
     66 H261        6.0120   -1.3830   -3.0300 h1        1 274      0.078750
     67 H262        6.4050    0.1320   -3.3830 h1        1 274      0.078750
     68 H251        4.8990   -0.0180   -1.5400 h1        1 274      0.105250
     69 H252        6.1960    0.7910   -1.1740 h1        1 274      0.105250
@<TRIPOS>BOND
     1    1    2 1   
     2    1   39 1   
     3    3    4 1   
     4    3    6 1   
     5    4    9 1   
     6    5   40 1   
     7    5   41 1   
     8    5   42 1   
     9    6    8 1   
    10    7   43 1   
    11    7   44 1   
    12    7   45 1   
    13    8    9 1   
    14   10   11 1   
    15   10   47 1   
    16   11   14 1   
    17   12   13 1   
    18   12   17 1   
    19   13   20 1   
    20   13   48 1   
    21   14   15 1   
    22   14   16 1   
    23   16   17 1   
    24   16   49 1   
    25   17   18 1   
    26   18   19 1   
    27   18   50 1   
    28   19   51 1   
    29   20   21 1   
    30   21   22 1   
    31   21   23 1   
    32   24   25 1   
    33   24   26 1   
    34   25   52 1   
    35   25   53 1   
    36   25   54 1   
    37   26   27 1   
    38   26   32 1   
    39   27   28 1   
    40   27   55 1   
    41   28   30 1   
    42   30   31 1   
    43   30   57 1   
    44   31   58 1   
    45   32   56 1   
    46   33   34 1   
    47   33   39 1   
    48   33   59 1   
    49   33   60 1   
    50   34   35 1   
    51   34   61 1   
    52   34   62 1   
    53   35   36 1   
    54   35   37 1   
    55   36   63 1   
    56   36   64 1   
    57   36   65 1   
    58   37   38 1   
    59   37   66 1   
    60   37   67 1   
    61   38   39 1   
    62   38   68 1   
    63   38   69 1   
@<TRIPOS>SUBSTRUCTURE
     1 274         1 TEMP              0 ****  ****    0 ROOT
