@<TRIPOS>MOLECULE
274
   70    73     1     0     0
SMALL
bcc


@<TRIPOS>ATOM
      1 C22        -0.1640    0.9340    0.0260 c         1 274      0.687700
      2 O4          0.8070    1.4770    0.5910 o         1 274     -0.586100
      3 C19        -1.3500    0.5400    0.8100 cc        1 274     -0.234600
      4 C18        -1.3240   -0.2230    2.0050 cc        1 274      0.025700
      5 C21        -0.1450   -0.8200    2.6340 c3        1 274     -0.064800
      6 C20        -2.7020    0.9480    0.5870 cd        1 274      0.030400
      7 C23        -3.2110    1.7950   -0.5090 c3        1 274     -0.065800
      8 N3         -3.4820    0.4360    1.5940 na        1 274     -0.133100
      9 C17        -2.6760   -0.2930    2.4910 cd        1 274     -0.208100
     10 C16        -3.0710   -0.9590    3.6680 cf        1 274      0.127800
     11 C14        -4.2830   -1.1170    4.2630 cc        1 274     -0.258400
     12 C12        -4.4920   -1.8310    5.5260 ca        1 274     -0.094800
     13 C9         -3.6450   -2.4810    6.3720 ca        1 274      0.024000
     14 C15        -5.6200   -0.6340    3.8470 c         1 274      0.732700
     15 O3         -6.0110    0.0060    2.8680 o         1 274     -0.582500
     16 N2         -6.5680   -1.0610    4.8560 n         1 274     -0.434100
     17 C13        -5.9200   -1.7530    5.8390 ca        1 274      0.201600
     18 C11        -6.4170   -2.3480    7.0180 ca        1 274     -0.209000
     19 C10        -5.5290   -2.9920    7.8490 ca        1 274      0.074000
     20 C8         -4.1330   -3.0870    7.5770 ca        1 274     -0.664500
     21 S1         -3.1630   -3.7770    8.5560 s4        1 274      1.677300
     22 O1         -1.8280   -3.6860    8.2880 o         1 274     -0.451900
     23 O2         -3.6260   -4.1250    9.7900 o         1 274     -0.451900
     24 N1         -3.2550   -5.9870    7.6960 nh        1 274     -0.785600
     25 C7         -2.3150   -6.7600    8.5030 c3        1 274      0.096100
     26 C3         -4.5850   -6.5430    7.6810 ca        1 274      0.019600
     27 C1         -5.3260   -6.6170    8.8760 ca        1 274     -0.139000
     28 C2         -6.6260   -7.1290    8.8470 ca        1 274      0.028400
     29 CL1        -7.5150   -7.2100   10.2870 cl        1 274     -0.045400
     30 C4         -7.1970   -7.5740    7.6500 ca        1 274     -0.106000
     31 C5         -6.4570   -7.5010    6.4720 ca        1 274     -0.100000
     32 C6         -5.1590   -6.9950    6.4770 ca        1 274     -0.138000
     33 C24         0.9720    1.1620   -2.1380 c3        1 274      0.075000
     34 C27         1.8140   -0.0230   -2.6560 c3        1 274      0.144300
     35 N5          1.0080   -1.0480   -3.3040 n3        1 274     -0.732600
     36 C28         1.7990   -2.1600   -3.7810 c3        1 274      0.156100
     37 C26        -0.1190   -1.4710   -2.4900 c3        1 274      0.144300
     38 C25        -0.9660   -0.2830   -1.9800 c3        1 274      0.075000
     39 N4         -0.1890    0.7680   -1.3610 n         1 274     -0.447800
     40 H211       -0.1400   -0.6300    3.7370 hc        1 274      0.066367
     41 H212       -0.1290   -1.9270    2.4640 hc        1 274      0.066367
     42 H213        0.7900   -0.3770    2.2000 hc        1 274      0.066367
     43 H231       -4.2750    2.1030   -0.3540 hc        1 274      0.077033
     44 H232       -2.5780    2.7160   -0.5880 hc        1 274      0.077033
     45 H233       -3.1370    1.2370   -1.4790 hc        1 274      0.077033
     46 H3         -4.4610    0.5790    1.6910 hn        1 274      0.336700
     47 H16        -2.2080   -1.4330    4.1920 ha        1 274      0.143000
     48 H9         -2.5630   -2.5400    6.1540 ha        1 274      0.163000
     49 H2         -7.5380   -0.8560    4.8300 hn        1 274      0.365500
     50 H11        -7.4880   -2.2930    7.2690 ha        1 274      0.177000
     51 H10        -5.9100   -3.4580    8.7800 ha        1 274      0.168000
     52 H7C1       -2.6740   -6.7870    9.5670 h1        1 274      0.079700
     53 H7C2       -2.2080   -7.8160    8.1390 h1        1 274      0.079700
     54 H7C3       -1.3120   -6.2550    8.4570 h1        1 274      0.079700
     55 H1         -4.8930   -6.2800    9.8340 ha        1 274      0.173000
     56 H6         -4.5920   -6.9620    5.5330 ha        1 274      0.145000
     57 H4         -8.2200   -7.9860    7.6390 ha        1 274      0.169000
     58 H5         -6.8980   -7.8570    5.5270 ha        1 274      0.159000
     59 H241        1.6410    1.8250   -1.5210 h1        1 274      0.067450
     60 H242        0.5880    1.7530   -3.0180 h1        1 274      0.067450
     61 H271        2.4170   -0.4440   -1.7990 h1        1 274      0.041450
     62 H272        2.5350    0.3790   -3.4210 h1        1 274      0.041450
     63 H281        2.5910   -1.7670   -4.4710 h1        1 274      0.037367
     64 H282        1.1330   -2.8570   -4.3530 h1        1 274      0.037367
     65 H283        2.2990   -2.7370   -2.9550 h1        1 274      0.037367
     66 H261        0.2090   -2.0910   -1.6040 h1        1 274      0.041450
     67 H262       -0.7850   -2.1140   -3.1310 h1        1 274      0.041450
     68 H251       -1.5080    0.1760   -2.8570 h1        1 274      0.067450
     69 H252       -1.7300   -0.6870   -1.2600 h1        1 274      0.067450
     70 H111       -2.9100   -5.9410    6.7470 hn        1 274      0.398800
@<TRIPOS>BOND
     1    1    2 2   
     2    1    3 1   
     3    1   39 1   
     4    3    4 1   
     5    3    6 2   
     6    4    5 1   
     7    4    9 2   
     8    5   40 1   
     9    5   41 1   
    10    5   42 1   
    11    6    7 1   
    12    6    8 1   
    13    7   43 1   
    14    7   44 1   
    15    7   45 1   
    16    8    9 1   
    17    8   46 1   
    18    9   10 1   
    19   10   11 2   
    20   10   47 1   
    21   11   12 1   
    22   11   14 1   
    23   12   13 ar  
    24   12   17 ar  
    25   13   20 ar  
    26   13   48 1   
    27   14   15 2   
    28   14   16 1   
    29   16   17 1   
    30   16   49 1   
    31   17   18 ar  
    32   18   19 ar  
    33   18   50 1   
    34   19   20 ar  
    35   19   51 1   
    36   20   21 1   
    37   21   22 1   
    38   21   23 1   
    39   24   25 1   
    40   24   26 1   
    41   24   70 1   
    42   25   52 1   
    43   25   53 1   
    44   25   54 1   
    45   26   27 ar  
    46   26   32 ar  
    47   27   28 ar  
    48   27   55 1   
    49   28   29 1   
    50   28   30 ar  
    51   30   31 ar  
    52   30   57 1   
    53   31   32 ar  
    54   31   58 1   
    55   32   56 1   
    56   33   34 1   
    57   33   39 1   
    58   33   59 1   
    59   33   60 1   
    60   34   35 1   
    61   34   61 1   
    62   34   62 1   
    63   35   36 1   
    64   35   37 1   
    65   36   63 1   
    66   36   64 1   
    67   36   65 1   
    68   37   38 1   
    69   37   66 1   
    70   37   67 1   
    71   38   39 1   
    72   38   68 1   
    73   38   69 1   
@<TRIPOS>SUBSTRUCTURE
     1 274         1 TEMP              0 ****  ****    0 ROOT
