@<TRIPOS>MOLECULE
275
   20    20     1     0     0
SMALL
bcc


@<TRIPOS>ATOM
      1 C1          2.5700    0.9070    0.0260 c3        1 275     -0.079800
      2 C2          1.1210    0.5620    0.0070 ca        1 275     -0.031600
      3 C3          0.1480    1.5920   -0.0180 ca        1 275     -0.093000
      4 C4         -1.2000    1.3040   -0.0360 ca        1 275     -0.113000
      5 C5         -1.6320   -0.0600   -0.0300 ca        1 275      0.216600
      6 N6         -2.9490   -0.4000   -0.0460 nh        1 275     -0.840200
      7 C7         -0.6180   -1.0610   -0.0040 ca        1 275     -0.175300
      8 N8          0.7100   -0.7440    0.0130 na        1 275      0.089900
      9 C9          1.7000   -1.8110    0.0380 c3        1 275     -0.032400
     10 H11         3.0640    0.5030    0.9470 hc        1 275      0.087033
     11 H12         3.0920    0.4860   -0.8720 hc        1 275      0.087033
     12 H13         2.6980    2.0190    0.0170 hc        1 275      0.087033
     13 H3          0.4970    2.6400   -0.0230 ha        1 275      0.192000
     14 H4         -1.9430    2.1210   -0.0550 ha        1 275      0.184000
     15 H61        -3.6440    0.3080   -0.0640 hn        1 275      0.462800
     16 H62        -3.2280   -1.3510   -0.0420 hn        1 275      0.462800
     17 H7         -0.8750   -2.1380    0.0020 h4        1 275      0.199000
     18 H91         2.3290   -1.7080    0.9650 h1        1 275      0.098367
     19 H92         1.1960   -2.8140    0.0400 h1        1 275      0.098367
     20 H93         2.3570   -1.7260   -0.8710 h1        1 275      0.098367
@<TRIPOS>BOND
     1    1    2 1   
     2    1   10 1   
     3    1   11 1   
     4    1   12 1   
     5    2    3 ar  
     6    2    8 2   
     7    3    4 ar  
     8    3   13 1   
     9    4    5 ar  
    10    4   14 1   
    11    5    6 1   
    12    5    7 ar  
    13    6   15 1   
    14    6   16 1   
    15    7    8 1   
    16    7   17 1   
    17    8    9 1   
    18    9   18 1   
    19    9   19 1   
    20    9   20 1   
@<TRIPOS>SUBSTRUCTURE
     1 275         1 TEMP              0 ****  ****    0 ROOT
