@<TRIPOS>MOLECULE
275
   20    18     1     0     0
SMALL
bcc


@<TRIPOS>ATOM
      1 C1         -2.4760    0.0070    0.4160 c3        1 275     -0.205000
      2 C2         -0.9620    0.0070    0.4160 c2        1 275      0.000000
      3 C3         -0.2690    0.0070    1.6170 c2        1 275     -0.093000
      4 C4          1.0960    0.0070    1.6170 c1        1 275     -0.113000
      5 C5          1.7770    0.0070    0.4350 c1        1 275      0.135000
      6 N6          3.1980    0.0030    0.4330 n3        1 275     -0.349000
      7 C7          1.0820    0.0070   -0.7640 c1        1 275     -0.151000
      8 N8         -0.2820    0.0070   -0.7630 n2        1 275      0.022000
      9 C9         -0.9940   -0.0190   -1.9950 c3        1 275     -0.131000
     10 H11        -2.8010    0.7980   -0.0540 hc        1 275      0.126333
     11 H12        -2.8010   -0.7960   -0.0340 hc        1 275      0.126333
     12 H13        -2.8010    0.0180    1.3360 hc        1 275      0.126333
     13 H3         -0.7570    0.0070    2.4630 ha        1 275      0.192000
     14 H4          1.5850    0.0070    2.4620 ha        1 275      0.184000
     15 H61         3.6560    0.7920    0.4280 hn        1 275      0.258000
     16 H62         3.6520   -0.7880    0.4280 hn        1 275      0.258000
     17 H7          1.5690    0.0070   -1.6100 ha        1 275      0.199000
     18 H91        -1.5640    0.7710   -2.0580 h1        1 275      0.137667
     19 H92        -0.3600   -0.0230   -2.7380 h1        1 275      0.137667
     20 H93        -1.5470   -0.8220   -2.0350 h1        1 275      0.137667
@<TRIPOS>BOND
     1    1    2 1   
     2    1   10 1   
     3    1   11 1   
     4    1   12 1   
     5    2    3 1   
     6    2    8 1   
     7    3    4 1   
     8    3   13 1   
     9    4   14 1   
    10    5    6 1   
    11    5    7 1   
    12    6   15 1   
    13    6   16 1   
    14    7   17 1   
    15    8    9 1   
    16    9   18 1   
    17    9   19 1   
    18    9   20 1   
@<TRIPOS>SUBSTRUCTURE
     1 275         1 TEMP              0 ****  ****    0 ROOT
