@<TRIPOS>MOLECULE
275
   21    21     1     0     0
SMALL
bcc


@<TRIPOS>ATOM
      1 C1         -0.0320   -0.0420    0.0270 c3        1 275     -0.119800
      2 C2          1.4530   -0.0250    0.0070 ca        1 275      0.116400
      3 C3          2.1810   -0.0620    1.2240 ca        1 275     -0.122000
      4 C4          3.5660   -0.0480    1.2320 ca        1 275      0.005000
      5 C5          4.2480    0.0050   -0.0110 ca        1 275     -0.085400
      6 N6          5.7070    0.0210   -0.0440 n4        1 275     -0.703000
      7 C7          3.5080    0.0410   -1.2060 ca        1 275      0.011700
      8 N8          2.1400    0.0260   -1.1900 na        1 275      0.034900
      9 C9          1.3980    0.0660   -2.4510 c3        1 275     -0.043400
     10 H11        -0.4330   -0.9410   -0.5170 hc        1 275      0.126367
     11 H12        -0.4110   -0.0750    1.0830 hc        1 275      0.126367
     12 H13        -0.4540    0.8770   -0.4680 hc        1 275      0.126367
     13 H3          1.6150   -0.1040    2.1790 ha        1 275      0.236000
     14 H4          4.1130   -0.0780    2.1970 ha        1 275      0.215000
     15 H61         6.0580    0.0590   -1.0120 hn        1 275      0.492800
     16 H62         6.0750   -0.8320    0.4100 hn        1 275      0.492800
     17 H7          3.9900    0.0830   -2.2120 h4        1 275      0.227000
     18 H91         2.1030    0.0960   -3.3250 h1        1 275      0.122700
     19 H92         0.7520   -0.8550   -2.5240 h1        1 275      0.122700
     20 H93         0.7470    0.9860   -2.4640 h1        1 275      0.122700
     21 H63         6.0570    0.8480    0.4680 hn        1 275      0.492800
@<TRIPOS>BOND
     1    1    2 1   
     2    1   10 1   
     3    1   11 1   
     4    1   12 1   
     5    2    3 ar  
     6    2    8 2   
     7    3    4 ar  
     8    3   13 1   
     9    4    5 ar  
    10    4   14 1   
    11    5    6 1   
    12    5    7 ar  
    13    6   15 1   
    14    6   16 1   
    15    6   21 1   
    16    7    8 1   
    17    7   17 1   
    18    8    9 1   
    19    9   18 1   
    20    9   19 1   
    21    9   20 1   
@<TRIPOS>SUBSTRUCTURE
     1 275         1 TEMP              0 ****  ****    0 ROOT
