@<TRIPOS>MOLECULE
275
   20    20     1     0     0
SMALL
bcc


@<TRIPOS>ATOM
      1 C1         -0.0220   -0.0620    0.0180 c3        1 275     -0.079800
      2 C2          1.4670   -0.0450   -0.0050 ca        1 275     -0.031600
      3 C3          2.1950   -0.1260    1.2090 ca        1 275     -0.093000
      4 C4          3.5730   -0.1130    1.2200 ca        1 275     -0.113000
      5 C5          4.2900   -0.0150   -0.0160 ca        1 275      0.216600
      6 N6          5.6490    0.0020   -0.0620 nh        1 275     -0.840200
      7 C7          3.5160    0.0640   -1.2090 ca        1 275     -0.175300
      8 N8          2.1510    0.0480   -1.1870 na        1 275      0.089900
      9 C9          1.4140    0.1330   -2.4410 c3        1 275     -0.032400
     10 H11        -0.4190   -0.9420   -0.5520 hc        1 275      0.087033
     11 H12        -0.4400    0.8740   -0.4370 hc        1 275      0.087033
     12 H13        -0.3870   -0.1330    1.0730 hc        1 275      0.087033
     13 H3          1.6280   -0.2010    2.1540 ha        1 275      0.192000
     14 H4          4.1220   -0.1770    2.1750 ha        1 275      0.184000
     15 H61         6.1260    0.0700   -0.9270 hn        1 275      0.462800
     16 H62         6.1750   -0.0540    0.7770 hn        1 275      0.462800
     17 H7          3.9990    0.1410   -2.2030 h4        1 275      0.199000
     18 H91         0.7670   -0.7800   -2.5500 h1        1 275      0.098367
     19 H92         0.7650    1.0510   -2.4250 h1        1 275      0.098367
     20 H93         2.1220    0.1930   -3.3100 h1        1 275      0.098367
@<TRIPOS>BOND
     1    1    2 1   
     2    1   10 1   
     3    1   11 1   
     4    1   12 1   
     5    2    3 ar  
     6    2    8 2   
     7    3    4 ar  
     8    3   13 1   
     9    4    5 ar  
    10    4   14 1   
    11    5    6 1   
    12    5    7 ar  
    13    6   15 1   
    14    6   16 1   
    15    7    8 1   
    16    7   17 1   
    17    8    9 1   
    18    9   18 1   
    19    9   19 1   
    20    9   20 1   
@<TRIPOS>SUBSTRUCTURE
     1 275         1 TEMP              0 ****  ****    0 ROOT
