@<TRIPOS>MOLECULE
275
   20    20     1     0     0
SMALL
bcc


@<TRIPOS>ATOM
      1 C1         -0.0190   -0.0560    0.0370 c3        1 275     -0.079800
      2 C2          1.4710   -0.0410    0.0030 ca        1 275     -0.031600
      3 C3          2.2080   -0.1150    1.2110 ca        1 275     -0.093000
      4 C4          3.5860   -0.1030    1.2110 ca        1 275     -0.113000
      5 C5          4.2930   -0.0140   -0.0300 ca        1 275      0.216600
      6 N6          5.6520    0.0010   -0.0860 nv        1 275     -0.840200
      7 C7          3.5100    0.0580   -1.2180 ca        1 275     -0.175300
      8 N8          2.1450    0.0440   -1.1860 na        1 275      0.089900
      9 C9          1.3990    0.1200   -2.4340 c3        1 275     -0.032400
     10 H11        -0.3760   -0.1230    1.0950 hc        1 275      0.087033
     11 H12        -0.4380    0.8780   -0.4180 hc        1 275      0.087033
     12 H13        -0.4210   -0.9380   -0.5270 hc        1 275      0.087033
     13 H3          1.6480   -0.1820    2.1610 ha        1 275      0.192000
     14 H4          4.1420   -0.1610    2.1630 ha        1 275      0.184000
     15 H61         6.1840   -0.0490    0.7490 hn        1 275      0.462800
     16 H62         6.1230    0.0630   -0.9560 hn        1 275      0.462800
     17 H7          3.9860    0.1280   -2.2160 h4        1 275      0.199000
     18 H91         2.1010    0.1780   -3.3080 h1        1 275      0.098367
     19 H92         0.7530   -0.7950   -2.5340 h1        1 275      0.098367
     20 H93         0.7480    1.0380   -2.4180 h1        1 275      0.098367
@<TRIPOS>BOND
     1    1    2 1   
     2    1   10 1   
     3    1   11 1   
     4    1   12 1   
     5    2    3 ar  
     6    2    8 2   
     7    3    4 ar  
     8    3   13 1   
     9    4    5 ar  
    10    4   14 1   
    11    5    6 1   
    12    5    7 ar  
    13    6   15 1   
    14    6   16 1   
    15    7    8 1   
    16    7   17 1   
    17    8    9 1   
    18    9   18 1   
    19    9   19 1   
    20    9   20 1   
@<TRIPOS>SUBSTRUCTURE
     1 275         1 TEMP              0 ****  ****    0 ROOT
