@<TRIPOS>MOLECULE
276
   47    36     1     0     0
SMALL
bcc


@<TRIPOS>ATOM
      1 C1          1.8340    2.8100    3.0390 c1        1 276     -0.228000
      2 C2          0.8620    3.2460    3.9370 c1        1 276     -0.045000
      3 N3          0.3560    2.3810    4.8750 n1        1 276     -0.155000
      4 C4          0.8050    1.0890    4.9290 c1        1 276     -0.039667
      5 C5          1.7760    0.6520    4.0330 c1        1 276     -0.109000
      6 C6          2.2840    1.5190    3.0920 c1        1 276      0.100000
      7 C10         0.1800    0.0940    5.9460 c1        1 276      0.351000
      8 O11         0.5030   -1.1020    5.9210 o         1 276     -0.368000
      9 N12        -0.8660    0.5360    6.8230 n2        1 276     -0.360000
     10 C13        -1.5490   -0.3890    7.6250 c3        1 276     -0.080000
     11 O17         3.3060    1.0930    2.2240 os        1 276     -0.149000
     12 C18         2.7670    0.8950    0.9240 c2        1 276      0.046000
     13 C19         2.2580   -0.3090    0.4920 c2        1 276     -0.148000
     14 C20         1.8120   -0.4480   -0.8380 c1        1 276     -0.019000
     15 C21         1.8840    0.6110   -1.6950 c1        1 276     -0.039667
     16 C22         2.4040    1.8400   -1.2540 c1        1 276     -0.109000
     17 C23         2.8410    1.9760    0.0470 c1        1 276     -0.141000
     18 N27         1.2360   -1.4900   -1.5080 n1        1 276     -0.204000
     19 C28         0.9530   -1.0700   -2.7820 c1        1 276      0.110000
     20 N29         1.3500    0.2190   -2.8980 n1        1 276     -0.204000
     21 N32         0.5270   -1.8890   -3.8710 n2        1 276     -0.201000
     22 C33        -0.5970   -1.5180   -4.6360 c2        1 276      0.007000
     23 C34        -1.8380   -2.0560   -4.3440 c2        1 276     -0.087000
     24 C35        -2.9630   -1.6370   -5.0480 c1        1 276     -0.144000
     25 C36        -2.8390   -0.6780   -6.0450 c1        1 276     -0.039667
     26 C37        -1.5890   -0.1380   -6.3360 c1        1 276     -0.109000
     27 C38        -0.4710   -0.5590   -5.6310 c1        1 276     -0.117000
     28 C43        -4.3520   -2.2390   -4.7110 c3        1 276      0.471000
     29 CL44       -4.2220   -0.1420   -6.8960 cl        1 276      0.034000
     30 F45        -4.4110   -2.5220   -3.3880 f         1 276     -0.157667
     31 F46        -5.3140   -1.3490   -5.0230 f         1 276     -0.157667
     32 F47        -4.5370   -3.3730   -5.4210 f         1 276     -0.157667
     33 H1          2.1950    3.4270    2.3710 ha        1 276      0.161000
     34 H2          0.5380    4.1750    3.8990 ha        1 276      0.164000
     35 H5          2.0980   -0.2730    4.0710 ha        1 276      0.169000
     36 HN12       -1.0950    1.3950    6.8430 hn        1 276      0.241000
     37 H131       -2.0980   -0.9570    7.0660 h1        1 276      0.085000
     38 H132       -2.1230    0.0930    8.2690 h1        1 276      0.085000
     39 H133       -0.9070   -0.9320    8.1080 h1        1 276      0.085000
     40 H19         2.2920   -1.0890    1.0780 ha        1 276      0.156000
     41 H22         2.4540    2.5920   -1.8630 ha        1 276      0.169000
     42 H23         3.2360    2.8320    0.3500 ha        1 276      0.155000
     43 HN27        1.0710   -2.3090   -1.1710 DU        1 276      0.263000
     44 HN32        0.9850   -2.6400   -4.0770 hn        1 276      0.229000
     45 H34        -1.9250   -2.7320   -3.6430 ha        1 276      0.166000
     46 H37        -1.4970    0.5540   -7.0540 ha        1 276      0.169000
     47 H38         0.3850   -0.1890   -5.8300 ha        1 276      0.153000
@<TRIPOS>BOND
     1    1    6 1   
     2    1   33 1   
     3    2    3 1   
     4    2   34 1   
     5    4    5 1   
     6    5   35 1   
     7    6   11 1   
     8    7    8 1   
     9    9   10 1   
    10    9   36 1   
    11   10   37 1   
    12   10   38 1   
    13   10   39 1   
    14   11   12 1   
    15   12   13 1   
    16   12   17 1   
    17   13   14 1   
    18   13   40 1   
    19   15   16 1   
    20   16   41 1   
    21   17   42 1   
    22   18   19 1   
    23   19   20 1   
    24   21   22 1   
    25   21   44 1   
    26   22   23 1   
    27   22   27 1   
    28   23   24 1   
    29   23   45 1   
    30   24   28 1   
    31   25   26 1   
    32   26   46 1   
    33   27   47 1   
    34   28   30 1   
    35   28   31 1   
    36   28   32 1   
@<TRIPOS>SUBSTRUCTURE
     1 276         1 TEMP              0 ****  ****    0 ROOT
