@<TRIPOS>MOLECULE
276
   49    52     1     0     0
SMALL
bcc


@<TRIPOS>ATOM
      1 C1         -0.3950    1.3280    0.5370 ca        1 276     -0.245300
      2 C2          0.5150    2.0610    1.3370 ca        1 276      0.455200
      3 N3          1.5240    1.5060    2.0140 nb        1 276     -0.691000
      4 C4          1.6730    0.1520    1.9220 ca        1 276      0.321800
      5 C5          0.8320   -0.6780    1.1670 ca        1 276     -0.154300
      6 C6         -0.2250   -0.0530    0.4580 ca        1 276      0.150100
      7 C10         2.7830   -0.5040    2.6590 c         1 276      0.457600
      8 O11         3.0330   -1.6990    2.6850 o         1 276     -0.396100
      9 N12         3.6920    0.4100    3.4530 n4        1 276     -0.654800
     10 C13         4.7780   -0.3090    4.1560 c3        1 276      0.079100
     11 O17        -0.9650   -0.9140   -0.3290 os        1 276     -0.224200
     12 C18        -2.2380   -0.5110   -0.7380 ca        1 276      0.134100
     13 C19        -2.5650   -0.8610   -2.0460 ca        1 276     -0.130000
     14 C20        -3.8930   -0.6190   -2.4310 ca        1 276     -0.019200
     15 C21        -4.8550   -0.0160   -1.5190 ca        1 276      0.051400
     16 C22        -4.4600    0.3290   -0.2100 ca        1 276     -0.012000
     17 C23        -3.1560    0.0770    0.1670 ca        1 276     -0.175000
     18 N27        -4.5770   -0.8780   -3.6190 na        1 276     -0.236300
     19 C28        -5.8990   -0.4150   -3.3980 cc        1 276      0.402700
     20 N29        -6.0970    0.1020   -2.1520 nd        1 276     -0.469100
     21 N32        -6.9710   -0.5340   -4.3960 n4        1 276     -0.541400
     22 C33        -6.5100   -0.3250   -5.7730 ca        1 276     -0.088400
     23 C34        -6.0140   -1.4120   -6.5090 ca        1 276     -0.066000
     24 C35        -5.6090   -1.2250   -7.8310 ca        1 276     -0.155300
     25 C36        -5.7080    0.0440   -8.4280 ca        1 276      0.107400
     26 C37        -6.2060    1.1240   -7.6740 ca        1 276     -0.111000
     27 C38        -6.6020    0.9540   -6.3550 ca        1 276     -0.056000
     28 C43        -5.0610   -2.4460   -8.5930 c3        1 276      0.695200
     29 CL44       -5.2540    0.3260  -10.0180 cl        1 276      0.048600
     30 F45        -5.0280   -3.5890   -7.8310 f         1 276     -0.209633
     31 F46        -5.7900   -2.7860   -9.6980 f         1 276     -0.209633
     32 F47        -3.7700   -2.2890   -9.0220 f         1 276     -0.209633
     33 H1         -1.2010    1.8460   -0.0040 ha        1 276      0.183000
     34 H2          0.4200    3.1630    1.4270 h4        1 276      0.065100
     35 H5          0.9800   -1.7700    1.1110 ha        1 276      0.202000
     36 HN12        3.1140    0.9210    4.1350 hn        1 276      0.475300
     37 H131        5.4030    0.4370    4.7180 hx        1 276      0.117367
     38 H132        5.4140   -0.8560    3.4080 hx        1 276      0.117367
     39 H133        4.3360   -1.0560    4.8700 hx        1 276      0.117367
     40 H19        -1.8290   -1.3250   -2.7170 ha        1 276      0.182000
     41 H22        -5.1850    0.7750    0.4900 ha        1 276      0.184000
     42 H23        -2.8230    0.3110    1.1910 ha        1 276      0.165000
     43 HN27       -4.1930   -1.2030   -4.4720 hn        1 276      0.336700
     44 HN32       -7.6990    0.1670   -4.1710 hn        1 276      0.488800
     45 H34        -5.9500   -2.4260   -6.0690 ha        1 276      0.180000
     46 H37        -6.2880    2.1240   -8.1410 ha        1 276      0.198000
     47 H38        -6.9880    1.8210   -5.7900 ha        1 276      0.176000
     48 H122        4.0940    1.1020    2.8050 hn        1 276      0.475300
     49 H322       -7.3810   -1.4790   -4.3100 hn        1 276      0.488800
@<TRIPOS>BOND
     1    1    2 ar  
     2    1    6 ar  
     3    1   33 1   
     4    2    3 ar  
     5    2   34 1   
     6    3    4 ar  
     7    4    5 ar  
     8    4    7 1   
     9    5    6 ar  
    10    5   35 1   
    11    6   11 1   
    12    7    8 2   
    13    7    9 1   
    14    9   10 1   
    15    9   36 1   
    16    9   48 1   
    17   10   37 1   
    18   10   38 1   
    19   10   39 1   
    20   11   12 1   
    21   12   13 ar  
    22   12   17 ar  
    23   13   14 ar  
    24   13   40 1   
    25   14   15 ar  
    26   14   18 1   
    27   15   16 ar  
    28   15   20 1   
    29   16   17 ar  
    30   16   41 1   
    31   17   42 1   
    32   18   19 1   
    33   18   43 1   
    34   19   20 2   
    35   19   21 1   
    36   21   22 1   
    37   21   44 1   
    38   21   49 1   
    39   22   23 ar  
    40   22   27 ar  
    41   23   24 ar  
    42   23   45 1   
    43   24   25 ar  
    44   24   28 1   
    45   25   26 ar  
    46   25   29 1   
    47   26   27 ar  
    48   26   46 1   
    49   27   47 1   
    50   28   30 1   
    51   28   31 1   
    52   28   32 1   
@<TRIPOS>SUBSTRUCTURE
     1 276         1 TEMP              0 ****  ****    0 ROOT
