@<TRIPOS>MOLECULE
276
   47    50     1     0     0
SMALL
bcc


@<TRIPOS>ATOM
      1 C1         -5.0620    1.5050   -0.3700 ca        1 276     -0.291300
      2 C2         -6.2900    2.1770   -0.5240 ca        1 276      0.421200
      3 N3         -7.4910    1.5990   -0.3680 nb        1 276     -0.679000
      4 C4         -7.5130    0.2820   -0.0380 ca        1 276      0.377800
      5 C5         -6.3520   -0.4900    0.1430 ca        1 276     -0.209300
      6 C6         -5.1090    0.1490   -0.0320 ca        1 276      0.143100
      7 C10        -8.8320   -0.4270    0.1750 c         1 276      0.566600
      8 O11        -8.8630   -1.4770    0.8500 o         1 276     -0.608100
      9 N12        -9.9570    0.0870   -0.4250 n         1 276     -0.550900
     10 C13       -11.2530   -0.4810   -0.2200 c3        1 276      0.075300
     11 O17        -4.0010   -0.6500    0.1990 os        1 276     -0.240200
     12 C18        -2.7610   -0.1310   -0.1800 ca        1 276      0.103100
     13 C19        -1.7840   -0.0940    0.8120 ca        1 276     -0.132000
     14 C20        -0.5020    0.2920    0.4020 ca        1 276     -0.060200
     15 C21        -0.2160    0.6450   -0.9790 ca        1 276      0.061400
     16 C22        -1.2440    0.5950   -1.9360 ca        1 276     -0.052000
     17 C23        -2.5080    0.2080   -1.5290 ca        1 276     -0.172000
     18 N27         0.6990    0.4220    1.0960 na        1 276     -0.263300
     19 C28         1.6640    0.8600    0.1420 cc        1 276      0.558700
     20 N29         1.1390    0.9880   -1.1090 nd        1 276     -0.563100
     21 N32         2.9920    1.1650    0.5600 nh        1 276     -0.647600
     22 C33         3.9440    0.1190    0.5200 ca        1 276      0.123600
     23 C34         5.3090    0.4430    0.6770 ca        1 276     -0.120000
     24 C35         6.2750   -0.5600    0.7520 ca        1 276     -0.132300
     25 C36         5.8990   -1.9060    0.6630 ca        1 276      0.032400
     26 C37         4.5480   -2.2320    0.4910 ca        1 276     -0.103000
     27 C38         3.5800   -1.2400    0.4150 ca        1 276     -0.131000
     28 C43         7.7350   -0.1380    0.9300 c3        1 276      0.692200
     29 CL44        7.0250   -3.1700    0.7500 cl        1 276     -0.054400
     30 F45         7.9280    1.2230    0.9940 f         1 276     -0.230633
     31 F46         8.3280   -0.6010    2.0780 f         1 276     -0.230633
     32 F47         8.5730   -0.5340   -0.0830 f         1 276     -0.230633
     33 H1         -4.1100    2.0320   -0.5110 ha        1 276      0.162000
     34 H2         -6.3080    3.2510   -0.7860 h4        1 276      0.029100
     35 H5         -6.4160   -1.5510    0.4270 ha        1 276      0.188000
     36 HN12       -9.9140    0.9720   -0.8720 hn        1 276      0.328500
     37 H131      -11.1620   -1.5120    0.2140 h1        1 276      0.046367
     38 H132      -11.8580    0.1540    0.4820 h1        1 276      0.046367
     39 H133      -11.7900   -0.5400   -1.2050 h1        1 276      0.046367
     40 H19        -2.0150   -0.3700    1.8490 ha        1 276      0.161000
     41 H22        -1.0370    0.8550   -2.9850 ha        1 276      0.158000
     42 H23        -3.3340    0.1510   -2.2530 ha        1 276      0.153000
     43 HN27        0.8400    0.3100    2.0650 hn        1 276      0.319700
     44 HN32        3.3220    2.0130    0.1330 hn        1 276      0.431800
     45 H34         5.6250    1.4980    0.7480 ha        1 276      0.163000
     46 H37         4.2480   -3.2900    0.4090 ha        1 276      0.160000
     47 H38         2.5280   -1.5300    0.2610 ha        1 276      0.156000
@<TRIPOS>BOND
     1    1    2 ar  
     2    1    6 ar  
     3    1   33 1   
     4    2    3 ar  
     5    2   34 1   
     6    3    4 ar  
     7    4    5 ar  
     8    4    7 1   
     9    5    6 ar  
    10    5   35 1   
    11    6   11 1   
    12    7    8 2   
    13    7    9 1   
    14    9   10 1   
    15    9   36 1   
    16   10   37 1   
    17   10   38 1   
    18   10   39 1   
    19   11   12 1   
    20   12   13 ar  
    21   12   17 ar  
    22   13   14 ar  
    23   13   40 1   
    24   14   15 ar  
    25   14   18 1   
    26   15   16 ar  
    27   15   20 1   
    28   16   17 ar  
    29   16   41 1   
    30   17   42 1   
    31   18   19 1   
    32   18   43 1   
    33   19   20 2   
    34   19   21 1   
    35   21   22 1   
    36   21   44 1   
    37   22   23 ar  
    38   22   27 ar  
    39   23   24 ar  
    40   23   45 1   
    41   24   25 ar  
    42   24   28 1   
    43   25   26 ar  
    44   25   29 1   
    45   26   27 ar  
    46   26   46 1   
    47   27   47 1   
    48   28   30 1   
    49   28   31 1   
    50   28   32 1   
@<TRIPOS>SUBSTRUCTURE
     1 276         1 TEMP              0 ****  ****    0 ROOT
