@<TRIPOS>MOLECULE
276
   48    51     1     0     0
SMALL
bcc


@<TRIPOS>ATOM
      1 C1          0.3810    0.3050   -0.0640 ca        1 276     -0.251300
      2 C2          1.7680    0.5000    0.1260 ca        1 276      0.453200
      3 N3          2.3860    0.3580    1.3020 nb        1 276     -0.717000
      4 C4          1.6160    0.0010    2.3730 ca        1 276      0.311800
      5 C5          0.2340   -0.2220    2.3080 ca        1 276     -0.166300
      6 C6         -0.3900   -0.0600    1.0430 ca        1 276      0.170100
      7 C10         2.2610   -0.1670    3.6960 c         1 276      0.464600
      8 O11         1.7310   -0.5000    4.7450 o         1 276     -0.411100
      9 N12         3.7540    0.1090    3.7430 ny        1 276     -0.658800
     10 C13         4.3430   -0.0650    5.0870 c3        1 276      0.080100
     11 O17        -1.7420   -0.2920    1.0360 os        1 276     -0.220200
     12 C18        -2.4020   -0.1020   -0.1910 ca        1 276      0.036100
     13 C19        -2.8440   -1.2480   -0.8560 ca        1 276     -0.106000
     14 C20        -3.6260   -1.0320   -1.9900 ca        1 276     -0.081200
     15 C21        -3.9470    0.3100   -2.4530 ca        1 276      0.113400
     16 C22        -3.4710    1.4230   -1.7460 ca        1 276     -0.070000
     17 C23        -2.6990    1.2070   -0.6120 ca        1 276     -0.147000
     18 N27        -4.1930   -1.9200   -2.9150 na        1 276     -0.290300
     19 C28        -4.9070   -1.0940   -3.8540 cc        1 276      0.624700
     20 N29        -4.7330    0.2410   -3.6150 nd        1 276     -0.593100
     21 N32        -5.7070   -1.6780   -4.8540 nu        1 276     -0.647600
     22 C33        -6.1810   -0.8600   -5.9150 ca        1 276      0.102600
     23 C34        -5.9140   -1.2180   -7.2510 ca        1 276     -0.113000
     24 C35        -6.4540   -0.4810   -8.3070 ca        1 276     -0.147300
     25 C36        -7.2610    0.6320   -8.0420 ca        1 276      0.058400
     26 C37        -7.5230    0.9930   -6.7130 ca        1 276     -0.121000
     27 C38        -6.9970    0.2610   -5.6570 ca        1 276     -0.066000
     28 C43        -6.1290   -0.9280   -9.7340 c3        1 276      0.693200
     29 Cl44       -7.9410    1.5710   -9.2750 cl        1 276     -0.039400
     30 F45        -5.3230   -2.0410   -9.8060 f         1 276     -0.228300
     31 F46        -7.2230   -1.2710  -10.4880 f         1 276     -0.228300
     32 F47        -5.4580    0.0050  -10.4840 f         1 276     -0.228300
     33 H1         -0.0750    0.4410   -1.0570 ha        1 276      0.192000
     34 H2          2.4130    0.7900   -0.7270 h4        1 276      0.055100
     35 H5         -0.3580   -0.5090    3.1920 ha        1 276      0.195000
     36 HN12        3.9080    1.0720    3.4150 hn        1 276      0.472800
     37 H131        3.8420    0.6350    5.8100 hx        1 276      0.112033
     38 H132        4.1780   -1.1210    5.4360 hx        1 276      0.112033
     39 H133        5.4420    0.1570    5.0380 hx        1 276      0.112033
     40 H19        -2.6000   -2.2530   -0.4880 ha        1 276      0.157000
     41 H22        -3.7120    2.4420   -2.0830 ha        1 276      0.167000
     42 H23        -2.3290    2.0600   -0.0240 ha        1 276      0.149000
     43 HN27       -4.4110   -2.8630   -2.7180 hn        1 276      0.309700
     44 HN32       -5.3750   -2.5730   -5.1630 hn        1 276      0.426800
     45 H34        -5.2780   -2.0900   -7.4820 ha        1 276      0.157000
     46 H37        -8.1590    1.8690   -6.5010 ha        1 276      0.165000
     47 H38        -7.2210    0.5670   -4.6210 ha        1 276      0.167000
     48 H122        4.2140   -0.5240    3.0740 hn        1 276      0.472800
@<TRIPOS>BOND
     1    1    2 ar  
     2    1    6 ar  
     3    1   33 1   
     4    2    3 ar  
     5    2   34 1   
     6    3    4 ar  
     7    4    5 ar  
     8    4    7 1   
     9    5    6 ar  
    10    5   35 1   
    11    6   11 1   
    12    7    8 2   
    13    7    9 1   
    14    9   10 1   
    15    9   36 1   
    16    9   48 1   
    17   10   37 1   
    18   10   38 1   
    19   10   39 1   
    20   11   12 1   
    21   12   13 ar  
    22   12   17 ar  
    23   13   14 ar  
    24   13   40 1   
    25   14   15 ar  
    26   14   18 1   
    27   15   16 ar  
    28   15   20 1   
    29   16   17 ar  
    30   16   41 1   
    31   17   42 1   
    32   18   19 1   
    33   18   43 1   
    34   19   20 2   
    35   19   21 1   
    36   21   22 1   
    37   21   44 1   
    38   22   23 ar  
    39   22   27 ar  
    40   23   24 ar  
    41   23   45 1   
    42   24   25 ar  
    43   24   28 1   
    44   25   26 ar  
    45   25   29 1   
    46   26   27 ar  
    47   26   46 1   
    48   27   47 1   
    49   28   30 1   
    50   28   31 1   
    51   28   32 1   
@<TRIPOS>SUBSTRUCTURE
     1 276         1 TEMP              0 ****  ****    0 ROOT
