@<TRIPOS>MOLECULE
276
   48    51     1     0     0
SMALL
bcc


@<TRIPOS>ATOM
      1 C1          0.3830    0.3010   -0.0660 ca        1 276     -0.251300
      2 C2          1.7720    0.4880    0.1220 ca        1 276      0.453200
      3 N3          2.3890    0.3500    1.2990 nb        1 276     -0.717000
      4 C4          1.6160    0.0050    2.3730 ca        1 276      0.311800
      5 C5          0.2330   -0.2080    2.3090 ca        1 276     -0.166300
      6 C6         -0.3900   -0.0520    1.0430 ca        1 276      0.170100
      7 C10         2.2600   -0.1580    3.6970 c         1 276      0.464600
      8 O11         1.7280   -0.4790    4.7480 o         1 276     -0.411100
      9 N12         3.7550    0.1070    3.7420 n4        1 276     -0.658800
     10 C13         4.3420   -0.0610    5.0880 c3        1 276      0.080100
     11 O17        -1.7440   -0.2750    1.0370 os        1 276     -0.220200
     12 C18        -2.4020   -0.0880   -0.1920 ca        1 276      0.036100
     13 C19        -2.8510   -1.2360   -0.8490 ca        1 276     -0.106000
     14 C20        -3.6320   -1.0220   -1.9840 ca        1 276     -0.081200
     15 C21        -3.9440    0.3180   -2.4570 ca        1 276      0.113400
     16 C22        -3.4610    1.4320   -1.7570 ca        1 276     -0.070000
     17 C23        -2.6900    1.2200   -0.6220 ca        1 276     -0.147000
     18 N27        -4.2050   -1.9130   -2.9030 na        1 276     -0.290300
     19 C28        -4.9130   -1.0890   -3.8480 cc        1 276      0.624700
     20 N29        -4.7300    0.2460   -3.6180 nd        1 276     -0.593100
     21 N32        -5.7160   -1.6750   -4.8440 nh        1 276     -0.647600
     22 C33        -6.1850   -0.8620   -5.9120 ca        1 276      0.102600
     23 C34        -5.9200   -1.2310   -7.2440 ca        1 276     -0.113000
     24 C35        -6.4550   -0.4990   -8.3060 ca        1 276     -0.147300
     25 C36        -7.2540    0.6230   -8.0490 ca        1 276      0.058400
     26 C37        -7.5140    0.9950   -6.7230 ca        1 276     -0.121000
     27 C38        -6.9930    0.2670   -5.6610 ca        1 276     -0.066000
     28 C43        -6.1320   -0.9580   -9.7300 c3        1 276      0.693200
     29 CL44       -7.9260    1.5570   -9.2900 cl        1 276     -0.039400
     30 F45        -5.3330   -2.0770   -9.7930 f         1 276     -0.228300
     31 F46        -7.2280   -1.2990  -10.4810 f         1 276     -0.228300
     32 F47        -5.4550   -0.0350  -10.4860 f         1 276     -0.228300
     33 H1         -0.0710    0.4340   -1.0610 ha        1 276      0.192000
     34 H2          2.4200    0.7670   -0.7330 h4        1 276      0.055100
     35 H5         -0.3620   -0.4860    3.1940 ha        1 276      0.195000
     36 HN12        3.9160    1.0670    3.4070 hn        1 276      0.472800
     37 H131        3.8470    0.6480    5.8050 hx        1 276      0.112033
     38 H132        4.1700   -1.1130    5.4440 hx        1 276      0.112033
     39 H133        5.4440    0.1510    5.0370 hx        1 276      0.112033
     40 H19        -2.6150   -2.2400   -0.4730 ha        1 276      0.157000
     41 H22        -3.6940    2.4510   -2.1020 ha        1 276      0.167000
     42 H23        -2.3140    2.0740   -0.0400 ha        1 276      0.149000
     43 HN27       -4.4290   -2.8540   -2.6990 hn        1 276      0.309700
     44 HN32       -5.3910   -2.5750   -5.1460 hn        1 276      0.426800
     45 H34        -5.2900   -2.1090   -7.4690 ha        1 276      0.157000
     46 H37        -8.1430    1.8770   -6.5180 ha        1 276      0.165000
     47 H38        -7.2160    0.5820   -4.6280 ha        1 276      0.167000
     48 H122        4.2100   -0.5340    3.0780 hn        1 276      0.472800
@<TRIPOS>BOND
     1    1    2 ar  
     2    1    6 ar  
     3    1   33 1   
     4    2    3 ar  
     5    2   34 1   
     6    3    4 ar  
     7    4    5 ar  
     8    4    7 1   
     9    5    6 ar  
    10    5   35 1   
    11    6   11 1   
    12    7    8 2   
    13    7    9 1   
    14    9   10 1   
    15    9   36 1   
    16    9   48 1   
    17   10   37 1   
    18   10   38 1   
    19   10   39 1   
    20   11   12 1   
    21   12   13 ar  
    22   12   17 ar  
    23   13   14 ar  
    24   13   40 1   
    25   14   15 ar  
    26   14   18 1   
    27   15   16 ar  
    28   15   20 1   
    29   16   17 ar  
    30   16   41 1   
    31   17   42 1   
    32   18   19 1   
    33   18   43 1   
    34   19   20 2   
    35   19   21 1   
    36   21   22 1   
    37   21   44 1   
    38   22   23 ar  
    39   22   27 ar  
    40   23   24 ar  
    41   23   45 1   
    42   24   25 ar  
    43   24   28 1   
    44   25   26 ar  
    45   25   29 1   
    46   26   27 ar  
    47   26   46 1   
    48   27   47 1   
    49   28   30 1   
    50   28   31 1   
    51   28   32 1   
@<TRIPOS>SUBSTRUCTURE
     1 276         1 TEMP              0 ****  ****    0 ROOT
