@<TRIPOS>MOLECULE
277
   53    54     1     0     0
SMALL
bcc


@<TRIPOS>ATOM
      1 C1         -2.4470    0.5490   -1.2140 c3        1 277     -0.090400
      2 C2         -0.9140    0.5400   -1.2450 c3        1 277     -0.074900
      3 C3         -0.3050    0.5170    0.1450 c3        1 277     -0.063700
      4 C4         -0.8620    1.6120    1.0400 c3        1 277     -0.074900
      5 C5         -2.3960    1.6210    1.0700 c3        1 277     -0.090400
      6 C6         -3.0030    1.6430   -0.3210 c3        1 277      0.099700
      7 C15         1.2180    0.7010    0.0250 c3        1 277     -0.095700
      8 C17         1.9280   -0.5820    0.4690 c3        1 277      0.108500
      9 C18         3.4330   -0.4090    0.3200 c         1 277      0.663100
     10 N19         4.3080   -1.5600    0.4240 n         1 277     -0.454800
     11 N20        -4.4430    1.4720   -0.2090 n         1 277     -0.479800
     12 C22        -5.3320    2.4390   -0.7910 c         1 277      0.660100
     13 C23        -4.9630    0.3890    0.5020 c3        1 277      0.084300
     14 C27        -6.8610    2.2580   -0.6650 c3        1 277     -0.170100
     15 O31        -4.8840    3.3960   -1.3760 o         1 277     -0.609100
     16 O32         3.8990    0.6890    0.1600 o         1 277     -0.603100
     17 N33         1.6170   -0.8470    1.8140 n3        1 277     -0.905800
     18 C35         1.5710    1.0020   -1.3930 c3        1 277     -0.092100
     19 C42         5.5970   -1.5580    0.3640 c3        1 277      0.050000
     20 C43         5.9830   -2.9760   -0.1650 c3        1 277      0.158600
     21 C44         4.7090   -3.8010   -0.0840 c3        1 277     -0.124400
     22 C45         3.8720   -3.0700    0.6360 c3        1 277      0.083000
     23 F52         6.8980   -3.4950    0.5780 f         1 277     -0.234300
     24 H11        -2.7630   -0.3190   -0.8850 hc        1 277      0.044700
     25 H12        -2.7850    0.6840   -2.1350 hc        1 277      0.044700
     26 H21        -0.5990    1.3490   -1.7190 hc        1 277      0.046950
     27 H22        -0.6110   -0.2560   -1.7380 hc        1 277      0.046950
     28 H3         -0.4870   -0.3450    0.5530 hc        1 277      0.041700
     29 H41        -0.5260    1.4750    1.9580 hc        1 277      0.046950
     30 H42        -0.5440    2.4860    0.7110 hc        1 277      0.046950
     31 H51        -2.6990    2.4200    1.5620 hc        1 277      0.044700
     32 H52        -2.7090    0.8200    1.5410 hc        1 277      0.044700
     33 H6         -2.8180    2.5120   -0.7340 h1        1 277      0.095700
     34 H15         1.5010    1.4430    0.5960 hc        1 277      0.077700
     35 H17         1.6300   -1.3280   -0.0870 h1        1 277      0.068700
     36 H231       -5.2660    0.6920    1.3830 h1        1 277      0.036367
     37 H232       -5.7190    0.0090    0.0100 h1        1 277      0.036367
     38 H233       -4.2710   -0.2920    0.6110 h1        1 277      0.036367
     39 H271       -7.1400    1.4630   -1.1690 hc        1 277      0.065367
     40 H272       -7.3140    3.0470   -1.0240 hc        1 277      0.065367
     41 H273       -7.1000    2.1450    0.2850 hc        1 277      0.065367
     42 H331        1.4710   -0.0600    2.2530 hn        1 277      0.360300
     43 H332        0.8660   -1.3640    1.8580 hn        1 277      0.360300
     44 H351        1.0090    1.7370   -1.7210 hc        1 277      0.040700
     45 H352        2.5190    1.2650   -1.4460 hc        1 277      0.040700
     46 H353        1.4220    0.2070   -1.9410 hc        1 277      0.040700
     47 H421        5.9820   -1.4110    1.2590 h1        1 277      0.073700
     48 H422        5.9080   -0.8660   -0.2590 h1        1 277      0.073700
     49 H43         6.2920   -2.9180   -1.0950 h1        1 277      0.062700
     50 H441        4.3440   -3.9530   -0.9810 hc        1 277      0.067700
     51 H442        4.8860   -4.6570    0.3630 hc        1 277      0.067700
     52 H451        3.9440   -3.3120    1.5860 h1        1 277      0.055700
     53 H452        2.9510   -3.2030    0.3220 h1        1 277      0.055700
@<TRIPOS>BOND
     1    1    2 1   
     2    1    6 1   
     3    1   24 1   
     4    1   25 1   
     5    2    3 1   
     6    2   26 1   
     7    2   27 1   
     8    3    4 1   
     9    3    7 1   
    10    3   28 1   
    11    4    5 1   
    12    4   29 1   
    13    4   30 1   
    14    5    6 1   
    15    5   31 1   
    16    5   32 1   
    17    6   11 1   
    18    6   33 1   
    19    7    8 1   
    20    7   18 1   
    21    7   34 1   
    22    8    9 1   
    23    8   17 1   
    24    8   35 1   
    25    9   10 1   
    26    9   16 2   
    27   10   19 1   
    28   10   22 1   
    29   11   12 1   
    30   11   13 1   
    31   12   14 1   
    32   12   15 2   
    33   13   36 1   
    34   13   37 1   
    35   13   38 1   
    36   14   39 1   
    37   14   40 1   
    38   14   41 1   
    39   17   42 1   
    40   17   43 1   
    41   18   44 1   
    42   18   45 1   
    43   18   46 1   
    44   19   20 1   
    45   19   47 1   
    46   19   48 1   
    47   20   21 1   
    48   20   23 1   
    49   20   49 1   
    50   21   22 1   
    51   21   50 1   
    52   21   51 1   
    53   22   52 1   
    54   22   53 1   
@<TRIPOS>SUBSTRUCTURE
     1 277         1 TEMP              0 ****  ****    0 ROOT
