@<TRIPOS>MOLECULE
277
   55    56     1     0     0
SMALL
bcc


@<TRIPOS>ATOM
      1 C1          0.0730   -0.3740   -0.1280 c3        1 277     -0.097900
      2 C2          1.5860   -0.2590   -0.0750 c3        1 277     -0.080400
      3 C3          2.1070   -0.2730    1.3550 c3        1 277     -0.073700
      4 C4          1.4250    0.8230    2.1680 c3        1 277     -0.080400
      5 C5         -0.0860    0.7100    2.1140 c3        1 277     -0.097900
      6 C6         -0.5510    0.7880    0.6560 c3        1 277      0.129500
      7 C15         3.6300   -0.1080    1.4390 c3        1 277     -0.071700
      8 C17         4.3510   -1.4510    1.1810 c3        1 277      0.041500
      9 C18         5.8140   -1.1840    0.7090 c         1 277      0.633100
     10 N19         6.1720   -1.4330   -0.5850 n         1 277     -0.411800
     11 N20        -2.0550    0.8350    0.4980 n4        1 277     -0.605200
     12 C22        -2.5840    2.2530    0.7670 c         1 277      0.557100
     13 C23        -2.7670   -0.1370    1.3610 c3        1 277      0.080100
     14 C27        -3.2230    2.9200   -0.4010 c3        1 277     -0.192100
     15 O31        -2.4370    2.6780    1.8990 o         1 277     -0.396100
     16 O32         6.6300   -0.8580    1.5970 o         1 277     -0.582100
     17 N33         4.4460   -2.2760    2.4380 n4        1 277     -0.841600
     18 C35         4.1580    0.9680    0.5110 c3        1 277     -0.116100
     19 C42         5.2450   -1.5960   -1.6910 c3        1 277      0.026000
     20 C43         5.8000   -0.7570   -2.8880 c3        1 277      0.161600
     21 C44         7.2710   -0.4670   -2.5220 c3        1 277     -0.129400
     22 C45         7.4710   -0.9550   -1.0810 c3        1 277      0.070000
     23 F52         5.0600    0.4000   -3.0390 f         1 277     -0.232300
     24 H11        -0.2520   -1.3540    0.3110 hc        1 277      0.076450
     25 H12        -0.2520   -0.3520   -1.2020 hc        1 277      0.076450
     26 H21         2.0300   -1.1120   -0.6530 hc        1 277      0.072450
     27 H22         1.8990    0.6910   -0.5860 hc        1 277      0.072450
     28 H3          1.8270   -1.2650    1.8150 hc        1 277      0.031700
     29 H41         1.7440    1.8300    1.7880 hc        1 277      0.072450
     30 H42         1.7450    0.7570    3.2430 hc        1 277      0.072450
     31 H51        -0.5390    1.5440    2.7170 hc        1 277      0.076450
     32 H52        -0.4100   -0.2620    2.5700 hc        1 277      0.076450
     33 H6         -0.1760    1.7620    0.2110 hx        1 277      0.102700
     34 H15         3.8780    0.2340    2.4900 hc        1 277      0.083700
     35 H17         3.7710   -2.0660    0.4330 hx        1 277      0.112700
     36 H231       -2.3210   -1.1590    1.2290 hx        1 277      0.109033
     37 H232       -2.6780    0.1790    2.4370 hx        1 277      0.109033
     38 H233       -3.8530   -0.1620    1.0720 hx        1 277      0.109033
     39 H271       -2.5140    2.9990   -1.2630 hc        1 277      0.120700
     40 H272       -3.5310    3.9570   -0.0930 hc        1 277      0.120700
     41 H273       -4.1400    2.3620   -0.7240 hc        1 277      0.120700
     42 H331        4.7040   -3.2400    2.2070 hn        1 277      0.471800
     43 H332        3.5570   -2.2650    2.9410 hn        1 277      0.471800
     44 H351        3.5540    1.9010    0.6300 hc        1 277      0.072033
     45 H352        5.2190    1.2170    0.7690 hc        1 277      0.072033
     46 H353        4.1160    0.6560   -0.5620 hc        1 277      0.072033
     47 H421        4.2050   -1.2600   -1.4400 h1        1 277      0.067700
     48 H422        5.2260   -2.6840   -1.9780 h1        1 277      0.067700
     49 H43         5.7260   -1.3540   -3.8390 h1        1 277      0.098700
     50 H441        7.9550   -1.0140   -3.2160 hc        1 277      0.096700
     51 H442        7.4880    0.6270   -2.6070 hc        1 277      0.096700
     52 H451        7.8670   -0.1370   -0.4170 h1        1 277      0.092200
     53 H452        8.1900   -1.8200   -1.0430 h1        1 277      0.092200
     54 H201       -2.2610    0.6040   -0.4830 hn        1 277      0.451800
     55 H333        5.1890   -1.8740    3.0390 hn        1 277      0.471800
@<TRIPOS>BOND
     1    1    2 1   
     2    1    6 1   
     3    1   24 1   
     4    1   25 1   
     5    2    3 1   
     6    2   26 1   
     7    2   27 1   
     8    3    4 1   
     9    3    7 1   
    10    3   28 1   
    11    4    5 1   
    12    4   29 1   
    13    4   30 1   
    14    5    6 1   
    15    5   31 1   
    16    5   32 1   
    17    6   11 1   
    18    6   33 1   
    19    7    8 1   
    20    7   18 1   
    21    7   34 1   
    22    8    9 1   
    23    8   17 1   
    24    8   35 1   
    25    9   10 1   
    26    9   16 2   
    27   10   19 1   
    28   10   22 1   
    29   11   12 1   
    30   11   13 1   
    31   11   54 1   
    32   12   14 1   
    33   12   15 2   
    34   13   36 1   
    35   13   37 1   
    36   13   38 1   
    37   14   39 1   
    38   14   40 1   
    39   14   41 1   
    40   17   42 1   
    41   17   43 1   
    42   17   55 1   
    43   18   44 1   
    44   18   45 1   
    45   18   46 1   
    46   19   20 1   
    47   19   47 1   
    48   19   48 1   
    49   20   21 1   
    50   20   23 1   
    51   20   49 1   
    52   21   22 1   
    53   21   50 1   
    54   21   51 1   
    55   22   52 1   
    56   22   53 1   
@<TRIPOS>SUBSTRUCTURE
     1 277         1 TEMP              0 ****  ****    0 ROOT
