@<TRIPOS>MOLECULE
277
   55    56     1     0     0
SMALL
bcc


@<TRIPOS>ATOM
      1 C1          0.0720   -0.3600   -0.1320 c3        1 277     -0.097900
      2 C2          1.5850   -0.2510   -0.0780 c3        1 277     -0.080400
      3 C3          2.1070   -0.2890    1.3520 c3        1 277     -0.073700
      4 C4          1.4290    0.7960    2.1830 c3        1 277     -0.080400
      5 C5         -0.0820    0.6890    2.1270 c3        1 277     -0.097900
      6 C6         -0.5480    0.7920    0.6700 c3        1 277      0.129500
      7 C15         3.6300   -0.1310    1.4370 c3        1 277     -0.071700
      8 C17         4.3470   -1.4720    1.1570 c3        1 277      0.041500
      9 C18         5.8100   -1.2030    0.6890 c         1 277      0.633100
     10 N19         6.1670   -1.4320   -0.6100 n         1 277     -0.411800
     11 N20        -2.0520    0.8460    0.5140 n4        1 277     -0.605200
     12 C22        -2.5750    2.2610    0.8060 c         1 277      0.557100
     13 C23        -2.7660   -0.1380    1.3620 c3        1 277      0.080100
     14 C27        -3.2110    2.9510   -0.3510 c3        1 277     -0.192100
     15 O31        -2.4280    2.6670    1.9460 o         1 277     -0.396100
     16 O32         6.6280   -0.8930    1.5810 o         1 277     -0.582100
     17 N33         4.4400   -2.3170    2.4010 n4        1 277     -0.841600
     18 C35         4.1620    0.9580    0.5260 c3        1 277     -0.116100
     19 C42         5.2380   -1.5740   -1.7170 c3        1 277      0.026000
     20 C43         5.7950   -0.7190   -2.9020 c3        1 277      0.161600
     21 C44         7.2660   -0.4390   -2.5320 c3        1 277     -0.129400
     22 C45         7.4660   -0.9500   -1.1000 c3        1 277      0.070000
     23 F52         5.0580    0.4440   -3.0340 f         1 277     -0.232300
     24 H11        -0.2560   -1.3460    0.2910 hc        1 277      0.076450
     25 H12        -0.2530   -0.3200   -1.2060 hc        1 277      0.076450
     26 H21         2.0260   -1.0960   -0.6700 hc        1 277      0.072450
     27 H22         1.9010    0.7060   -0.5740 hc        1 277      0.072450
     28 H3          1.8240   -1.2870    1.7960 hc        1 277      0.031700
     29 H41         1.7520    1.8080    1.8180 hc        1 277      0.072450
     30 H42         1.7490    0.7120    3.2550 hc        1 277      0.072450
     31 H51        -0.5320    1.5150    2.7430 hc        1 277      0.076450
     32 H52        -0.4090   -0.2890    2.5670 hc        1 277      0.076450
     33 H6         -0.1700    1.7710    0.2410 hx        1 277      0.102700
     34 H15         3.8800    0.1930    2.4930 hc        1 277      0.083700
     35 H17         3.7640   -2.0730    0.4000 hx        1 277      0.112700
     36 H231       -3.8530   -0.1530    1.0720 hx        1 277      0.109033
     37 H232       -2.6760    0.1610    2.4420 hx        1 277      0.109033
     38 H233       -2.3240   -1.1580    1.2120 hx        1 277      0.109033
     39 H271       -2.5010    3.0420   -1.2110 hc        1 277      0.120367
     40 H272       -4.1290    2.4010   -0.6850 hc        1 277      0.120367
     41 H273       -3.5160    3.9830   -0.0250 hc        1 277      0.120367
     42 H331        3.5510   -2.3110    2.9050 hn        1 277      0.471800
     43 H332        5.1850   -1.9270    3.0080 hn        1 277      0.471800
     44 H351        5.2240    1.1990    0.7870 hc        1 277      0.072033
     45 H352        4.1180    0.6640   -0.5520 hc        1 277      0.072033
     46 H353        3.5600    1.8910    0.6610 hc        1 277      0.072033
     47 H421        4.1990   -1.2390   -1.4600 h1        1 277      0.067700
     48 H422        5.2150   -2.6570   -2.0210 h1        1 277      0.067700
     49 H43         5.7180   -1.3000   -3.8620 h1        1 277      0.098700
     50 H441        7.9490   -0.9760   -3.2360 hc        1 277      0.096700
     51 H442        7.4870    0.6560   -2.5990 hc        1 277      0.096700
     52 H451        7.8660   -0.1450   -0.4230 h1        1 277      0.092200
     53 H452        8.1820   -1.8190   -1.0760 h1        1 277      0.092200
     54 H201       -2.2590    0.6320   -0.4700 hn        1 277      0.451800
     55 H333        4.6950   -3.2780    2.1550 hn        1 277      0.471800
@<TRIPOS>BOND
     1    1    2 1   
     2    1    6 1   
     3    1   24 1   
     4    1   25 1   
     5    2    3 1   
     6    2   26 1   
     7    2   27 1   
     8    3    4 1   
     9    3    7 1   
    10    3   28 1   
    11    4    5 1   
    12    4   29 1   
    13    4   30 1   
    14    5    6 1   
    15    5   31 1   
    16    5   32 1   
    17    6   11 1   
    18    6   33 1   
    19    7    8 1   
    20    7   18 1   
    21    7   34 1   
    22    8    9 1   
    23    8   17 1   
    24    8   35 1   
    25    9   10 1   
    26    9   16 2   
    27   10   19 1   
    28   10   22 1   
    29   11   12 1   
    30   11   13 1   
    31   11   54 1   
    32   12   14 1   
    33   12   15 2   
    34   13   36 1   
    35   13   37 1   
    36   13   38 1   
    37   14   39 1   
    38   14   40 1   
    39   14   41 1   
    40   17   42 1   
    41   17   43 1   
    42   17   55 1   
    43   18   44 1   
    44   18   45 1   
    45   18   46 1   
    46   19   20 1   
    47   19   47 1   
    48   19   48 1   
    49   20   21 1   
    50   20   23 1   
    51   20   49 1   
    52   21   22 1   
    53   21   50 1   
    54   21   51 1   
    55   22   52 1   
    56   22   53 1   
@<TRIPOS>SUBSTRUCTURE
     1 277         1 TEMP              0 ****  ****    0 ROOT
