@<TRIPOS>MOLECULE
277
   55    56     1     0     0
SMALL
bcc


@<TRIPOS>ATOM
      1 C1          0.0700   -0.3620   -0.1220 c3        1 277     -0.097900
      2 C2          1.5840   -0.2530   -0.0740 c3        1 277     -0.080400
      3 C3          2.1100   -0.2820    1.3540 c3        1 277     -0.073700
      4 C4          1.4360    0.8100    2.1790 c3        1 277     -0.080400
      5 C5         -0.0750    0.7040    2.1300 c3        1 277     -0.097900
      6 C6         -0.5460    0.7960    0.6740 c3        1 277      0.129500
      7 C15         3.6340   -0.1240    1.4330 c3        1 277     -0.071700
      8 C17         4.3490   -1.4670    1.1600 c3        1 277      0.041500
      9 C18         5.8110   -1.2020    0.6850 c         1 277      0.633100
     10 N19         6.1630   -1.4410   -0.6130 n         1 277     -0.411800
     11 N20        -2.0510    0.8500    0.5230 nx        1 277     -0.605200
     12 C22        -2.5730    2.2670    0.8060 c         1 277      0.557100
     13 C23        -2.7630   -0.1270    1.3800 c3        1 277      0.080100
     14 C27        -3.2140    2.9480   -0.3530 c3        1 277     -0.192100
     15 O31        -2.4190    2.6820    1.9410 o         1 277     -0.396100
     16 O32         6.6320   -0.8860    1.5720 o         1 277     -0.582100
     17 N33         4.4460   -2.3030    2.4100 nz        1 277     -0.841600
     18 C35         4.1630    0.9580    0.5120 c3        1 277     -0.116100
     19 C42         5.2310   -1.5900   -1.7160 c3        1 277      0.026000
     20 C43         5.7840   -0.7430   -2.9090 c3        1 277      0.161600
     21 C44         7.2570   -0.4620   -2.5460 c3        1 277     -0.129400
     22 C45         7.4610   -0.9630   -1.1110 c3        1 277      0.070000
     23 F52         5.0480    0.4190   -3.0460 f         1 277     -0.232300
     24 H11        -0.2590   -0.3290   -1.1950 hc        1 277      0.076450
     25 H12        -0.2570   -1.3450    0.3100 hc        1 277      0.076450
     26 H21         2.0220   -1.1030   -0.6620 hc        1 277      0.072450
     27 H22         1.8990    0.7000   -0.5780 hc        1 277      0.072450
     28 H3          1.8290   -1.2760    1.8060 hc        1 277      0.031700
     29 H41         1.7580    1.8190    1.8070 hc        1 277      0.072450
     30 H42         1.7600    0.7330    3.2520 hc        1 277      0.072450
     31 H51        -0.5230    1.5340    2.7420 hc        1 277      0.076450
     32 H52        -0.4020   -0.2720    2.5790 hc        1 277      0.076450
     33 H6         -0.1690    1.7720    0.2360 hx        1 277      0.102700
     34 H15         3.8880    0.2080    2.4860 hc        1 277      0.083700
     35 H17         3.7640   -2.0730    0.4090 hx        1 277      0.112700
     36 H231       -2.3210   -1.1490    1.2370 hx        1 277      0.109033
     37 H232       -3.8500   -0.1440    1.0950 hx        1 277      0.109033
     38 H233       -2.6680    0.1790    2.4580 hx        1 277      0.109033
     39 H271       -2.5070    3.0320   -1.2170 hc        1 277      0.120367
     40 H272       -3.5180    3.9830   -0.0350 hc        1 277      0.120367
     41 H273       -4.1330    2.3950   -0.6790 hc        1 277      0.120367
     42 H331        4.6990   -3.2660    2.1690 hn        1 277      0.471800
     43 H332        3.5590   -2.2930    2.9170 hn        1 277      0.471800
     44 H351        3.5630    1.8930    0.6430 hc        1 277      0.072033
     45 H352        4.1160    0.6570   -0.5630 hc        1 277      0.072033
     46 H353        5.2260    1.2010    0.7680 hc        1 277      0.072033
     47 H421        4.1920   -1.2520   -1.4580 h1        1 277      0.067700
     48 H422        5.2060   -2.6750   -2.0130 h1        1 277      0.067700
     49 H43         5.7040   -1.3310   -3.8640 h1        1 277      0.098700
     50 H441        7.9370   -1.0050   -3.2480 hc        1 277      0.096700
     51 H442        7.4780    0.6320   -2.6210 hc        1 277      0.096700
     52 H451        8.1770   -1.8320   -1.0830 h1        1 277      0.092200
     53 H452        7.8640   -0.1530   -0.4410 h1        1 277      0.092200
     54 H201       -2.2610    0.6290   -0.4590 hn        1 277      0.451800
     55 H333        5.1930   -1.9090    3.0110 hn        1 277      0.471800
@<TRIPOS>BOND
     1    1    2 1   
     2    1    6 1   
     3    1   24 1   
     4    1   25 1   
     5    2    3 1   
     6    2   26 1   
     7    2   27 1   
     8    3    4 1   
     9    3    7 1   
    10    3   28 1   
    11    4    5 1   
    12    4   29 1   
    13    4   30 1   
    14    5    6 1   
    15    5   31 1   
    16    5   32 1   
    17    6   11 1   
    18    6   33 1   
    19    7    8 1   
    20    7   18 1   
    21    7   34 1   
    22    8    9 1   
    23    8   17 1   
    24    8   35 1   
    25    9   10 1   
    26    9   16 2   
    27   10   19 1   
    28   10   22 1   
    29   11   12 1   
    30   11   13 1   
    31   11   54 1   
    32   12   14 1   
    33   12   15 2   
    34   13   36 1   
    35   13   37 1   
    36   13   38 1   
    37   14   39 1   
    38   14   40 1   
    39   14   41 1   
    40   17   42 1   
    41   17   43 1   
    42   17   55 1   
    43   18   44 1   
    44   18   45 1   
    45   18   46 1   
    46   19   20 1   
    47   19   47 1   
    48   19   48 1   
    49   20   21 1   
    50   20   23 1   
    51   20   49 1   
    52   21   22 1   
    53   21   50 1   
    54   21   51 1   
    55   22   52 1   
    56   22   53 1   
@<TRIPOS>SUBSTRUCTURE
     1 277         1 TEMP              0 ****  ****    0 ROOT
