@<TRIPOS>MOLECULE
277
   53    54     1     0     0
SMALL
bcc


@<TRIPOS>ATOM
      1 C1         -0.7350   -3.6920   -1.3510 c3        1 277     -0.088400
      2 C2          0.7220   -3.2890   -1.2540 c3        1 277     -0.073400
      3 C3          0.9050   -2.1410   -0.2720 c3        1 277     -0.063700
      4 C4          0.0560   -0.9540   -0.7130 c3        1 277     -0.073400
      5 C5         -1.4060   -1.3370   -0.8130 c3        1 277     -0.088400
      6 C6         -1.5870   -2.4950   -1.8110 c3        1 277      0.098700
      7 C15         2.3650   -1.7240   -0.1000 c3        1 277     -0.052700
      8 C17         3.1480   -2.7350    0.7730 c3        1 277      0.120500
      9 C18         4.6070   -2.2160    0.8780 c         1 277      0.611100
     10 N19         5.6560   -2.9930    0.4210 n         1 277     -0.466800
     11 N20        -2.9840   -2.8400   -2.0260 n         1 277     -0.478800
     12 C22        -3.5470   -2.7380   -3.2940 c         1 277      0.660100
     13 C23        -3.7250   -3.4300   -0.9520 c3        1 277      0.083300
     14 C27        -4.9820   -3.1670   -3.4790 c3        1 277     -0.170100
     15 O31        -2.8900   -2.2850   -4.2540 o         1 277     -0.611100
     16 O32         4.8430   -1.1470    1.4770 o         1 277     -0.610100
     17 N33         2.5740   -2.9230    2.0880 n3        1 277     -0.896800
     18 C35         3.0750   -1.5400   -1.4250 c3        1 277     -0.101100
     19 C42         5.5090   -4.0900   -0.5090 c3        1 277      0.056000
     20 C43         6.9040   -4.3530   -1.1570 c3        1 277      0.161600
     21 C44         7.8460   -3.2820   -0.5680 c3        1 277     -0.124400
     22 C45         7.0200   -2.4870    0.4490 c3        1 277      0.085000
     23 F52         6.8330   -4.2840   -2.5350 f         1 277     -0.234300
     24 H11        -0.8380   -4.5350   -2.0830 hc        1 277      0.044950
     25 H12        -1.0940   -4.0590   -0.3540 hc        1 277      0.044950
     26 H21         1.3270   -4.1710   -0.9220 hc        1 277      0.043700
     27 H22         1.0890   -2.9860   -2.2700 hc        1 277      0.043700
     28 H3          0.5090   -2.4800    0.7280 hc        1 277      0.070700
     29 H41         0.4130   -0.5750   -1.7060 hc        1 277      0.043700
     30 H42         0.1670   -0.1180    0.0260 hc        1 277      0.043700
     31 H51        -1.7850   -1.6350    0.1990 hc        1 277      0.044950
     32 H52        -1.9990   -0.4490   -1.1520 hc        1 277      0.044950
     33 H6         -1.1740   -2.1470   -2.8090 h1        1 277      0.093700
     34 H15         2.3770   -0.7330    0.4410 hc        1 277      0.068700
     35 H17         3.1240   -3.7410    0.2590 h1        1 277      0.069700
     36 H231       -3.8540   -4.5360   -1.1110 h1        1 277      0.036700
     37 H232       -4.7440   -2.9620   -0.8760 h1        1 277      0.036700
     38 H233       -3.1880   -3.2710    0.0210 h1        1 277      0.036700
     39 H271       -5.2310   -3.1130   -4.5660 hc        1 277      0.064700
     40 H272       -5.1350   -4.2130   -3.1200 hc        1 277      0.064700
     41 H273       -5.6630   -2.4840   -2.9160 hc        1 277      0.064700
     42 H331        3.1590   -3.5160    2.6430 hn        1 277      0.361300
     43 H332        2.4600   -2.0430    2.5540 hn        1 277      0.361300
     44 H351        4.0800   -1.0770   -1.2660 hc        1 277      0.041367
     45 H352        2.4820   -0.8650   -2.0890 hc        1 277      0.041367
     46 H353        3.2120   -2.5160   -1.9500 hc        1 277      0.041367
     47 H421        4.7560   -3.8550   -1.3120 h1        1 277      0.059700
     48 H422        5.1710   -5.0080    0.0450 h1        1 277      0.059700
     49 H43         7.2580   -5.3850   -0.8800 h1        1 277      0.064700
     50 H441        8.2280   -2.6130   -1.3780 hc        1 277      0.069200
     51 H442        8.7200   -3.7670   -0.0720 hc        1 277      0.069200
     52 H451        7.4290   -2.6160    1.4880 h1        1 277      0.061700
     53 H452        7.0310   -1.3860    0.2130 h1        1 277      0.061700
@<TRIPOS>BOND
     1    1    2 1   
     2    1    6 1   
     3    1   24 1   
     4    1   25 1   
     5    2    3 1   
     6    2   26 1   
     7    2   27 1   
     8    3    4 1   
     9    3    7 1   
    10    3   28 1   
    11    4    5 1   
    12    4   29 1   
    13    4   30 1   
    14    5    6 1   
    15    5   31 1   
    16    5   32 1   
    17    6   11 1   
    18    6   33 1   
    19    7    8 1   
    20    7   18 1   
    21    7   34 1   
    22    8    9 1   
    23    8   17 1   
    24    8   35 1   
    25    9   10 1   
    26    9   16 2   
    27   10   19 1   
    28   10   22 1   
    29   11   12 1   
    30   11   13 1   
    31   12   14 1   
    32   12   15 2   
    33   13   36 1   
    34   13   37 1   
    35   13   38 1   
    36   14   39 1   
    37   14   40 1   
    38   14   41 1   
    39   17   42 1   
    40   17   43 1   
    41   18   44 1   
    42   18   45 1   
    43   18   46 1   
    44   19   20 1   
    45   19   47 1   
    46   19   48 1   
    47   20   21 1   
    48   20   23 1   
    49   20   49 1   
    50   21   22 1   
    51   21   50 1   
    52   21   51 1   
    53   22   52 1   
    54   22   53 1   
@<TRIPOS>SUBSTRUCTURE
     1 277         1 TEMP              0 ****  ****    0 ROOT
