@<TRIPOS>MOLECULE
278
   19    19     1     0     0
SMALL
bcc


@<TRIPOS>ATOM
      1 C1         -0.0290    0.1600    0.0030 c3        1 278      0.005600
      2 N2          1.3910   -0.0020    0.0180 na        1 278     -0.040100
      3 C3          2.1990    0.0390    1.1420 cc        1 278     -0.075300
      4 C4          3.5520   -0.0090    0.7420 cd        1 278     -0.192000
      5 C5          3.5690   -0.0590   -0.6780 cd        1 278     -0.099000
      6 C6          2.2240   -0.0470   -1.1180 cc        1 278     -0.292600
      7 C7          1.7560   -0.0640   -2.5060 c3        1 278      0.220100
      8 N8          1.6390   -1.4870   -3.0060 n4        1 278     -0.855600
      9 H11        -0.5000   -0.6600   -0.6030 h1        1 278      0.065367
     10 H12        -0.4250    0.1110    1.0530 h1        1 278      0.065367
     11 H13        -0.3070    1.1540   -0.4450 h1        1 278      0.065367
     12 H3          1.7760    0.0940    2.1500 h4        1 278      0.195000
     13 H4          4.4140   -0.0030    1.4060 ha        1 278      0.185000
     14 H5          4.4510   -0.0860   -1.3130 ha        1 278      0.165000
     15 H71         2.5050    0.4580   -3.1720 hx        1 278      0.112700
     16 H72         0.7430    0.4160   -2.6330 hx        1 278      0.112700
     17 H81         0.9280   -1.9900   -2.4670 hn        1 278      0.453467
     18 H82         1.3850   -1.5010   -3.9960 hn        1 278      0.453467
     19 H83         2.5350   -1.9690   -2.8770 hn        1 278      0.453467
@<TRIPOS>BOND
     1    1    2 1   
     2    1    9 1   
     3    1   10 1   
     4    1   11 1   
     5    2    3 1   
     6    2    6 1   
     7    3    4 2   
     8    3   12 1   
     9    4    5 1   
    10    4   13 1   
    11    5    6 2   
    12    5   14 1   
    13    6    7 1   
    14    7    8 1   
    15    7   15 1   
    16    7   16 1   
    17    8   17 1   
    18    8   18 1   
    19    8   19 1   
@<TRIPOS>SUBSTRUCTURE
     1 278         1 TEMP              0 ****  ****    0 ROOT
