@<TRIPOS>MOLECULE
278
   19    19     1     0     0
SMALL
bcc


@<TRIPOS>ATOM
      1 C1         -0.0290    0.1680   -0.0070 c3        1 278      0.005600
      2 N2          1.3870   -0.0200    0.0180 na        1 278     -0.040100
      3 C3          2.1860   -0.0070    1.1490 cc        1 278     -0.075300
      4 C4          3.5410   -0.0750    0.7610 cd        1 278     -0.192000
      5 C5          3.5700   -0.1090   -0.6600 cd        1 278     -0.099000
      6 C6          2.2290   -0.0670   -1.1110 cc        1 278     -0.292600
      7 C7          1.7730   -0.0590   -2.5040 c3        1 278      0.220100
      8 N8          1.6360   -1.4740   -3.0210 n4        1 278     -0.855600
      9 H11        -0.4350    0.1160    1.0390 h1        1 278      0.065367
     10 H12        -0.2850    1.1710   -0.4470 h1        1 278      0.065367
     11 H13        -0.5100   -0.6360   -0.6260 h1        1 278      0.065367
     12 H3          1.7560    0.0440    2.1540 h4        1 278      0.195000
     13 H4          4.3980   -0.0930    1.4310 ha        1 278      0.185000
     14 H5          4.4570   -0.1440   -1.2880 ha        1 278      0.165000
     15 H71         0.7700    0.4400   -2.6340 hx        1 278      0.112700
     16 H72         2.5370    0.4570   -3.1570 hx        1 278      0.112700
     17 H81         1.3900   -1.4710   -4.0140 hn        1 278      0.453467
     18 H82         0.9110   -1.9700   -2.4950 hn        1 278      0.453467
     19 H83         2.5220   -1.9730   -2.8910 hn        1 278      0.453467
@<TRIPOS>BOND
     1    1    2 1   
     2    1    9 1   
     3    1   10 1   
     4    1   11 1   
     5    2    3 1   
     6    2    6 1   
     7    3    4 2   
     8    3   12 1   
     9    4    5 1   
    10    4   13 1   
    11    5    6 2   
    12    5   14 1   
    13    6    7 1   
    14    7    8 1   
    15    7   15 1   
    16    7   16 1   
    17    8   17 1   
    18    8   18 1   
    19    8   19 1   
@<TRIPOS>SUBSTRUCTURE
     1 278         1 TEMP              0 ****  ****    0 ROOT
