@<TRIPOS>MOLECULE
278
   19    19     1     0     0
SMALL
bcc


@<TRIPOS>ATOM
      1 C1         -0.0290    0.1630    0.0010 c3        1 278      0.005600
      2 N2          1.3910    0.0040    0.0170 na        1 278     -0.040100
      3 C3          2.1990    0.0540    1.1390 cc        1 278     -0.075300
      4 C4          3.5520    0.0060    0.7400 cd        1 278     -0.192000
      5 C5          3.5680   -0.0530   -0.6800 cd        1 278     -0.099000
      6 C6          2.2230   -0.0470   -1.1200 cc        1 278     -0.292600
      7 C7          1.7550   -0.0750   -2.5080 c3        1 278      0.220100
      8 N8          1.6420   -1.5010   -2.9980 nz        1 278     -0.855600
      9 H11        -0.4990   -0.6630   -0.5990 h1        1 278      0.065367
     10 H12        -0.4250    0.1210    1.0510 h1        1 278      0.065367
     11 H13        -0.3100    1.1520   -0.4540 h1        1 278      0.065367
     12 H3          1.7760    0.1150    2.1470 h4        1 278      0.195000
     13 H4          4.4140    0.0190    1.4030 ha        1 278      0.185000
     14 H5          4.4510   -0.0820   -1.3160 ha        1 278      0.165000
     15 H71         2.5020    0.4450   -3.1770 hx        1 278      0.112700
     16 H72         0.7400    0.4020   -2.6380 hx        1 278      0.112700
     17 H81         0.9330   -2.0020   -2.4550 hn        1 278      0.453467
     18 H82         1.3870   -1.5220   -3.9880 hn        1 278      0.453467
     19 H83         2.5390   -1.9790   -2.8660 hn        1 278      0.453467
@<TRIPOS>BOND
     1    1    2 1   
     2    1    9 1   
     3    1   10 1   
     4    1   11 1   
     5    2    3 1   
     6    2    6 1   
     7    3    4 2   
     8    3   12 1   
     9    4    5 1   
    10    4   13 1   
    11    5    6 2   
    12    5   14 1   
    13    6    7 1   
    14    7    8 1   
    15    7   15 1   
    16    7   16 1   
    17    8   17 1   
    18    8   18 1   
    19    8   19 1   
@<TRIPOS>SUBSTRUCTURE
     1 278         1 TEMP              0 ****  ****    0 ROOT
