@<TRIPOS>MOLECULE
278
   18    18     1     0     0
SMALL
bcc


@<TRIPOS>ATOM
      1 C1         -0.0160    2.0780   -0.0360 c3        1 278      0.019600
      2 N2          0.4930    0.7480   -0.0050 na        1 278     -0.063100
      3 C3          1.8030    0.3920    0.3140 cc        1 278     -0.158300
      4 C4          1.9200   -1.0020    0.2400 cd        1 278     -0.197000
      5 C5          0.6360   -1.5160   -0.1330 cd        1 278     -0.181000
      6 C6         -0.2310   -0.4210   -0.2800 cc        1 278     -0.173600
      7 C7         -1.6720   -0.4440   -0.6730 c3        1 278      0.222100
      8 N8         -2.6160    0.0310    0.3050 n3        1 278     -0.905800
      9 H11        -0.7860    2.1750   -0.8480 h1        1 278      0.050367
     10 H12        -0.4940    2.3390    0.9480 h1        1 278      0.050367
     11 H13         0.8200    2.8010   -0.2330 h1        1 278      0.050367
     12 H3          2.5480    1.1460    0.5640 h4        1 278      0.163000
     13 H4          2.8160   -1.5840    0.4310 ha        1 278      0.151000
     14 H5          0.3770   -2.5600   -0.2800 ha        1 278      0.150000
     15 H71        -1.8090    0.1730   -1.6090 h1        1 278      0.063200
     16 H72        -1.9350   -1.5120   -0.9260 h1        1 278      0.063200
     17 H81        -2.6130   -0.5500    1.1210 hn        1 278      0.347300
     18 H82        -2.4080    0.9710    0.5810 hn        1 278      0.347300
@<TRIPOS>BOND
     1    1    2 1   
     2    1    9 1   
     3    1   10 1   
     4    1   11 1   
     5    2    3 1   
     6    2    6 1   
     7    3    4 2   
     8    3   12 1   
     9    4    5 1   
    10    4   13 1   
    11    5    6 2   
    12    5   14 1   
    13    6    7 1   
    14    7    8 1   
    15    7   15 1   
    16    7   16 1   
    17    8   17 1   
    18    8   18 1   
@<TRIPOS>SUBSTRUCTURE
     1 278         1 TEMP              0 ****  ****    0 ROOT
