@<TRIPOS>MOLECULE
278
   18    14     1     0     0
SMALL
bcc


@<TRIPOS>ATOM
      1 C1         -1.9760    0.0110    1.0010 c3        1 278      0.201100
      2 N2         -0.5290   -0.0010    0.9630 n3        1 278     -0.396800
      3 C3          0.3010    0.0170    2.0430 c1        1 278     -0.078700
      4 C4          1.6100    0.0290    1.5790 cg        1 278     -0.196500
      5 C5          1.5750    0.0180    0.2300 cg        1 278     -0.196500
      6 C6          0.2500   -0.0010   -0.1660 c1        1 278     -0.078700
      7 C7         -0.2350   -0.0140   -1.5680 c2        1 278      0.294100
      8 N8          0.8960   -0.0230   -2.4620 nh        1 278     -0.482100
      9 H11        -2.3290   -0.7350    0.4530 h1        1 278      0.050367
     10 H12        -2.2860   -0.0960    1.9440 h1        1 278      0.050367
     11 H13        -2.2870    0.8240    0.6620 h1        1 278      0.050367
     12 H3          0.0210    0.0190    2.9990 DU        1 278      0.153000
     13 H4          2.4380    0.0430    2.1460 DU        1 278      0.153000
     14 H5          2.3860    0.0210   -0.3900 DU        1 278      0.153000
     15 H71        -0.7810   -0.8210   -1.7200 h4        1 278     -0.033700
     16 H72        -0.7940    0.8080   -1.7400 h4        1 278     -0.033700
     17 H81         0.8480    0.6940   -3.0230 hn        1 278      0.196200
     18 H82         0.8930   -0.7930   -2.9500 hn        1 278      0.196200
@<TRIPOS>BOND
     1    1    2 1   
     2    1    9 1   
     3    1   10 1   
     4    1   11 1   
     5    2    3 1   
     6    2    6 1   
     7    3    4 3   
     8    4    5 1   
     9    5    6 3   
    10    7    8 2   
    11    7   15 1   
    12    7   16 1   
    13    8   17 1   
    14    8   18 1   
@<TRIPOS>SUBSTRUCTURE
     1 278         1 TEMP              0 ****  ****    0 ROOT
