@<TRIPOS>MOLECULE
279
   50    52     1     0     0
SMALL
bcc


@<TRIPOS>ATOM
      1 C1         -4.5220    1.9370   -0.2910 ca        1 279     -0.100000
      2 C2         -3.5460    2.8600   -0.6520 ca        1 279     -0.127000
      3 C3         -2.7870    0.3540    0.3130 ca        1 279     -0.059000
      4 C4          3.5990   -1.4140   -0.5630 cc        1 279     -0.083100
      5 C5         -4.1390    0.6810    0.1860 ca        1 279     -0.146600
      6 C6          3.8920   -0.1670    0.0410 cd        1 279     -0.211200
      7 C7         -2.1860    2.5530   -0.5620 ca        1 279     -0.080300
      8 C8          2.6680    0.5510    0.2200 cd        1 279     -0.017200
      9 C9         -1.7960    1.2790   -0.0730 ca        1 279      0.124600
     10 C10         1.6350   -0.2720   -0.2800 cc        1 279     -0.283600
     11 C11         0.2010   -2.2790   -1.3740 cc        1 279      0.643900
     12 C12         0.1770   -0.1680   -0.4080 cc        1 279      0.755200
     13 C13        -5.1420   -0.3380    0.6020 c         1 279      0.616700
     14 C15        -1.1800    3.5630   -0.9670 c3        1 279     -0.064800
     15 C16         2.5310    1.8820    0.8180 c3        1 279     -0.060900
     16 C17         8.5370   -0.9490    0.0130 c3        1 279     -0.120100
     17 C19         7.5480   -0.3500    1.0020 c3        1 279      0.087000
     18 N20         1.5190   -2.4870   -1.3080 nd        1 279     -0.550800
     19 N21        -0.5330   -1.1770   -0.9660 nd        1 279     -0.785000
     20 N22         2.2320   -1.4890   -0.7630 na        1 279      0.218200
     21 N23        -0.4260    0.9750    0.0880 nh        1 279     -0.727300
     22 N24         6.1720   -0.6610    0.7300 n         1 279     -0.570900
     23 N25        -6.3480   -0.3840   -0.1680 n         1 279     -0.355400
     24 O26        -4.9890   -1.0440    1.6110 o         1 279     -0.546100
     25 O27         5.5310    1.5200    0.4490 o         1 279     -0.616100
     26 O28        -7.0410   -1.5280   -0.0660 os        1 279     -0.267900
     27 H1         -5.5860    2.2090   -0.3700 ha        1 279      0.149000
     28 H2         -3.8500    3.8530   -1.0220 ha        1 279      0.141000
     29 H3         -2.5140   -0.6340    0.7230 ha        1 279      0.174000
     30 H4          4.2660   -2.2230   -0.8710 h4        1 279      0.188000
     31 H11        -0.4000   -3.0990   -1.8230 h5        1 279      0.067100
     32 H151       -0.5730    3.8920   -0.0860 hc        1 279      0.051367
     33 H152       -0.4860    3.1450   -1.7400 hc        1 279      0.051367
     34 H153       -1.6720    4.4690   -1.4010 hc        1 279      0.051367
     35 H161        2.1190    2.6100    0.0730 hc        1 279      0.060700
     36 H162        1.8560    1.8500    1.7100 hc        1 279      0.060700
     37 H163        3.5320    2.2670    1.1480 hc        1 279      0.060700
     38 H171        8.4580   -2.0620   -0.0190 hc        1 279      0.040700
     39 H172        8.3680   -0.5520   -1.0170 hc        1 279      0.040700
     40 H173        9.5720   -0.6770    0.3320 hc        1 279      0.040700
     41 H181       -7.4560   -1.5060    2.0010 h1        1 279      0.051367
     42 H182       -8.7400   -0.7470    0.9250 h1        1 279      0.051367
     43 H183       -8.4660   -2.5670    0.8820 h1        1 279      0.051367
     44 H191        7.7930   -0.7380    2.0340 h1        1 279      0.061200
     45 H192        7.6710    0.7720    1.0160 h1        1 279      0.061200
     46 H23         0.1770    1.7540    0.2520 hn        1 279      0.453800
     47 H24         5.9340   -1.6170    0.6310 hn        1 279      0.305500
     48 H25        -6.1770   -0.2240   -1.1550 hn        1 279      0.297500
     49 C14         5.2380    0.3060    0.4030 c         1 279      0.703300
     50 C18        -7.9890   -1.5650    1.0220 c3        1 279      0.114700
@<TRIPOS>BOND
     1    1    2 ar  
     2    1    5 ar  
     3    1   27 1   
     4    2    7 ar  
     5    2   28 1   
     6    3    5 ar  
     7    3    9 ar  
     8    3   29 1   
     9    4    6 2   
    10    4   20 1   
    11    4   30 1   
    12    5   13 1   
    13    6    8 1   
    14    6   49 1   
    15    7    9 ar  
    16    7   14 1   
    17    8   10 2   
    18    8   15 1   
    19    9   21 1   
    20   10   12 1   
    21   10   20 1   
    22   11   18 2   
    23   11   19 1   
    24   11   31 1   
    25   12   19 2   
    26   12   21 1   
    27   13   23 1   
    28   13   24 2   
    29   14   32 1   
    30   14   33 1   
    31   14   34 1   
    32   15   35 1   
    33   15   36 1   
    34   15   37 1   
    35   16   17 1   
    36   16   38 1   
    37   16   39 1   
    38   16   40 1   
    39   17   22 1   
    40   17   44 1   
    41   17   45 1   
    42   18   20 1   
    43   21   46 1   
    44   22   47 1   
    45   22   49 1   
    46   23   26 1   
    47   23   48 1   
    48   25   49 2   
    49   26   50 1   
    50   41   50 1   
    51   42   50 1   
    52   43   50 1   
@<TRIPOS>SUBSTRUCTURE
     1 279         1 TEMP              0 ****  ****    0 ROOT
