@<TRIPOS>MOLECULE
279
   50    40     1     0     0
SMALL
bcc


@<TRIPOS>ATOM
      1 C1         -2.3140   -0.2880   -4.3500 c1        1 279     -0.100000
      2 C2         -1.4550   -1.3710   -4.3750 c1        1 279     -0.127000
      3 C3         -1.4670    0.3470   -2.2030 c1        1 279     -0.059000
      4 C4          1.1650   -0.9580    3.4670 c1        1 279     -0.125000
      5 C5         -2.3200    0.5690   -3.2660 c1        1 279     -0.126000
      6 C6          2.0990   -0.0960    2.9640 c1        1 279     -0.102500
      7 C7         -0.5980   -1.5980   -3.3110 c1        1 279     -0.073000
      8 C8          1.9210   -0.0250    1.6180 c1        1 279     -0.102500
      9 C9         -0.6050   -0.7330   -2.2190 c1        1 279      0.043000
     10 C10         0.8490   -0.8650    1.2790 c1        1 279     -0.125000
     11 C11        -1.1750   -2.6920    1.1550 c1        1 279     -0.019000
     12 C12         0.2810   -1.2190    0.0480 c1        1 279      0.234000
     13 C13        -3.3620    1.6410   -3.1170 c1        1 279      0.290000
     14 C14         3.0350    0.6730    3.8490 c1        1 279      0.378000
     15 C15         0.3180   -2.6900   -3.9010 c3        1 279     -0.190000
     16 C16         2.9430    0.6690    0.7920 c2        1 279     -0.183000
     17 C17         3.7190    0.8210    7.5590 c3        1 279     -0.238000
     18 C18        -5.9160    3.0070   -5.3110 c3        1 279     -0.075000
     19 C19         4.1220    0.8700    6.0960 c3        1 279     -0.029000
     20 N20        -0.6200   -2.3460    2.3560 n1        1 279     -0.118000
     21 N21        -0.7210   -2.1270    0.0060 n1        1 279     -0.259000
     22 N22         0.3960   -1.4270    2.4070 n2        1 279     -0.003000
     23 N23         0.5040   -0.9580   -1.3480 n2        1 279     -0.248000
     24 N24         2.9700    0.5120    5.2600 n3        1 279     -0.380000
     25 N25        -4.3750    1.7940   -4.1030 n2        1 279     -0.196000
     26 O26        -3.3110    2.4220   -2.1590 o         1 279     -0.307000
     27 O27         3.8590    1.4370    3.3560 o         1 279     -0.377000
     28 O28        -5.1820    2.9140   -4.0860 os        1 279     -0.202000
     29 H1         -2.9000   -0.1320   -5.0770 ha        1 279      0.149000
     30 H2         -1.4540   -1.9840   -5.1550 ha        1 279      0.141000
     31 H3         -1.4730    0.9370   -1.4630 ha        1 279      0.174000
     32 H4          1.0550   -1.2020    4.4100 DU        1 279      0.188000
     33 H11        -1.9040   -3.3510    1.1230 ha        1 279      0.204000
     34 H151        0.8110   -3.1650   -3.1460 hc        1 279      0.090667
     35 H152        0.9720   -2.2770   -4.5120 hc        1 279      0.090667
     36 H153       -0.2250   -3.3400   -4.3950 hc        1 279      0.090667
     37 H161        3.8110    0.3740    1.0480 ha        1 279      0.100000
     38 H162        2.8740    1.6240    0.9260 ha        1 279      0.100000
     39 H163        2.7970    0.4670   -0.1310 ha        1 279      0.100000
     40 H171        3.0600    1.5470    7.7460 hc        1 279      0.080000
     41 H172        4.5220    0.9490    8.1260 hc        1 279      0.080000
     42 H173        3.2940   -0.0920    7.7670 hc        1 279      0.080000
     43 H181       -6.1570    3.9620   -5.4830 h1        1 279      0.090667
     44 H182       -6.7580    2.4560   -5.2410 h1        1 279      0.090667
     45 H183       -5.3450    2.6580   -6.0770 h1        1 279      0.090667
     46 H191        4.8630    0.2250    5.9340 h1        1 279      0.100500
     47 H192        4.4180    1.7670    5.8710 h1        1 279      0.100500
     48 H23         1.3440   -0.9890   -1.6850 hn        1 279      0.249000
     49 H24         2.1930    0.1880    5.6540 hn        1 279      0.219000
     50 H25        -4.5570    1.0960   -4.7000 hn        1 279      0.211000
@<TRIPOS>BOND
     1    1    5 1   
     2    1   29 1   
     3    2    7 1   
     4    2   30 1   
     5    3    9 1   
     6    3   31 1   
     7    4    6 1   
     8    4   22 1   
     9    6    8 1   
    10    7   15 1   
    11    8   10 1   
    12    9   23 1   
    13   10   22 1   
    14   11   20 1   
    15   11   33 1   
    16   12   21 1   
    17   13   26 1   
    18   14   24 1   
    19   14   27 1   
    20   15   34 1   
    21   15   35 1   
    22   15   36 1   
    23   16   37 1   
    24   16   38 1   
    25   16   39 1   
    26   17   19 1   
    27   17   40 1   
    28   17   41 1   
    29   17   42 1   
    30   18   28 1   
    31   18   43 1   
    32   18   44 1   
    33   18   45 1   
    34   19   24 1   
    35   19   46 1   
    36   19   47 1   
    37   23   48 1   
    38   24   49 1   
    39   25   28 1   
    40   25   50 1   
@<TRIPOS>SUBSTRUCTURE
     1 279         1 TEMP              0 ****  ****    0 ROOT
