@<TRIPOS>MOLECULE
279
   52    51     1     0     0
SMALL
bcc


@<TRIPOS>ATOM
      1 C1         -0.3870    0.6030    0.3780 c3        1 279     -0.080000
      2 C2          0.8180    0.0630    0.9030 c1        1 279      0.115000
      3 C3         -0.9000    0.3490    2.8430 c2        1 279      0.048000
      4 C4          2.6870   -1.4040    8.6640 c1        1 279      0.107000
      5 C5         -1.3650    0.5090    1.5220 c2        1 279     -0.291000
      6 C6          3.3880   -0.2510    8.2050 c2        1 279     -0.413000
      7 C7          1.2340   -0.5410    2.0160 c2        1 279      0.008000
      8 C8          2.8770    0.1800    6.9170 c2        1 279      0.180000
      9 C9          0.4170   -0.0340    3.1370 c2        1 279     -0.108000
     10 C10         1.8490   -0.6880    6.5630 c2        1 279     -0.363000
     11 C11         1.2160   -3.2640    5.9340 c1        1 279     -0.083000
     12 C12         1.2120   -0.9470    5.2660 c2        1 279      0.300000
     13 C13        -2.7050    0.5800    1.2370 c1        1 279      0.482000
     14 C15         2.3330   -1.5060    2.1550 c3        1 279     -0.203000
     15 C17         7.3640    0.9460   12.1010 c2        1 279     -0.242000
     16 C19         7.2030    1.7510   11.0550 c2        1 279     -0.242000
     17 N20         1.5620   -3.0670    7.1580 n2        1 279     -0.154000
     18 N21         0.9390   -2.2480    4.9760 n7        1 279     -0.194000
     19 N22         1.6540   -1.7150    7.6560 nx        1 279      0.060000
     20 N23         0.9620    0.1110    4.4220 n7        1 279     -0.251000
     21 N24         4.8590   -0.2840   10.1350 n8        1 279     -0.311000
     22 N25        -2.6990    1.7520   -1.3940 n8        1 279     -0.211000
     23 O26        -3.8480    0.6840    1.0520 o         1 279      0.061000
     24 O27         5.0090    1.4440    8.5500 oh        1 279     -0.230000
     25 O28        -2.8170    0.4380   -1.2330 oh        1 279     -0.434000
     26 H1         -0.2540    1.6750    0.0330 hc        1 279      0.224000
     27 H2         -0.7610    0.0470   -0.5460 hc        1 279      0.224000
     28 H3         -1.6130    0.4950    3.6790 ha        1 279      0.183000
     29 H4          0.7580   -1.5240    8.1430 hn        1 279      0.265000
     30 H11         0.5150   -2.5340    4.1180 hn        1 279      0.277000
     31 H151        3.0060   -1.4800    1.2580 hc        1 279      0.133333
     32 H152        2.9530   -1.2890    3.0610 hc        1 279      0.133333
     33 H153        1.9230   -2.5470    2.2450 hc        1 279      0.133333
     34 H161        3.4360    1.0670    5.0450 hc        1 279      0.126333
     35 H162        4.3930    1.6320    6.4680 hc        1 279      0.126333
     36 H163        2.6850    2.1970    6.2670 hc        1 279      0.126333
     37 H171        6.8310    1.0940   13.0520 ha        1 279      0.125750
     38 H172        8.0650    0.0970   12.0950 ha        1 279      0.125750
     39 H173        5.5970    0.1030   10.6970 hn        1 279      0.293500
     40 H181       -4.7470   -0.0150   -4.0320 ha        1 279      0.076000
     41 H182       -3.3940    0.0050   -1.9810 ho        1 279      0.280000
     42 H183       -4.5770   -1.6680   -3.2360 ha        1 279      0.076000
     43 H191        5.7290    1.7740    9.1290 ho        1 279      0.283000
     44 H192        6.5540    2.6380   11.0910 ha        1 279      0.125750
     45 H23         1.1660    1.0360    4.7430 hn        1 279      0.277000
     46 H24         7.7900    1.6400   10.1320 ha        1 279      0.125750
     47 H25        -3.6170    2.1830   -1.4810 hn        1 279      0.139000
     48 C14         4.4450    0.2960    9.0020 c2        1 279      0.414000
     49 C18        -4.3300   -0.6000   -3.2040 c1        1 279     -0.048000
     50 H242        4.4160   -1.1340   10.4390 hn        1 279      0.293500
     51 H252       -2.2130    1.9570   -2.2650 hn        1 279      0.139000
     52 C16         3.3690    1.3170    6.1340 c3        1 279     -0.226000
@<TRIPOS>BOND
     1    1    2 1   
     2    1    5 1   
     3    1   26 1   
     4    1   27 1   
     5    2    7 1   
     6    3    5 1   
     7    3    9 1   
     8    3   28 1   
     9    4    6 1   
    10    4   19 1   
    11    5   13 1   
    12    6    8 1   
    13    6   48 1   
    14    7    9 1   
    15    7   14 1   
    16    8   10 1   
    17    8   52 1   
    18    9   20 1   
    19   10   12 1   
    20   10   19 1   
    21   11   17 1   
    22   11   18 1   
    23   12   18 1   
    24   12   20 1   
    25   13   23 1   
    26   14   31 1   
    27   14   32 1   
    28   14   33 1   
    29   15   16 1   
    30   15   37 1   
    31   15   38 1   
    32   16   44 1   
    33   16   46 1   
    34   17   19 1   
    35   18   30 1   
    36   19   29 1   
    37   20   45 1   
    38   21   39 1   
    39   21   48 1   
    40   21   50 1   
    41   22   25 1   
    42   22   47 1   
    43   22   51 1   
    44   24   43 1   
    45   24   48 1   
    46   25   41 1   
    47   34   52 1   
    48   35   52 1   
    49   36   52 1   
    50   40   49 1   
    51   42   49 1   
@<TRIPOS>SUBSTRUCTURE
     1 279         1 TEMP              0 ****  ****    0 ROOT
