@<TRIPOS>MOLECULE
279
   52    54     1     0     0
SMALL
bcc


@<TRIPOS>ATOM
      1 C1          0.3000    0.0240   -0.3540 ca        1 279     -0.093000
      2 C2          1.6540   -0.1900   -0.1370 ca        1 279     -0.104000
      3 C3         -0.0160    0.3410    2.0400 ca        1 279     -0.025000
      4 C4          2.3430   -0.7950    8.1670 cc        1 279     -0.058100
      5 C5         -0.5390    0.2830    0.7400 ca        1 279     -0.195600
      6 C6          3.4410    0.0270    7.7700 cd        1 279     -0.295200
      7 C7          2.2020   -0.1680    1.1520 ca        1 279     -0.017300
      8 C8          3.2990    0.3230    6.3670 cd        1 279      0.040800
      9 C9          1.3550    0.1030    2.2600 ca        1 279      0.129600
     10 C10         2.1240   -0.3270    5.9370 cc        1 279     -0.278600
     11 C11        -0.1730   -1.7540    5.7950 cc        1 279      0.680900
     12 C12         1.3900   -0.4540    4.6660 cc        1 279      0.767200
     13 C13        -1.9690    0.5520    0.5960 c         1 279      0.582700
     14 C15         3.6520   -0.4120    1.3290 c3        1 279     -0.087800
     15 C17         5.4250    0.1760   12.3550 c3        1 279     -0.139100
     16 C19         5.5400    0.6010   10.9080 c3        1 279      0.111800
     17 N20         0.4080   -1.7200    6.9980 nd        1 279     -0.535800
     18 N21         0.2430   -1.1650    4.6110 nd        1 279     -0.781000
     19 N22         1.5490   -1.0080    7.0690 na        1 279      0.256200
     20 N23         1.9040    0.1980    3.5590 nh        1 279     -0.729300
     21 N24         4.4170    0.0750   10.0690 n4        1 279     -0.680800
     22 N25        -2.6560   -0.1730   -0.5790 n4        1 279     -0.466300
     23 O26        -2.7010    1.2480    1.2770 o         1 279     -0.399100
     24 O27         5.4910    1.1670    8.3120 o         1 279     -0.434100
     25 O28        -3.8480   -0.7250   -0.2030 os        1 279     -0.201100
     26 H1         -0.0760    0.0180   -1.3890 ha        1 279      0.140000
     27 H2          2.3170   -0.3860   -0.9990 ha        1 279      0.176000
     28 H3         -0.6930    0.5780    2.8810 ha        1 279      0.184000
     29 H4          2.0910   -1.2290    9.1400 h4        1 279      0.198000
     30 H11        -1.1180   -2.3420    5.7280 h5        1 279      0.095100
     31 H151        3.8290   -1.2450    2.0560 hc        1 279      0.073033
     32 H152        4.1630    0.5100    1.7060 hc        1 279      0.073033
     33 H153        4.1360   -0.6960    0.3590 hc        1 279      0.073033
     34 H161        5.0090    1.6060    6.1760 hc        1 279      0.078700
     35 H162        4.6890    0.5290    4.7600 hc        1 279      0.078700
     36 H163        3.6310    1.9860    5.0690 hc        1 279      0.078700
     37 H171        4.4900    0.5620   12.8310 hc        1 279      0.082033
     38 H172        6.2980    0.6090   12.9090 hc        1 279      0.082033
     39 H173        5.4620   -0.9350   12.4690 hc        1 279      0.082033
     40 H181       -5.2050    0.4590   -1.3170 h1        1 279      0.101367
     41 H182       -4.9550    0.9570    0.4540 h1        1 279      0.101367
     42 H183       -5.8150   -0.6290    0.0460 h1        1 279      0.101367
     43 H191        5.5300    1.7260   10.8200 hx        1 279      0.117200
     44 H192        6.5050    0.2250   10.4580 hx        1 279      0.117200
     45 H23         2.8550    0.5000    3.6120 hn        1 279      0.465800
     46 H24         3.5260    0.4150   10.4460 hn        1 279      0.454800
     47 H25        -2.0720   -0.9800   -0.8770 hn        1 279      0.472800
     48 C14         4.5130    0.4900    8.6040 c         1 279      0.606300
     49 C18        -5.0270    0.1100   -0.2710 c3        1 279      0.073700
     50 H242        4.4120   -0.9500   10.1170 hn        1 279      0.454800
     51 H252       -2.7780    0.4770   -1.3720 hn        1 279      0.472800
     52 C16         4.1960    1.1480    5.5540 c3        1 279     -0.082900
@<TRIPOS>BOND
     1    1    2 ar  
     2    1    5 ar  
     3    1   26 1   
     4    2    7 ar  
     5    2   27 1   
     6    3    5 ar  
     7    3    9 ar  
     8    3   28 1   
     9    4    6 2   
    10    4   19 1   
    11    4   29 1   
    12    5   13 1   
    13    6    8 1   
    14    6   48 1   
    15    7    9 ar  
    16    7   14 1   
    17    8   10 2   
    18    8   52 1   
    19    9   20 1   
    20   10   12 1   
    21   10   19 1   
    22   11   17 2   
    23   11   18 1   
    24   11   30 1   
    25   12   18 2   
    26   12   20 1   
    27   13   22 1   
    28   13   23 2   
    29   14   31 1   
    30   14   32 1   
    31   14   33 1   
    32   15   16 1   
    33   15   37 1   
    34   15   38 1   
    35   15   39 1   
    36   16   21 1   
    37   16   43 1   
    38   16   44 1   
    39   17   19 1   
    40   20   45 1   
    41   21   46 1   
    42   21   48 1   
    43   21   50 1   
    44   22   25 1   
    45   22   47 1   
    46   22   51 1   
    47   24   48 2   
    48   25   49 1   
    49   34   52 1   
    50   35   52 1   
    51   36   52 1   
    52   40   49 1   
    53   41   49 1   
    54   42   49 1   
@<TRIPOS>SUBSTRUCTURE
     1 279         1 TEMP              0 ****  ****    0 ROOT
