@<TRIPOS>MOLECULE
27A
   39    40     1     0     0
SMALL
bcc


@<TRIPOS>ATOM
      1 C1         -0.6490    0.3620    0.8440 ca        1 27A     -0.089000
      2 C2          0.7240    0.4980    0.6670 ca        1 27A     -0.175000
      3 C3          1.6430   -0.0800    1.5720 ca        1 27A      0.077600
      4 C4          1.1240   -0.8240    2.6650 ca        1 27A     -0.168300
      5 C5         -0.2640   -0.9410    2.8260 ca        1 27A     -0.105000
      6 C6         -1.1490   -0.3510    1.9320 ca        1 27A     -0.128000
      7 C7          3.8410   -0.9930    1.0100 c3        1 27A      0.158300
      8 C8          5.3550   -0.7130    1.1050 c3        1 27A      0.170300
      9 C9          4.9200    1.6490    0.8120 c3        1 27A      0.170300
     10 C10         3.4140    1.3350    0.6810 c3        1 27A      0.158300
     11 C11         7.1610    0.7900    0.5290 c3        1 27A      0.155100
     12 C12         1.9740   -1.6280    3.5960 c3        1 27A      0.090100
     13 C13         2.4250    1.2030    4.9530 c         1 27A      0.173800
     14 N5          2.2740    2.0950    3.7470 n4        1 27A     -0.706400
     15 S1          1.8670    1.6660    6.2940 s         1 27A      0.039600
     16 N4          3.2990    0.0600    4.7430 ne        1 27A     -0.128400
     17 N3          3.1220   -1.0060    4.2360 n2        1 27A     -0.077200
     18 N1          3.0490    0.1540    1.4700 nh        1 27A     -0.664000
     19 N2          5.7450    0.5170    0.4330 n3        1 27A     -0.733600
     20 H1         -1.3400    0.8080    0.1100 ha        1 27A      0.162000
     21 H2          1.0840    1.0440   -0.2200 ha        1 27A      0.157000
     22 H5         -0.6640   -1.5320    3.6680 ha        1 27A      0.151000
     23 H6         -2.2360   -0.4650    2.0710 ha        1 27A      0.164000
     24 H7          3.6150   -1.8890    1.6450 h1        1 27A      0.051450
     25 H7A         3.5810   -1.2540   -0.0570 h1        1 27A      0.051450
     26 H8          5.6590   -0.7150    2.1920 h1        1 27A      0.044450
     27 H8A         5.8870   -1.5650    0.5940 h1        1 27A      0.044450
     28 H9          5.1550    2.5000    0.1130 h1        1 27A      0.044450
     29 H9A         5.1300    1.9990    1.8660 h1        1 27A      0.044450
     30 H10         2.8280    2.2230    1.0450 h1        1 27A      0.051450
     31 H10A        3.1780    1.1990   -0.4150 h1        1 27A      0.051450
     32 H11         7.3990    1.6870   -0.1010 h1        1 27A      0.045700
     33 H11A        7.7240   -0.0930    0.1250 h1        1 27A      0.045700
     34 H11B        7.5050    0.9850    1.5820 h1        1 27A      0.045700
     35 H12         2.4040   -2.5120    3.0320 h1        1 27A      0.116200
     36 H12A        1.3400   -2.0630    4.4300 h1        1 27A      0.116200
     37 HN5         1.9350    3.0170    4.0510 hn        1 27A      0.464800
     38 HN5A        3.1680    2.2050    3.2480 hn        1 27A      0.464800
     39 H53         1.5940    1.6780    3.0940 hn        1 27A      0.464800
@<TRIPOS>BOND
     1    1    2 ar  
     2    1    6 ar  
     3    1   20 1   
     4    2    3 ar  
     5    2   21 1   
     6    3    4 ar  
     7    3   18 1   
     8    4    5 ar  
     9    4   12 1   
    10    5    6 ar  
    11    5   22 1   
    12    6   23 1   
    13    7    8 1   
    14    7   18 1   
    15    7   24 1   
    16    7   25 1   
    17    8   19 1   
    18    8   26 1   
    19    8   27 1   
    20    9   10 1   
    21    9   19 1   
    22    9   28 1   
    23    9   29 1   
    24   10   18 1   
    25   10   30 1   
    26   10   31 1   
    27   11   19 1   
    28   11   32 1   
    29   11   33 1   
    30   11   34 1   
    31   12   17 1   
    32   12   35 1   
    33   12   36 1   
    34   13   14 1   
    35   13   15 2   
    36   13   16 1   
    37   14   37 1   
    38   14   38 1   
    39   14   39 1   
    40   16   17 2   
@<TRIPOS>SUBSTRUCTURE
     1 27A         1 TEMP              0 ****  ****    0 ROOT
