@<TRIPOS>MOLECULE
27A
   39    40     1     0     0
SMALL
bcc


@<TRIPOS>ATOM
      1 C1         -0.6170    0.2650    0.7440 ca        1 27A     -0.089000
      2 C2          0.7560    0.4310    0.6040 ca        1 27A     -0.175000
      3 C3          1.6630   -0.1150    1.5410 ca        1 27A      0.077600
      4 C4          1.1310   -0.8590    2.6270 ca        1 27A     -0.168300
      5 C5         -0.2570   -1.0070    2.7520 ca        1 27A     -0.105000
      6 C6         -1.1310   -0.4480    1.8260 ca        1 27A     -0.128000
      7 C7          3.8960   -0.9820    1.0500 c3        1 27A      0.158300
      8 C8          5.4010   -0.6650    1.1830 c3        1 27A      0.170300
      9 C9          4.9190    1.6820    0.8510 c3        1 27A      0.170300
     10 C10         3.4240    1.3320    0.6830 c3        1 27A      0.158300
     11 C11         7.1860    0.8740    0.6400 c3        1 27A      0.155100
     12 C12         1.9740   -1.6330    3.5900 c3        1 27A      0.090100
     13 C13         2.3200    1.2220    4.9270 c         1 27A      0.173800
     14 N5          2.1820    2.0980    3.7070 nz        1 27A     -0.706400
     15 S1          1.7150    1.6870    6.2460 s         1 27A      0.039600
     16 N4          3.2260    0.0980    4.7540 ne        1 27A     -0.128400
     17 N3          3.0890   -0.9760    4.2550 n2        1 27A     -0.077200
     18 N1          3.0660    0.1510    1.4740 nh        1 27A     -0.664000
     19 N2          5.7810    0.5670    0.5080 n3        1 27A     -0.733600
     20 H1         -1.2980    0.6870   -0.0140 ha        1 27A      0.162000
     21 H2          1.1280    0.9770   -0.2790 ha        1 27A      0.157000
     22 H5         -0.6670   -1.5990    3.5880 ha        1 27A      0.151000
     23 H6         -2.2190   -0.5860    1.9370 ha        1 27A      0.164000
     24 H7          3.6740   -1.8760    1.6890 h1        1 27A      0.051450
     25 H7A         3.6720   -1.2600   -0.0210 h1        1 27A      0.051450
     26 H8          5.9660   -1.5090    0.6970 h1        1 27A      0.044450
     27 H8A         5.6740   -0.6470    2.2780 h1        1 27A      0.044450
     28 H9          5.1540    2.5310    0.1490 h1        1 27A      0.044450
     29 H9A         5.0910    2.0490    1.9070 h1        1 27A      0.044450
     30 H10         3.2230    1.1780   -0.4180 h1        1 27A      0.051450
     31 H10A        2.8080    2.2100    1.0200 h1        1 27A      0.051450
     32 H11         7.4210    1.7700    0.0070 h1        1 27A      0.045700
     33 H11A        7.7800    0.0010    0.2620 h1        1 27A      0.045700
     34 H11B        7.4960    1.0890    1.7000 h1        1 27A      0.045700
     35 H12         2.4400   -2.5120    3.0480 h1        1 27A      0.116200
     36 H12A        1.3270   -2.0740    4.4110 h1        1 27A      0.116200
     37 HN5         1.5310    1.6580    3.0400 hn        1 27A      0.464800
     38 HN5A        3.0870    2.2240    3.2310 hn        1 27A      0.464800
     39 H53         1.8130    3.0150    3.9910 hn        1 27A      0.464800
@<TRIPOS>BOND
     1    1    2 ar  
     2    1    6 ar  
     3    1   20 1   
     4    2    3 ar  
     5    2   21 1   
     6    3    4 ar  
     7    3   18 1   
     8    4    5 ar  
     9    4   12 1   
    10    5    6 ar  
    11    5   22 1   
    12    6   23 1   
    13    7    8 1   
    14    7   18 1   
    15    7   24 1   
    16    7   25 1   
    17    8   19 1   
    18    8   26 1   
    19    8   27 1   
    20    9   10 1   
    21    9   19 1   
    22    9   28 1   
    23    9   29 1   
    24   10   18 1   
    25   10   30 1   
    26   10   31 1   
    27   11   19 1   
    28   11   32 1   
    29   11   33 1   
    30   11   34 1   
    31   12   17 1   
    32   12   35 1   
    33   12   36 1   
    34   13   14 1   
    35   13   15 2   
    36   13   16 1   
    37   14   37 1   
    38   14   38 1   
    39   14   39 1   
    40   16   17 2   
@<TRIPOS>SUBSTRUCTURE
     1 27A         1 TEMP              0 ****  ****    0 ROOT
