@<TRIPOS>MOLECULE
27A
   39    40     1     0     0
SMALL
bcc


@<TRIPOS>ATOM
      1 C1         -0.6510    0.2290    0.8490 ca        1 27A     -0.089000
      2 C2          0.7180    0.3880    0.6640 ca        1 27A     -0.175000
      3 C3          1.6520   -0.1270    1.5920 ca        1 27A      0.077600
      4 C4          1.1510   -0.8330    2.7180 ca        1 27A     -0.168300
      5 C5         -0.2330   -0.9740    2.8880 ca        1 27A     -0.105000
      6 C6         -1.1340   -0.4460    1.9700 ca        1 27A     -0.128000
      7 C7          3.8690   -1.0130    1.0670 c3        1 27A      0.158300
      8 C8          5.3770   -0.6940    1.1450 c3        1 27A      0.170300
      9 C9          4.8860    1.6410    0.7470 c3        1 27A      0.170300
     10 C10         3.3880    1.2870    0.6340 c3        1 27A      0.158300
     11 C11         7.1470    0.8230    0.4980 c3        1 27A      0.155100
     12 C12         2.0200   -1.5740    3.6820 c3        1 27A      0.090100
     13 C13         2.4080    1.3250    4.9100 c         1 27A      0.173800
     14 N5          2.2350    2.1590    3.6650 n4        1 27A     -0.706400
     15 S1          1.8420    1.8360    6.2300 s         1 27A      0.039600
     16 N4          3.3080    0.1940    4.7490 ne        1 27A     -0.128400
     17 N3          3.1550   -0.8970    4.2910 n2        1 27A     -0.077200
     18 N1          3.0510    0.1350    1.4760 nh        1 27A     -0.664000
     19 N2          5.7380    0.5120    0.4180 n3        1 27A     -0.733600
     20 H1         -1.3540    0.6250    0.0970 ha        1 27A      0.162000
     21 H2          1.0640    0.9020   -0.2480 ha        1 27A      0.157000
     22 H5         -0.6190   -1.5350    3.7560 ha        1 27A      0.151000
     23 H6         -2.2170   -0.5780    2.1170 ha        1 27A      0.164000
     24 H7          3.6140   -1.3280    0.0130 h1        1 27A      0.051450
     25 H7A         3.6650   -1.8850    1.7420 h1        1 27A      0.051450
     26 H8          5.9280   -1.5550    0.6720 h1        1 27A      0.044450
     27 H8A         5.6820   -0.6400    2.2310 h1        1 27A      0.044450
     28 H9          5.0890    2.0430    1.7840 h1        1 27A      0.044450
     29 H9A         5.1010    2.4650    0.0100 h1        1 27A      0.044450
     30 H10         2.7820    2.1770    0.9580 h1        1 27A      0.051450
     31 H10A        3.1540    1.0960   -0.4550 h1        1 27A      0.051450
     32 H11         7.7290   -0.0640    0.1340 h1        1 27A      0.045700
     33 H11A        7.4870    1.0730    1.5400 h1        1 27A      0.045700
     34 H11B        7.3630    1.6960   -0.1720 h1        1 27A      0.045700
     35 H12         1.3980   -1.9850    4.5370 h1        1 27A      0.116200
     36 H12A        2.4700   -2.4720    3.1580 h1        1 27A      0.116200
     37 HN5         1.5640    1.6960    3.0330 hn        1 27A      0.464800
     38 HN5A        3.1250    2.2670    3.1590 hn        1 27A      0.464800
     39 H53         1.8740    3.0850    3.9280 hn        1 27A      0.464800
@<TRIPOS>BOND
     1    1    2 ar  
     2    1    6 ar  
     3    1   20 1   
     4    2    3 ar  
     5    2   21 1   
     6    3    4 ar  
     7    3   18 1   
     8    4    5 ar  
     9    4   12 1   
    10    5    6 ar  
    11    5   22 1   
    12    6   23 1   
    13    7    8 1   
    14    7   18 1   
    15    7   24 1   
    16    7   25 1   
    17    8   19 1   
    18    8   26 1   
    19    8   27 1   
    20    9   10 1   
    21    9   19 1   
    22    9   28 1   
    23    9   29 1   
    24   10   18 1   
    25   10   30 1   
    26   10   31 1   
    27   11   19 1   
    28   11   32 1   
    29   11   33 1   
    30   11   34 1   
    31   12   17 1   
    32   12   35 1   
    33   12   36 1   
    34   13   14 1   
    35   13   15 2   
    36   13   16 1   
    37   14   37 1   
    38   14   38 1   
    39   14   39 1   
    40   16   17 2   
@<TRIPOS>SUBSTRUCTURE
     1 27A         1 TEMP              0 ****  ****    0 ROOT
