@<TRIPOS>MOLECULE
27A
   38    35     1     0     0
SMALL
bcc


@<TRIPOS>ATOM
      1 C1         -3.0810    0.1440   -1.8900 c1        1 27A     -0.122000
      2 C2         -1.6880    0.0780   -1.8360 c1        1 27A     -0.153000
      3 C3         -1.0350    0.1840   -0.6120 c1        1 27A      0.011000
      4 C4         -1.7750    0.3570    0.5580 c1        1 27A     -0.045000
      5 C5         -3.1600    0.4230    0.5010 c1        1 27A     -0.113000
      6 C6         -3.8130    0.3160   -0.7280 c1        1 27A     -0.122000
      7 C7          1.0710    1.0130   -1.2810 c3        1 27A     -0.112000
      8 C8          2.5420    0.8070   -1.3450 c3        1 27A     -0.074500
      9 C9          2.2420   -1.5650   -1.0570 c3        1 27A     -0.074500
     10 C10         0.7580   -1.3550   -0.9840 c3        1 27A     -0.112000
     11 C11         2.5660   -0.6800   -3.1910 c3        1 27A     -0.126000
     12 C12        -1.0550    0.4720    1.9170 c3        1 27A     -0.120000
     13 C13        -0.7240    0.4620    4.6010 c1        1 27A     -0.012000
     14 N5          0.3370    0.4150    5.6040 n2        1 27A     -0.353000
     15 S1         -1.5210    1.8680    4.3150 s         1 27A     -0.181000
     16 N4         -1.1210   -0.7220    3.9450 n2        1 27A     -0.017000
     17 N3         -1.2800   -0.7290    2.6810 n2        1 27A     -0.006000
     18 N1          0.4080   -0.0120   -0.5320 n3        1 27A     -0.224000
     19 N2          2.8980   -0.5440   -1.8010 n3        1 27A     -0.251000
     20 H1         -3.5440    0.0670   -2.7570 ha        1 27A      0.137000
     21 H2         -1.1710   -0.0430   -2.6590 ha        1 27A      0.134000
     22 H5         -3.6450    0.5380    1.2690 ha        1 27A      0.139000
     23 H6         -4.8050    0.3640   -0.7690 ha        1 27A      0.137000
     24 H7          0.7100    1.0160   -2.2000 h1        1 27A      0.087000
     25 H7A         0.8920    1.8630   -0.8750 h1        1 27A      0.087000
     26 H8          2.9330    1.4680   -1.9660 h1        1 27A      0.095500
     27 H8A         2.9070    0.9470   -0.4840 h1        1 27A      0.095500
     28 H9          2.4270   -2.4710   -1.5130 h1        1 27A      0.095500
     29 H9A         2.6190   -1.5870   -0.1170 h1        1 27A      0.095500
     30 H10         0.3820   -2.0050   -0.3550 h1        1 27A      0.087000
     31 H10A        0.3610   -1.5120   -1.8830 h1        1 27A      0.087000
     32 H11         1.6700   -0.3180   -3.3500 h1        1 27A      0.074000
     33 H11A        3.2070   -0.1940   -3.7230 h1        1 27A      0.074000
     34 H11B        2.5860   -1.6510   -3.4470 h1        1 27A      0.074000
     35 H12        -1.4040    1.2340    2.4040 h1        1 27A      0.114500
     36 H12A       -0.0770    0.5950    1.7670 h1        1 27A      0.114500
     37 HN5         0.4890    1.1120    6.1160 hn        1 27A      0.240500
     38 HN5A        0.8910   -0.3550    5.6770 hn        1 27A      0.240500
@<TRIPOS>BOND
     1    1    6 1   
     2    1   20 1   
     3    2    3 1   
     4    2   21 1   
     5    3   18 1   
     6    4    5 1   
     7    4   12 1   
     8    5   22 1   
     9    6   23 1   
    10    7    8 1   
    11    7   18 1   
    12    7   24 1   
    13    7   25 1   
    14    8   19 1   
    15    8   26 1   
    16    8   27 1   
    17    9   10 1   
    18    9   19 1   
    19    9   28 1   
    20    9   29 1   
    21   10   18 1   
    22   10   30 1   
    23   10   31 1   
    24   11   19 1   
    25   11   32 1   
    26   11   33 1   
    27   11   34 1   
    28   12   17 1   
    29   12   35 1   
    30   12   36 1   
    31   13   15 1   
    32   13   16 1   
    33   14   37 1   
    34   14   38 1   
    35   16   17 1   
@<TRIPOS>SUBSTRUCTURE
     1 27A         1 TEMP              0 ****  ****    0 ROOT
