@<TRIPOS>MOLECULE
27A
   38    39     1     0     0
SMALL
bcc


@<TRIPOS>ATOM
      1 C1          0.4790    3.6870   -0.2760 ca        1 27A     -0.106000
      2 C2         -0.4550    2.6720   -0.4470 ca        1 27A     -0.171000
      3 C3         -0.3460    1.4500    0.2550 ca        1 27A      0.119600
      4 C4          0.7360    1.2890    1.1570 ca        1 27A     -0.116300
      5 C5          1.6640    2.3260    1.3120 ca        1 27A     -0.099000
      6 C6          1.5460    3.5170    0.6030 ca        1 27A     -0.140000
      7 C7         -2.2210    0.1200    1.0620 c3        1 27A      0.173300
      8 C8         -2.9990   -1.1890    0.8210 c3        1 27A      0.165300
      9 C9         -2.6360   -0.9460   -1.5620 c3        1 27A      0.165300
     10 C10        -1.8870    0.3770   -1.2960 c3        1 27A      0.173300
     11 C11        -4.2580   -2.5290   -0.7400 c3        1 27A      0.156100
     12 C12         0.9160    0.0830    2.0240 c3        1 27A      0.087100
     13 C13         2.0790   -1.1090   -0.5890 c         1 27A      0.504800
     14 N5          1.4960   -0.7650   -1.7680 n         1 27A     -0.579000
     15 S1          3.6590   -1.0260   -0.3300 s         1 27A     -0.506400
     16 N4          1.2170   -1.7140    0.4310 ne        1 27A     -0.156400
     17 N3          0.7820   -1.2520    1.4460 n2        1 27A     -0.125200
     18 N1         -1.2370    0.3630    0.0100 nh        1 27A     -0.639000
     19 N2         -3.5870   -1.2690   -0.5090 n3        1 27A     -0.732600
     20 H1          0.3700    4.6280   -0.8370 ha        1 27A      0.136000
     21 H2         -1.2900    2.8390   -1.1450 ha        1 27A      0.136000
     22 H5          2.5110    2.1920    2.0040 ha        1 27A      0.141000
     23 H6          2.2900    4.3150    0.7370 ha        1 27A      0.140000
     24 H7         -2.9550    0.9750    1.1370 h1        1 27A      0.044200
     25 H7A        -1.6920    0.0320    2.0490 h1        1 27A      0.044200
     26 H8         -2.3110   -2.0610    1.0280 h1        1 27A      0.041950
     27 H8A        -3.8420   -1.2260    1.5670 h1        1 27A      0.041950
     28 H9         -3.2130   -0.8260   -2.5210 h1        1 27A      0.041950
     29 H9A        -1.8770   -1.7690   -1.7140 h1        1 27A      0.041950
     30 H10        -1.1060    0.5140   -2.0930 h1        1 27A      0.044200
     31 H10A       -2.6280    1.2250   -1.3910 h1        1 27A      0.044200
     32 H11        -5.0360   -2.6720    0.0550 h1        1 27A      0.035033
     33 H11A       -4.7660   -2.4890   -1.7390 h1        1 27A      0.035033
     34 H11B       -3.5640   -3.4140   -0.7250 h1        1 27A      0.035033
     35 H12         1.9320    0.1220    2.5220 h1        1 27A      0.086200
     36 H12A        0.1430    0.1140    2.8480 h1        1 27A      0.086200
     37 HN5         2.0850   -0.5030   -2.5250 hn        1 27A      0.326000
     38 HN5A        0.5180   -0.8390   -1.9210 hn        1 27A      0.326000
@<TRIPOS>BOND
     1    1    2 ar  
     2    1    6 ar  
     3    1   20 1   
     4    2    3 ar  
     5    2   21 1   
     6    3    4 ar  
     7    3   18 1   
     8    4    5 ar  
     9    4   12 1   
    10    5    6 ar  
    11    5   22 1   
    12    6   23 1   
    13    7    8 1   
    14    7   18 1   
    15    7   24 1   
    16    7   25 1   
    17    8   19 1   
    18    8   26 1   
    19    8   27 1   
    20    9   10 1   
    21    9   19 1   
    22    9   28 1   
    23    9   29 1   
    24   10   18 1   
    25   10   30 1   
    26   10   31 1   
    27   11   19 1   
    28   11   32 1   
    29   11   33 1   
    30   11   34 1   
    31   12   17 1   
    32   12   35 1   
    33   12   36 1   
    34   13   14 1   
    35   13   15 2   
    36   13   16 1   
    37   14   37 1   
    38   14   38 1   
    39   16   17 2   
@<TRIPOS>SUBSTRUCTURE
     1 27A         1 TEMP              0 ****  ****    0 ROOT
