@<TRIPOS>MOLECULE
27B
   20    17     1     0     0
SMALL
bcc


@<TRIPOS>ATOM
      1 O14        -1.4920    1.2340    3.7090 o         1 27B     -0.543000
      2 C12        -1.2320    0.0880    3.2580 c1        1 27B      0.363000
      3 O13        -1.6020   -0.9360    3.8890 os        1 27B     -0.543000
      4 C11        -0.4920   -0.0590    1.9470 c2        1 27B     -0.039000
      5 C2         -1.1720   -0.0830    0.7360 c1        1 27B     -0.160000
      6 BR1        -3.0650   -0.0380    0.9950 br        1 27B      0.026000
      7 C10         0.8990   -0.0020    1.9640 c2        1 27B     -0.093000
      8 C9          1.6080    0.0290    0.7700 c1        1 27B     -0.146000
      9 C8          0.9190    0.0050   -0.4590 c1        1 27B     -0.051000
     10 C3         -0.4540   -0.0510   -0.4750 c2        1 27B     -0.010000
     11 C7          1.6360    0.0390   -1.6700 c2        1 27B     -0.117000
     12 C6          0.9560    0.0180   -2.8800 c1        1 27B     -0.156000
     13 C5         -0.4340   -0.0390   -2.8970 c1        1 27B     -0.148000
     14 C4         -1.1420   -0.0730   -1.7030 c2        1 27B     -0.117000
     15 H2          1.4570   -0.0130    2.7640 ha        1 27B      0.142000
     16 H3          2.5710   -0.0620    0.8960 ha        1 27B      0.113000
     17 H4          2.6140    0.0730   -1.6580 ha        1 27B      0.116000
     18 H5          1.4550    0.0230   -3.7200 ha        1 27B      0.112000
     19 H6         -0.9120   -0.0540   -3.7490 ha        1 27B      0.113000
     20 H7         -2.1180   -0.0980   -1.7150 ha        1 27B      0.138000
@<TRIPOS>BOND
     1    1    2 1   
     2    2    4 1   
     3    4    5 1   
     4    4    7 1   
     5    5   10 1   
     6    7    8 1   
     7    7   15 1   
     8    8   16 1   
     9    9   10 1   
    10    9   11 1   
    11   10   14 1   
    12   11   12 1   
    13   11   17 1   
    14   12   18 1   
    15   13   14 1   
    16   13   19 1   
    17   14   20 1   
@<TRIPOS>SUBSTRUCTURE
     1 27B         1 TEMP              0 ****  ****    0 ROOT
