@<TRIPOS>MOLECULE
27B
   20    21     1     0     0
SMALL
bcc


@<TRIPOS>ATOM
      1 O14         0.8950   -1.0680    0.6270 o         1 27B     -0.808300
      2 C12         1.2350    0.0340    0.1210 c         1 27B      0.914200
      3 O13         1.1240    1.1600    0.6720 o         1 27B     -0.808300
      4 C11         1.9070   -0.0080   -1.2570 ca        1 27B     -0.059600
      5 C2          1.2400    0.0850   -2.4600 ca        1 27B     -0.019900
      6 BR1        -0.6340    0.2780   -2.4820 br        1 27B     -0.114100
      7 C10         3.3220   -0.1540   -1.2530 ca        1 27B     -0.093000
      8 C9          4.0330   -0.2030   -2.4220 ca        1 27B     -0.146000
      9 C8          3.3640   -0.1090   -3.6730 ca        1 27B     -0.051000
     10 C3          1.9500    0.0370   -3.6990 ca        1 27B     -0.010000
     11 C7          4.0880   -0.1590   -4.8940 ca        1 27B     -0.117000
     12 C6          3.4410   -0.0680   -6.1010 ca        1 27B     -0.156000
     13 C5          2.0360    0.0770   -6.1350 ca        1 27B     -0.148000
     14 C4          1.3120    0.1280   -4.9680 ca        1 27B     -0.117000
     15 H2          3.8240   -0.2250   -0.2760 ha        1 27B      0.142000
     16 H3          5.1260   -0.3160   -2.4180 ha        1 27B      0.113000
     17 H4          5.1810   -0.2730   -4.8490 ha        1 27B      0.116000
     18 H5          4.0010   -0.1070   -7.0450 ha        1 27B      0.112000
     19 H6          1.5290    0.1490   -7.1070 ha        1 27B      0.113000
     20 H7          0.2170    0.2410   -5.0050 ha        1 27B      0.138000
@<TRIPOS>BOND
     1    1    2 1   
     2    2    3 1   
     3    2    4 1   
     4    4    5 ar  
     5    4    7 ar  
     6    5    6 1   
     7    5   10 ar  
     8    7    8 ar  
     9    7   15 1   
    10    8    9 ar  
    11    8   16 1   
    12    9   10 ar  
    13    9   11 ar  
    14   10   14 ar  
    15   11   12 ar  
    16   11   17 1   
    17   12   13 ar  
    18   12   18 1   
    19   13   14 ar  
    20   13   19 1   
    21   14   20 1   
@<TRIPOS>SUBSTRUCTURE
     1 27B         1 TEMP              0 ****  ****    0 ROOT
