@<TRIPOS>MOLECULE
27B
   20    21     1     0     0
SMALL
bcc


@<TRIPOS>ATOM
      1 O14         2.9620    1.2630   -1.0820 o         1 27B     -0.808300
      2 C12         2.3640    1.2920    0.0260 c         1 27B      0.914200
      3 O13         2.9040    1.4800    1.1470 o         1 27B     -0.808300
      4 C11         0.8360    1.1570   -0.0010 ca        1 27B     -0.059600
      5 C2          0.1500   -0.0350    0.0970 ca        1 27B     -0.019900
      6 BR1         1.0990   -1.6520    0.2790 br        1 27B     -0.114100
      7 C10         0.1080    2.3720   -0.1390 ca        1 27B     -0.093000
      8 C9         -1.2600    2.3780   -0.1750 ca        1 27B     -0.146000
      9 C8         -1.9860    1.1590   -0.0750 ca        1 27B     -0.051000
     10 C3         -1.2790   -0.0650    0.0620 ca        1 27B     -0.010000
     11 C7         -3.4060    1.1510   -0.1120 ca        1 27B     -0.117000
     12 C6         -4.1060   -0.0270   -0.0150 ca        1 27B     -0.156000
     13 C5         -3.4090   -1.2480    0.1220 ca        1 27B     -0.148000
     14 C4         -2.0360   -1.2660    0.1600 ca        1 27B     -0.117000
     15 H2          0.6860    3.3060   -0.2140 ha        1 27B      0.142000
     16 H3         -1.8220    3.3170   -0.2810 ha        1 27B      0.113000
     17 H4         -3.9330    2.1110   -0.2190 ha        1 27B      0.116000
     18 H5         -5.2040   -0.0340   -0.0430 ha        1 27B      0.112000
     19 H6         -3.9800   -2.1840    0.1980 ha        1 27B      0.113000
     20 H7         -1.5020   -2.2240    0.2670 ha        1 27B      0.138000
@<TRIPOS>BOND
     1    1    2 1   
     2    2    3 1   
     3    2    4 1   
     4    4    5 ar  
     5    4    7 ar  
     6    5    6 1   
     7    5   10 ar  
     8    7    8 ar  
     9    7   15 1   
    10    8    9 ar  
    11    8   16 1   
    12    9   10 ar  
    13    9   11 ar  
    14   10   14 ar  
    15   11   12 ar  
    16   11   17 1   
    17   12   13 ar  
    18   12   18 1   
    19   13   14 ar  
    20   13   19 1   
    21   14   20 1   
@<TRIPOS>SUBSTRUCTURE
     1 27B         1 TEMP              0 ****  ****    0 ROOT
