@<TRIPOS>MOLECULE
27C
   35    35     1     0     0
SMALL
bcc


@<TRIPOS>ATOM
      1 O1         -3.7330    2.6760    0.5520 oh        1 27C     -0.620800
      2 P           1.3540   -1.8340   -1.2280 p5        1 27C      1.418800
      3 C1         -3.6220    1.4550   -0.1330 c3        1 27C      0.306900
      4 C2         -3.7180    0.2330    0.8340 c3        1 27C      0.108600
      5 F2         -4.7750   -0.5880    0.5000 f         1 27C     -0.234300
      6 C3         -2.3470   -0.4710    0.6760 c3        1 27C      0.107100
      7 O3         -1.8390   -0.7750    1.9580 oh        1 27C     -0.613800
      8 C4         -1.4600    0.5660   -0.0420 c3        1 27C      0.091100
      9 O4         -2.3380    1.4720   -0.7340 os        1 27C     -0.432600
     10 C5         -0.5090   -0.0990   -1.0330 c3        1 27C      0.176400
     11 O5          0.2120   -1.0530   -0.3080 os        1 27C     -0.589200
     12 C1C         3.2420   -0.5600   -0.0940 c3        1 27C      0.178400
     13 C2C         4.2090    0.6080   -0.1960 c3        1 27C     -0.085400
     14 C3C         5.0860    0.6890    1.0330 c3        1 27C     -0.081400
     15 C4C         6.0560    1.8400    0.9490 c3        1 27C     -0.088100
     16 OP1         0.7960   -1.9520   -2.5860 o         1 27C     -0.819500
     17 OP2         1.8860   -2.9110   -0.3740 o         1 27C     -0.819500
     18 OP3         2.4520   -0.6050   -1.2470 os        1 27C     -0.575200
     19 HO1        -2.8890    2.8500    0.9890 ho        1 27C      0.415000
     20 H1         -4.4040    1.4550   -0.9360 h2        1 27C      0.105700
     21 H2         -3.8560    0.5880    1.8930 h1        1 27C      0.082700
     22 H3         -2.4430   -1.4090    0.0650 h1        1 27C      0.082700
     23 HO3        -0.9630   -1.1670    1.8000 ho        1 27C      0.448000
     24 H4         -0.8780    1.1620    0.7130 h1        1 27C      0.054700
     25 H5         -1.0670   -0.6030   -1.8680 h1        1 27C      0.052200
     26 H5A         0.2000    0.6530   -1.4700 h1        1 27C      0.052200
     27 H1C         3.7940   -1.5350    0.0100 h1        1 27C      0.027200
     28 H1CA        2.5660   -0.4420    0.7980 h1        1 27C      0.027200
     29 H2C         4.8400    0.4830   -1.1140 hc        1 27C      0.041200
     30 H2CA        3.6300    1.5590   -0.3220 hc        1 27C      0.041200
     31 H3C         4.4420    0.8060    1.9450 hc        1 27C      0.035700
     32 H3CA        5.6520   -0.2730    1.1520 hc        1 27C      0.035700
     33 H4C         6.6940    1.8830    1.8650 hc        1 27C      0.023367
     34 H4CA        6.7230    1.7280    0.0600 hc        1 27C      0.023367
     35 H4CB        5.5090    2.8090    0.8540 hc        1 27C      0.023367
@<TRIPOS>BOND
     1    1    3 1   
     2    1   19 1   
     3    2   11 1   
     4    2   16 1   
     5    2   17 1   
     6    2   18 1   
     7    3    4 1   
     8    3    9 1   
     9    3   20 1   
    10    4    5 1   
    11    4    6 1   
    12    4   21 1   
    13    6    7 1   
    14    6    8 1   
    15    6   22 1   
    16    7   23 1   
    17    8    9 1   
    18    8   10 1   
    19    8   24 1   
    20   10   11 1   
    21   10   25 1   
    22   10   26 1   
    23   12   13 1   
    24   12   18 1   
    25   12   27 1   
    26   12   28 1   
    27   13   14 1   
    28   13   29 1   
    29   13   30 1   
    30   14   15 1   
    31   14   31 1   
    32   14   32 1   
    33   15   33 1   
    34   15   34 1   
    35   15   35 1   
@<TRIPOS>SUBSTRUCTURE
     1 27C         1 TEMP              0 ****  ****    0 ROOT
