@<TRIPOS>MOLECULE
27C
   35    34     1     0     0
SMALL
bcc


@<TRIPOS>ATOM
      1 O1         -4.9590   -3.2870    2.3020 oh        1 27C     -0.351000
      2 P           0.6180   -0.4460   -0.5950 p3        1 27C      2.549000
      3 C1         -3.6500   -2.8180    1.9780 c3        1 27C      0.124000
      4 C2         -2.9000   -2.3480    3.2810 c3        1 27C     -0.011000
      5 F2         -1.9440   -3.1640    3.5640 f         1 27C     -0.169000
      6 C3         -2.3440   -0.9840    2.9570 c3        1 27C      0.009000
      7 O3         -3.1220    0.0700    3.6640 oh        1 27C     -0.363000
      8 C4         -2.4880   -0.8600    1.6420 c3        1 27C     -0.038000
      9 O4         -3.7240   -1.7790    1.2390 os        1 27C     -0.301000
     10 C5         -1.2490   -1.3270    0.9410 c3        1 27C      0.057000
     11 O5         -0.5220   -0.2110    0.4770 o         1 27C     -0.741000
     12 C1C         2.2810    0.9690   -1.9550 c3        1 27C      0.044000
     13 C2C         2.6090    2.3980   -2.3270 c3        1 27C     -0.188000
     14 C3C         3.9130    2.4320   -3.0990 c3        1 27C     -0.157000
     15 C4C         4.2040    3.8510   -3.5340 c3        1 27C     -0.206000
     16 OP1         1.7590   -1.2030    0.0420 o         1 27C     -1.156500
     17 OP2         0.0660   -1.2470   -1.7500 o         1 27C     -1.156500
     18 OP3         1.1410    0.9490   -1.1240 os        1 27C     -0.725000
     19 HO1        -5.0890   -4.0850    1.9310 ho        1 27C      0.215000
     20 H1         -3.1390   -3.5210    1.5250 h2        1 27C      0.137000
     21 H2         -3.5260   -2.2890    4.0280 h1        1 27C      0.123000
     22 H3         -1.3990   -0.9340    3.2030 h1        1 27C      0.133000
     23 HO3        -2.6780    0.3310    4.3890 ho        1 27C      0.274000
     24 H4         -2.6740    0.0720    1.4120 h1        1 27C      0.112000
     25 H5         -1.4970   -1.8930    0.1820 h1        1 27C      0.071000
     26 H5A        -0.6950   -1.8400    1.5650 h1        1 27C      0.071000
     27 H1C         2.1010    0.4530   -2.7680 h1        1 27C      0.063500
     28 H1CA        3.0390    0.5730   -1.4780 h1        1 27C      0.063500
     29 H2C         2.6970    2.9340   -1.5140 hc        1 27C      0.090500
     30 H2CA        1.8910    2.7630   -2.8820 hc        1 27C      0.090500
     31 H3C         3.8400    1.8570   -3.8870 hc        1 27C      0.071500
     32 H3CA        4.6390    2.1110   -2.5270 hc        1 27C      0.071500
     33 H4C         5.0620    3.8770   -4.0080 hc        1 27C      0.063667
     34 H4CA        3.4910    4.1620   -4.1300 hc        1 27C      0.063667
     35 H4CB        4.2480    4.4320   -2.7460 hc        1 27C      0.063667
@<TRIPOS>BOND
     1    1    3 1   
     2    1   19 1   
     3    2   16 1   
     4    2   17 1   
     5    2   18 1   
     6    3    4 1   
     7    3    9 1   
     8    3   20 1   
     9    4    5 1   
    10    4    6 1   
    11    4   21 1   
    12    6    7 1   
    13    6    8 1   
    14    6   22 1   
    15    7   23 1   
    16    8    9 1   
    17    8   10 1   
    18    8   24 1   
    19   10   11 1   
    20   10   25 1   
    21   10   26 1   
    22   12   13 1   
    23   12   18 1   
    24   12   27 1   
    25   12   28 1   
    26   13   14 1   
    27   13   29 1   
    28   13   30 1   
    29   14   15 1   
    30   14   31 1   
    31   14   32 1   
    32   15   33 1   
    33   15   34 1   
    34   15   35 1   
@<TRIPOS>SUBSTRUCTURE
     1 27C         1 TEMP              0 ****  ****    0 ROOT
