@<TRIPOS>MOLECULE
27D
   50    54     1     0     0
SMALL
bcc


@<TRIPOS>ATOM
      1 C01        -0.0280    0.8490    0.0590 c3        1 27D     -0.150400
      2 C02         1.4120    0.4450    0.0680 ca        1 27D      0.423600
      3 C03         2.0370    0.1740    1.3080 ca        1 27D     -0.241300
      4 C04         3.3740   -0.2140    1.3190 ca        1 27D     -0.087000
      5 C05         4.0590   -0.3290    0.1080 ca        1 27D     -0.237300
      6 C06         3.3650   -0.0430   -1.0850 ca        1 27D      0.413600
      7 C07         4.0950   -0.1560   -2.3940 c3        1 27D     -0.195700
      8 C08         3.6620   -1.3910   -3.1630 c         1 27D      0.688100
      9 O           2.9410   -2.2750   -2.6830 o         1 27D     -0.535100
     10 N01         4.1410   -1.5160   -4.4800 n         1 27D     -0.264200
     11 C09         4.9990   -0.6070   -5.1470 cc        1 27D     -0.082400
     12 C10         5.2590   -1.0440   -6.4330 cd        1 27D     -0.142200
     13 C11         4.5410   -2.2900   -6.6180 ca        1 27D     -0.139800
     14 C12         3.8490   -2.5630   -5.3850 ca        1 27D      0.037600
     15 C13         3.0550   -3.7070   -5.2420 ca        1 27D     -0.130000
     16 C14         2.9550   -4.5650   -6.3270 ca        1 27D     -0.087000
     17 C15         3.6170   -4.3320   -7.5510 ca        1 27D     -0.069800
     18 C16         3.4210   -5.2720   -8.6340 cc        1 27D     -0.056400
     19 C17         2.1800   -5.5610   -9.2120 cd        1 27D     -0.105100
     20 N02         2.3160   -6.5370  -10.2060 na        1 27D     -0.162100
     21 C18         1.2780   -7.0110  -11.0620 c3        1 27D      0.030600
     22 C19         3.6720   -6.8800  -10.2940 ca        1 27D      0.469800
     23 N03         4.2700   -7.7860  -11.1330 nb        1 27D     -0.741000
     24 C20         5.6020   -7.8810  -10.9420 ca        1 27D      0.679900
     25 N04         6.4060   -7.2230  -10.0620 nb        1 27D     -0.794000
     26 C21         5.8060   -6.3270   -9.2120 ca        1 27D      0.733200
     27 N05         6.5530   -5.6910   -8.2380 nv        1 27D     -0.942500
     28 C22         4.3950   -6.1000   -9.3020 ca        1 27D     -0.354400
     29 C           4.4190   -3.1810   -7.6970 ca        1 27D      0.156900
     30 F           5.0760   -2.9230   -8.8520 f         1 27D     -0.133900
     31 N           2.0670    0.3410   -1.1130 nb        1 27D     -0.657000
     32 H1         -0.3670    1.0870    1.0950 hc        1 27D      0.055367
     33 H2         -0.1890    1.7470   -0.5880 hc        1 27D      0.055367
     34 H3         -0.6530    0.0120   -0.3420 hc        1 27D      0.055367
     35 H4          1.4690    0.2690    2.2430 ha        1 27D      0.145000
     36 H5          3.8850   -0.4320    2.2680 ha        1 27D      0.141000
     37 H6          5.1110   -0.6410    0.0830 ha        1 27D      0.142000
     38 H7          5.2000   -0.2250   -2.2030 hc        1 27D      0.086200
     39 H8          3.9010    0.7630   -3.0140 hc        1 27D      0.086200
     40 H9          5.3580    0.2890   -4.6370 h4        1 27D      0.170000
     41 H10         5.8790   -0.5590   -7.1830 ha        1 27D      0.169000
     42 H11         2.5290   -3.9140   -4.2970 ha        1 27D      0.173000
     43 H12         2.3380   -5.4730   -6.2380 ha        1 27D      0.147000
     44 H13         1.1990   -5.1390   -8.9820 h4        1 27D      0.174000
     45 H14         1.4540   -8.0940  -11.3060 h1        1 27D      0.056700
     46 H15         0.2880   -6.9000  -10.5450 h1        1 27D      0.056700
     47 H16         1.2610   -6.4240  -12.0200 h1        1 27D      0.056700
     48 H17         6.1310   -8.6000  -11.6040 h5        1 27D      0.048100
     49 H18         7.5420   -5.7260   -8.3010 hn        1 27D      0.429300
     50 H19         6.1520   -4.8820   -7.8290 hn        1 27D      0.429300
@<TRIPOS>BOND
     1    1    2 1   
     2    1   32 1   
     3    1   33 1   
     4    1   34 1   
     5    2    3 ar  
     6    2   31 ar  
     7    3    4 ar  
     8    3   35 1   
     9    4    5 ar  
    10    4   36 1   
    11    5    6 ar  
    12    5   37 1   
    13    6    7 1   
    14    6   31 ar  
    15    7    8 1   
    16    7   38 1   
    17    7   39 1   
    18    8    9 2   
    19    8   10 1   
    20   10   11 1   
    21   10   14 1   
    22   11   12 2   
    23   11   40 1   
    24   12   13 1   
    25   12   41 1   
    26   13   14 ar  
    27   13   29 ar  
    28   14   15 ar  
    29   15   16 ar  
    30   15   42 1   
    31   16   17 ar  
    32   16   43 1   
    33   17   18 1   
    34   17   29 ar  
    35   18   19 2   
    36   18   28 1   
    37   19   20 1   
    38   19   44 1   
    39   20   21 1   
    40   20   22 1   
    41   21   45 1   
    42   21   46 1   
    43   21   47 1   
    44   22   23 ar  
    45   22   28 ar  
    46   23   24 ar  
    47   24   25 ar  
    48   24   48 1   
    49   25   26 ar  
    50   26   27 1   
    51   26   28 ar  
    52   27   49 1   
    53   27   50 1   
    54   29   30 1   
@<TRIPOS>SUBSTRUCTURE
     1 27D         1 TEMP              0 ****  ****    0 ROOT
