@<TRIPOS>MOLECULE
27D
   50    54     1     0     0
SMALL
bcc


@<TRIPOS>ATOM
      1 C01        -0.0290    0.8740    0.0390 c3        1 27D     -0.150400
      2 C02         1.4080    0.4600    0.0560 ca        1 27D      0.423600
      3 C03         2.0240    0.1850    1.2990 ca        1 27D     -0.241300
      4 C04         3.3580   -0.2120    1.3180 ca        1 27D     -0.087000
      5 C05         4.0490   -0.3320    0.1110 ca        1 27D     -0.237300
      6 C06         3.3640   -0.0410   -1.0870 ca        1 27D      0.413600
      7 C07         4.1000   -0.1600   -2.3910 c3        1 27D     -0.195700
      8 C08         3.6620   -1.3920   -3.1620 c         1 27D      0.688100
      9 O           2.9330   -2.2720   -2.6860 o         1 27D     -0.535100
     10 N01         4.1470   -1.5200   -4.4760 n         1 27D     -0.264200
     11 C09         5.0140   -0.6170   -5.1400 cc        1 27D     -0.082400
     12 C10         5.2780   -1.0560   -6.4240 cd        1 27D     -0.142200
     13 C11         4.5520   -2.2980   -6.6120 ca        1 27D     -0.139800
     14 C12         3.8530   -2.5660   -5.3820 ca        1 27D      0.037600
     15 C13         3.0500   -3.7050   -5.2440 ca        1 27D     -0.130000
     16 C14         2.9500   -4.5620   -6.3290 ca        1 27D     -0.087000
     17 C15         3.6190   -4.3340   -7.5500 ca        1 27D     -0.069800
     18 C16         3.4220   -5.2720   -8.6340 cc        1 27D     -0.056400
     19 C17         2.1820   -5.5530   -9.2170 cd        1 27D     -0.105100
     20 N02         2.3160   -6.5300  -10.2110 na        1 27D     -0.162100
     21 C18         1.2800   -6.9980  -11.0710 c3        1 27D      0.030600
     22 C19         3.6710   -6.8820  -10.2920 ca        1 27D      0.469800
     23 N03         4.2670   -7.7920  -11.1280 nb        1 27D     -0.741000
     24 C20         5.5970   -7.8960  -10.9310 ca        1 27D      0.679900
     25 N04         6.4020   -7.2430  -10.0470 nb        1 27D     -0.794000
     26 C21         5.8030   -6.3430   -9.2000 ca        1 27D      0.733200
     27 N05         6.5490   -5.7120   -8.2230 nh        1 27D     -0.942500
     28 C22         4.3940   -6.1070   -9.2960 ca        1 27D     -0.354400
     29 C           4.4300   -3.1880   -7.6920 ca        1 27D      0.156900
     30 F           5.0940   -2.9340   -8.8440 f         1 27D     -0.133900
     31 N           2.0680    0.3510   -1.1210 nb        1 27D     -0.657000
     32 H1         -0.3740    1.1100    1.0750 hc        1 27D      0.055367
     33 H2         -0.1800    1.7760   -0.6040 hc        1 27D      0.055367
     34 H3         -0.6570    0.0440   -0.3700 hc        1 27D      0.055367
     35 H4          1.4520    0.2840    2.2320 ha        1 27D      0.145000
     36 H5          3.8630   -0.4340    2.2700 ha        1 27D      0.141000
     37 H6          5.0990   -0.6510    0.0920 ha        1 27D      0.142000
     38 H7          5.2030   -0.2360   -2.1940 hc        1 27D      0.086200
     39 H8          3.9160    0.7600   -3.0120 hc        1 27D      0.086200
     40 H9          5.3770    0.2770   -4.6280 h4        1 27D      0.170000
     41 H10         5.9040   -0.5760   -7.1710 ha        1 27D      0.169000
     42 H11         2.5180   -3.9080   -4.3010 ha        1 27D      0.173000
     43 H12         2.3260   -5.4670   -6.2430 ha        1 27D      0.147000
     44 H13         1.2030   -5.1250   -8.9920 h4        1 27D      0.174000
     45 H14         1.4500   -8.0810  -11.3150 h1        1 27D      0.056700
     46 H15         0.2880   -6.8810  -10.5590 h1        1 27D      0.056700
     47 H16         1.2710   -6.4100  -12.0290 h1        1 27D      0.056700
     48 H17         6.1250   -8.6190  -11.5900 h5        1 27D      0.048100
     49 H18         7.5390   -5.7530   -8.2810 hn        1 27D      0.429300
     50 H19         6.1520   -4.9000   -7.8150 hn        1 27D      0.429300
@<TRIPOS>BOND
     1    1    2 1   
     2    1   32 1   
     3    1   33 1   
     4    1   34 1   
     5    2    3 ar  
     6    2   31 ar  
     7    3    4 ar  
     8    3   35 1   
     9    4    5 ar  
    10    4   36 1   
    11    5    6 ar  
    12    5   37 1   
    13    6    7 1   
    14    6   31 ar  
    15    7    8 1   
    16    7   38 1   
    17    7   39 1   
    18    8    9 2   
    19    8   10 1   
    20   10   11 1   
    21   10   14 1   
    22   11   12 2   
    23   11   40 1   
    24   12   13 1   
    25   12   41 1   
    26   13   14 ar  
    27   13   29 ar  
    28   14   15 ar  
    29   15   16 ar  
    30   15   42 1   
    31   16   17 ar  
    32   16   43 1   
    33   17   18 1   
    34   17   29 ar  
    35   18   19 2   
    36   18   28 1   
    37   19   20 1   
    38   19   44 1   
    39   20   21 1   
    40   20   22 1   
    41   21   45 1   
    42   21   46 1   
    43   21   47 1   
    44   22   23 ar  
    45   22   28 ar  
    46   23   24 ar  
    47   24   25 ar  
    48   24   48 1   
    49   25   26 ar  
    50   26   27 1   
    51   26   28 ar  
    52   27   49 1   
    53   27   50 1   
    54   29   30 1   
@<TRIPOS>SUBSTRUCTURE
     1 27D         1 TEMP              0 ****  ****    0 ROOT
