@<TRIPOS>MOLECULE
27D
   50    54     1     0     0
SMALL
bcc


@<TRIPOS>ATOM
      1 C01        -0.0290    0.8500    0.0580 c3        1 27D     -0.150400
      2 C02         1.4090    0.4410    0.0700 ca        1 27D      0.423600
      3 C03         2.0300    0.1660    1.3100 ca        1 27D     -0.241300
      4 C04         3.3660   -0.2270    1.3240 ca        1 27D     -0.087000
      5 C05         4.0530   -0.3400    0.1140 ca        1 27D     -0.237300
      6 C06         3.3630   -0.0500   -1.0810 ca        1 27D      0.413600
      7 C07         4.0960   -0.1620   -2.3880 c3        1 27D     -0.195700
      8 C08         3.6610   -1.3950   -3.1590 c         1 27D      0.688100
      9 O           2.9370   -2.2780   -2.6830 o         1 27D     -0.535100
     10 N01         4.1430   -1.5190   -4.4760 n         1 27D     -0.264200
     11 C09         5.0050   -0.6110   -5.1400 cc        1 27D     -0.082400
     12 C10         5.2670   -1.0460   -6.4250 cd        1 27D     -0.142200
     13 C11         4.5450   -2.2910   -6.6140 ca        1 27D     -0.139800
     14 C12         3.8500   -2.5640   -5.3830 ca        1 27D      0.037600
     15 C13         3.0520   -3.7060   -5.2450 ca        1 27D     -0.130000
     16 C14         2.9530   -4.5610   -6.3320 ca        1 27D     -0.087000
     17 C15         3.6180   -4.3290   -7.5540 ca        1 27D     -0.069800
     18 C16         3.4220   -5.2660   -8.6390 cc        1 27D     -0.056400
     19 C17         2.1810   -5.5500   -9.2190 cd        1 27D     -0.105100
     20 N02         2.3170   -6.5240  -10.2150 na        1 27D     -0.162100
     21 C18         1.2800   -6.9950  -11.0740 c3        1 27D      0.030600
     22 C19         3.6730   -6.8710  -10.3000 ca        1 27D      0.469800
     23 N03         4.2700   -7.7780  -11.1390 nb        1 27D     -0.741000
     24 C20         5.6010   -7.8770  -10.9460 ca        1 27D      0.679900
     25 N04         6.4050   -7.2230  -10.0630 nb        1 27D     -0.794000
     26 C21         5.8060   -6.3260   -9.2120 ca        1 27D      0.733200
     27 N05         6.5520   -5.6950   -8.2360 nh        1 27D     -0.942500
     28 C22         4.3960   -6.0960   -9.3050 ca        1 27D     -0.354400
     29 C           4.4240   -3.1800   -7.6950 ca        1 27D      0.156900
     30 F           5.0840   -2.9210   -8.8480 f         1 27D     -0.133900
     31 N           2.0660    0.3380   -1.1100 nb        1 27D     -0.657000
     32 H1         -0.1880    1.7480   -0.5890 hc        1 27D      0.055367
     33 H2         -0.6560    0.0140   -0.3430 hc        1 27D      0.055367
     34 H3         -0.3700    1.0900    1.0940 hc        1 27D      0.055367
     35 H4          1.4610    0.2610    2.2440 ha        1 27D      0.145000
     36 H5          3.8740   -0.4480    2.2740 ha        1 27D      0.141000
     37 H6          5.1040   -0.6550    0.0910 ha        1 27D      0.142000
     38 H7          5.2000   -0.2350   -2.1940 hc        1 27D      0.086200
     39 H8          3.9060    0.7580   -3.0060 hc        1 27D      0.086200
     40 H9          5.3650    0.2830   -4.6270 h4        1 27D      0.170000
     41 H10         5.8890   -0.5620   -7.1730 ha        1 27D      0.169000
     42 H11         2.5230   -3.9130   -4.3010 ha        1 27D      0.173000
     43 H12         2.3330   -5.4680   -6.2450 ha        1 27D      0.147000
     44 H13         1.2020   -5.1260   -8.9910 h4        1 27D      0.174000
     45 H14         0.2890   -6.8820  -10.5590 h1        1 27D      0.056700
     46 H15         1.4540   -8.0770  -11.3190 h1        1 27D      0.056700
     47 H16         1.2670   -6.4050  -12.0310 h1        1 27D      0.056700
     48 H17         6.1290   -8.5970  -11.6080 h5        1 27D      0.048100
     49 H18         7.5420   -5.7320   -8.2970 hn        1 27D      0.429300
     50 H19         6.1520   -4.8850   -7.8260 hn        1 27D      0.429300
@<TRIPOS>BOND
     1    1    2 1   
     2    1   32 1   
     3    1   33 1   
     4    1   34 1   
     5    2    3 ar  
     6    2   31 ar  
     7    3    4 ar  
     8    3   35 1   
     9    4    5 ar  
    10    4   36 1   
    11    5    6 ar  
    12    5   37 1   
    13    6    7 1   
    14    6   31 ar  
    15    7    8 1   
    16    7   38 1   
    17    7   39 1   
    18    8    9 2   
    19    8   10 1   
    20   10   11 1   
    21   10   14 1   
    22   11   12 2   
    23   11   40 1   
    24   12   13 1   
    25   12   41 1   
    26   13   14 ar  
    27   13   29 ar  
    28   14   15 ar  
    29   15   16 ar  
    30   15   42 1   
    31   16   17 ar  
    32   16   43 1   
    33   17   18 1   
    34   17   29 ar  
    35   18   19 2   
    36   18   28 1   
    37   19   20 1   
    38   19   44 1   
    39   20   21 1   
    40   20   22 1   
    41   21   45 1   
    42   21   46 1   
    43   21   47 1   
    44   22   23 ar  
    45   22   28 ar  
    46   23   24 ar  
    47   24   25 ar  
    48   24   48 1   
    49   25   26 ar  
    50   26   27 1   
    51   26   28 ar  
    52   27   49 1   
    53   27   50 1   
    54   29   30 1   
@<TRIPOS>SUBSTRUCTURE
     1 27D         1 TEMP              0 ****  ****    0 ROOT
