@<TRIPOS>MOLECULE
27F
   28    30     1     0     0
SMALL
bcc


@<TRIPOS>ATOM
      1 CAB         2.0580   -1.5350   -0.5120 c         1 27F      0.709100
      2 OAA         2.4950   -2.6510   -0.8450 o         1 27F     -0.619500
      3 CAK         2.8830   -0.3610   -0.1750 ca        1 27F     -0.186600
      4 CAJ         4.2810   -0.4470   -0.2130 ca        1 27F     -0.060000
      5 CAI         5.0480    0.6640    0.1060 ca        1 27F     -0.149000
      6 CAH         4.4250    1.8670    0.4640 ca        1 27F     -0.095000
      7 CAG         3.0440    1.9730    0.5070 ca        1 27F     -0.120000
      8 CAF         2.2390    0.8520    0.1850 ca        1 27F      0.177400
      9 CAD         0.1260   -0.1100   -0.0730 cc        1 27F      0.534500
     10 CAL        -1.3610   -0.0260   -0.0320 ca        1 27F     -0.124900
     11 CAQ        -2.1020   -1.0200    0.6190 ca        1 27F     -0.101000
     12 CAP        -3.4910   -0.9360    0.6590 ca        1 27F     -0.096500
     13 CAO        -4.1450    0.1430    0.0470 ca        1 27F      0.003000
     14 CAR        -5.5640    0.2270    0.0840 cg        1 27F      0.226800
     15 NAS        -6.7250    0.2950    0.1140 n1        1 27F     -0.347800
     16 CAN        -3.4010    1.1410   -0.5980 ca        1 27F     -0.096500
     17 N           0.6660   -1.3490   -0.4430 n         1 27F     -0.494400
     18 CAM        -2.0100    1.0570   -0.6350 ca        1 27F     -0.101000
     19 N1          0.8420    0.9590    0.2300 nd        1 27F     -0.609100
     20 H           0.0610   -2.1050   -0.6730 hn        1 27F      0.339500
     21 HAJ         4.7490   -1.4040   -0.4970 ha        1 27F      0.160000
     22 HAI         6.1460    0.6030    0.0790 ha        1 27F      0.142000
     23 HAH         5.0450    2.7420    0.7160 ha        1 27F      0.139000
     24 HAG         2.5660    2.9240    0.7920 ha        1 27F      0.154000
     25 HAM        -1.4250    1.8470   -1.1330 ha        1 27F      0.155000
     26 HAQ        -1.5960   -1.8610    1.1170 ha        1 27F      0.155000
     27 HAN        -3.9130    1.9920   -1.0730 ha        1 27F      0.152500
     28 HAP        -4.0760   -1.7150    1.1730 ha        1 27F      0.152500
@<TRIPOS>BOND
     1    1    2 2   
     2    1    3 1   
     3    1   17 1   
     4    3    4 ar  
     5    3    8 ar  
     6    4    5 ar  
     7    4   21 1   
     8    5    6 ar  
     9    5   22 1   
    10    6    7 ar  
    11    6   23 1   
    12    7    8 ar  
    13    7   24 1   
    14    8   19 1   
    15    9   10 1   
    16    9   17 1   
    17    9   19 2   
    18   10   11 ar  
    19   10   18 ar  
    20   11   12 ar  
    21   11   26 1   
    22   12   13 ar  
    23   12   28 1   
    24   13   14 1   
    25   13   16 ar  
    26   14   15 3   
    27   16   18 ar  
    28   16   27 1   
    29   17   20 1   
    30   18   25 1   
@<TRIPOS>SUBSTRUCTURE
     1 27F         1 TEMP              0 ****  ****    0 ROOT
