@<TRIPOS>MOLECULE
27F
   28    23     1     0     0
SMALL
bcc


@<TRIPOS>ATOM
      1 CAB        -0.3670   -0.0350    2.4910 c1        1 27F      0.346000
      2 OAA        -0.9710   -0.0170    3.5460 o         1 27F     -0.344000
      3 CAK         1.1400   -0.0210    2.4860 c1        1 27F     -0.166000
      4 CAJ         1.8490   -0.0230    3.6990 c2        1 27F     -0.060000
      5 CAI         3.2370   -0.0110    3.6920 c1        1 27F     -0.149000
      6 CAH         3.9260    0.0030    2.4850 c1        1 27F     -0.107500
      7 CAG         3.2270    0.0050    1.2870 c1        1 27F     -0.107500
      8 CAF         1.8210   -0.0080    1.2940 c1        1 27F      0.038000
      9 CAD        -0.3600   -0.0180    0.0400 c1        1 27F      0.156000
     10 CAL        -1.1210   -0.0020   -1.2670 c1        1 27F     -0.041000
     11 CAQ        -1.4690    1.2060   -1.8520 c2        1 27F     -0.085000
     12 CAP        -2.1680    1.2200   -3.0480 c1        1 27F     -0.098000
     13 CAO        -2.5190    0.0280   -3.6610 c1        1 27F      0.007000
     14 CAR        -3.2460    0.0440   -4.9880 c1        1 27F     -0.103000
     15 NAS        -3.7930    0.0560   -5.9870 n1        1 27F     -0.022000
     16 CAN        -2.1710   -1.1800   -3.0770 c1        1 27F     -0.095000
     17 N          -1.0710   -0.0330    1.2790 n3        1 27F     -0.334000
     18 CAM        -1.4720   -1.1950   -1.8800 c1        1 27F     -0.117000
     19 N1          1.0850   -0.0060    0.0350 n2        1 27F     -0.182000
     20 H          -1.9840   -0.0440    1.2820 hn        1 27F      0.253000
     21 HAJ         1.3660   -0.0330    4.5470 ha        1 27F      0.160000
     22 HAI         3.7300   -0.0130    4.5350 ha        1 27F      0.142000
     23 HAH         4.9020    0.0110    2.4810 ha        1 27F      0.146500
     24 HAG         3.7110    0.0150    0.4390 ha        1 27F      0.146500
     25 HAM        -1.2270   -2.0450   -1.4680 ha        1 27F      0.148000
     26 HAQ        -1.2220    2.0460   -1.4200 ha        1 27F      0.162000
     27 HAN        -2.4180   -2.0200   -3.5080 ha        1 27F      0.152000
     28 HAP        -2.4130    2.0710   -3.4600 ha        1 27F      0.153000
@<TRIPOS>BOND
     1    1    2 1   
     2    1   17 1   
     3    3    4 1   
     4    3    8 1   
     5    4    5 1   
     6    4   21 1   
     7    5   22 1   
     8    6    7 1   
     9    6   23 1   
    10    7   24 1   
    11    8   19 1   
    12    9   17 1   
    13    9   19 1   
    14   10   11 1   
    15   10   18 1   
    16   11   12 1   
    17   11   26 1   
    18   12   28 1   
    19   13   16 1   
    20   14   15 1   
    21   16   27 1   
    22   17   20 1   
    23   18   25 1   
@<TRIPOS>SUBSTRUCTURE
     1 27F         1 TEMP              0 ****  ****    0 ROOT
