@<TRIPOS>MOLECULE
27F
   28    30     1     0     0
SMALL
bcc


@<TRIPOS>ATOM
      1 CAB         0.0850    0.5380   -0.0330 c         1 27F      0.709100
      2 OAA        -0.5820    0.9060    0.9500 o         1 27F     -0.619500
      3 CAK         1.5110    0.1660   -0.0040 ca        1 27F     -0.186600
      4 CAJ         2.2270    0.2080    1.1990 ca        1 27F     -0.060000
      5 CAI         3.5690   -0.1440    1.2140 ca        1 27F     -0.149000
      6 CAH         4.2040   -0.5400    0.0290 ca        1 27F     -0.095000
      7 CAG         3.5140   -0.5890   -1.1710 ca        1 27F     -0.120000
      8 CAF         2.1430   -0.2330   -1.2130 ca        1 27F      0.177400
      9 CAD         0.1650    0.0530   -2.4230 cc        1 27F      0.534500
     10 CAL        -0.6030    0.0060   -3.6990 ca        1 27F     -0.124900
     11 CAQ        -1.8570   -0.6140   -3.7410 ca        1 27F     -0.101000
     12 CAP        -2.5710   -0.6580   -4.9360 ca        1 27F     -0.096500
     13 CAO        -2.0310   -0.0810   -6.0940 ca        1 27F      0.003000
     14 CAR        -2.7610   -0.1230   -7.3140 cg        1 27F      0.226800
     15 NAS        -3.3590   -0.1560   -8.3110 n1        1 27F     -0.347800
     16 CAN        -0.7720    0.5330   -6.0520 ca        1 27F     -0.096500
     17 N          -0.5460    0.4610   -1.2870 n         1 27F     -0.494400
     18 CAM        -0.0580    0.5750   -4.8560 ca        1 27F     -0.101000
     19 N1          1.4440   -0.2830   -2.4270 nd        1 27F     -0.609100
     20 H          -1.5050    0.7140   -1.3660 hn        1 27F      0.339500
     21 HAJ         1.7080    0.5220    2.1190 ha        1 27F      0.160000
     22 HAI         4.1370   -0.1140    2.1560 ha        1 27F      0.142000
     23 HAH         5.2690   -0.8190    0.0540 ha        1 27F      0.139000
     24 HAG         4.0230   -0.9030   -2.0950 ha        1 27F      0.154000
     25 HAM         0.9360    1.0490   -4.8260 ha        1 27F      0.155000
     26 HAQ        -2.2810   -1.0850   -2.8400 ha        1 27F      0.155000
     27 HAN        -0.3450    0.9810   -6.9630 ha        1 27F      0.152500
     28 HAP        -3.5560   -1.1490   -4.9710 ha        1 27F      0.152500
@<TRIPOS>BOND
     1    1    2 2   
     2    1    3 1   
     3    1   17 1   
     4    3    4 ar  
     5    3    8 ar  
     6    4    5 ar  
     7    4   21 1   
     8    5    6 ar  
     9    5   22 1   
    10    6    7 ar  
    11    6   23 1   
    12    7    8 ar  
    13    7   24 1   
    14    8   19 1   
    15    9   10 1   
    16    9   17 1   
    17    9   19 2   
    18   10   11 ar  
    19   10   18 ar  
    20   11   12 ar  
    21   11   26 1   
    22   12   13 ar  
    23   12   28 1   
    24   13   14 1   
    25   13   16 ar  
    26   14   15 3   
    27   16   18 ar  
    28   16   27 1   
    29   17   20 1   
    30   18   25 1   
@<TRIPOS>SUBSTRUCTURE
     1 27F         1 TEMP              0 ****  ****    0 ROOT
