@<TRIPOS>MOLECULE
27F
   28    30     1     0     0
SMALL
bcc


@<TRIPOS>ATOM
      1 CAB         0.0810    0.5270   -0.0310 c         1 27F      0.709100
      2 OAA        -0.5880    0.8890    0.9530 o         1 27F     -0.619500
      3 CAK         1.5080    0.1590   -0.0030 ca        1 27F     -0.186600
      4 CAJ         2.2230    0.1980    1.2010 ca        1 27F     -0.060000
      5 CAI         3.5660   -0.1510    1.2160 ca        1 27F     -0.149000
      6 CAH         4.2030   -0.5410    0.0310 ca        1 27F     -0.095000
      7 CAG         3.5140   -0.5860   -1.1710 ca        1 27F     -0.120000
      8 CAF         2.1420   -0.2340   -1.2120 ca        1 27F      0.177400
      9 CAD         0.1650    0.0520   -2.4230 cc        1 27F      0.534500
     10 CAL        -0.6020    0.0090   -3.7000 ca        1 27F     -0.124900
     11 CAQ        -1.8550   -0.6150   -3.7450 ca        1 27F     -0.101000
     12 CAP        -2.5670   -0.6560   -4.9410 ca        1 27F     -0.096500
     13 CAO        -2.0280   -0.0730   -6.0970 ca        1 27F      0.003000
     14 CAR        -2.7570   -0.1110   -7.3170 cg        1 27F      0.226800
     15 NAS        -3.3530   -0.1420   -8.3150 n1        1 27F     -0.347800
     16 CAN        -0.7700    0.5450   -6.0510 ca        1 27F     -0.096500
     17 N          -0.5480    0.4540   -1.2860 ns        1 27F     -0.494400
     18 CAM        -0.0580    0.5830   -4.8540 ca        1 27F     -0.101000
     19 N1          1.4450   -0.2810   -2.4270 nd        1 27F     -0.609100
     20 H          -1.5080    0.7040   -1.3650 hn        1 27F      0.339500
     21 HAJ         1.7020    0.5070    2.1220 ha        1 27F      0.160000
     22 HAI         4.1330   -0.1230    2.1590 ha        1 27F      0.142000
     23 HAH         5.2690   -0.8160    0.0550 ha        1 27F      0.139000
     24 HAG         4.0250   -0.8950   -2.0960 ha        1 27F      0.154000
     25 HAM         0.9350    1.0590   -4.8210 ha        1 27F      0.155000
     26 HAQ        -2.2780   -1.0910   -2.8470 ha        1 27F      0.155000
     27 HAN        -0.3440    0.9970   -6.9600 ha        1 27F      0.152500
     28 HAP        -3.5510   -1.1480   -4.9790 ha        1 27F      0.152500
@<TRIPOS>BOND
     1    1    2 2   
     2    1    3 1   
     3    1   17 1   
     4    3    4 ar  
     5    3    8 ar  
     6    4    5 ar  
     7    4   21 1   
     8    5    6 ar  
     9    5   22 1   
    10    6    7 ar  
    11    6   23 1   
    12    7    8 ar  
    13    7   24 1   
    14    8   19 1   
    15    9   10 1   
    16    9   17 1   
    17    9   19 2   
    18   10   11 ar  
    19   10   18 ar  
    20   11   12 ar  
    21   11   26 1   
    22   12   13 ar  
    23   12   28 1   
    24   13   14 1   
    25   13   16 ar  
    26   14   15 3   
    27   16   18 ar  
    28   16   27 1   
    29   17   20 1   
    30   18   25 1   
@<TRIPOS>SUBSTRUCTURE
     1 27F         1 TEMP              0 ****  ****    0 ROOT
