@<TRIPOS>MOLECULE
27F
   28    30     1     0     0
SMALL
bcc


@<TRIPOS>ATOM
      1 CAB         0.1190    0.5500   -0.0030 c         1 27F      0.709100
      2 OAA        -0.5410    0.9020    0.9910 o         1 27F     -0.619500
      3 CAK         1.5490    0.1930    0.0070 ca        1 27F     -0.186600
      4 CAJ         2.2780    0.2310    1.2020 ca        1 27F     -0.060000
      5 CAI         3.6240   -0.1070    1.1990 ca        1 27F     -0.149000
      6 CAH         4.2490   -0.4860    0.0040 ca        1 27F     -0.095000
      7 CAG         3.5460   -0.5300   -1.1890 ca        1 27F     -0.120000
      8 CAF         2.1710   -0.1890   -1.2120 ca        1 27F      0.177400
      9 CAD         0.1780    0.0870   -2.3980 cc        1 27F      0.534500
     10 CAL        -0.6040    0.0450   -3.6660 ca        1 27F     -0.124900
     11 CAQ        -1.8520   -0.5880   -3.6990 ca        1 27F     -0.101000
     12 CAP        -2.5790   -0.6290   -4.8870 ca        1 27F     -0.096500
     13 CAO        -2.0580   -0.0360   -6.0460 ca        1 27F      0.003000
     14 CAR        -2.8010   -0.0740   -7.2570 cg        1 27F      0.226800
     15 NAS        -3.4090   -0.1050   -8.2490 n1        1 27F     -0.347800
     16 CAN        -0.8050    0.5910   -6.0120 ca        1 27F     -0.096500
     17 N          -0.5250    0.4780   -1.2500 n         1 27F     -0.494400
     18 CAM        -0.0780    0.6290   -4.8230 ca        1 27F     -0.101000
     19 N1          1.4600   -0.2350   -2.4190 nd        1 27F     -0.609100
     20 H          -1.4880    0.7220   -1.3160 hn        1 27F      0.339500
     21 HAJ         1.7660    0.5320    2.1310 ha        1 27F      0.160000
     22 HAI         4.2020   -0.0790    2.1350 ha        1 27F      0.142000
     23 HAH         5.3180   -0.7530    0.0150 ha        1 27F      0.139000
     24 HAG         4.0490   -0.8310   -2.1220 ha        1 27F      0.154000
     25 HAM         0.9110    1.1130   -4.8000 ha        1 27F      0.155000
     26 HAQ        -2.2610   -1.0710   -2.7990 ha        1 27F      0.155000
     27 HAN        -0.3930    1.0510   -6.9230 ha        1 27F      0.152500
     28 HAP        -3.5600   -1.1290   -4.9160 ha        1 27F      0.152500
@<TRIPOS>BOND
     1    1    2 2   
     2    1    3 1   
     3    1   17 1   
     4    3    4 ar  
     5    3    8 ar  
     6    4    5 ar  
     7    4   21 1   
     8    5    6 ar  
     9    5   22 1   
    10    6    7 ar  
    11    6   23 1   
    12    7    8 ar  
    13    7   24 1   
    14    8   19 1   
    15    9   10 1   
    16    9   17 1   
    17    9   19 2   
    18   10   11 ar  
    19   10   18 ar  
    20   11   12 ar  
    21   11   26 1   
    22   12   13 ar  
    23   12   28 1   
    24   13   14 1   
    25   13   16 ar  
    26   14   15 3   
    27   16   18 ar  
    28   16   27 1   
    29   17   20 1   
    30   18   25 1   
@<TRIPOS>SUBSTRUCTURE
     1 27F         1 TEMP              0 ****  ****    0 ROOT
