@<TRIPOS>MOLECULE
27G
   43    44     1     0     0
SMALL
bcc


@<TRIPOS>ATOM
      1 CAA         0.1560    0.9400    0.0280 c3        1 27G     -0.092100
      2 CAM         1.5460    0.3600   -0.0050 c3        1 27G     -0.079400
      3 CAN         2.2010    0.4260    1.3570 c3        1 27G     -0.086400
      4 CAO         3.5980   -0.1630    1.2940 c3        1 27G      0.139400
      5 OAQ         4.1310   -0.0570    2.6280 os        1 27G     -0.434900
      6 CAS         5.3770   -0.5880    2.8220 c         1 27G      0.645700
      7 OAB         5.9740   -1.0580    1.8520 o         1 27G     -0.522000
      8 CAV         5.8480   -0.4700    4.2160 ca        1 27G     -0.072600
      9 CAK         5.6300    0.7260    4.9100 ca        1 27G     -0.090000
     10 CAG         6.1200    0.8850    6.2050 ca        1 27G     -0.117000
     11 CAH         6.8300   -0.1490    6.8150 ca        1 27G     -0.115000
     12 CAL         7.0400   -1.3480    6.1360 ca        1 27G     -0.092000
     13 CAW         6.5390   -1.5200    4.8410 ca        1 27G     -0.071600
     14 CAT         6.7170   -2.8250    4.1740 c         1 27G      0.647700
     15 OAC         5.8740   -3.5090    3.5910 o         1 27G     -0.519000
     16 OAR         7.9910   -3.3120    4.2850 os        1 27G     -0.430900
     17 CAP         8.2390   -4.5810    3.6460 c3        1 27G      0.183700
     18 CAU         9.6620   -4.9460    3.9040 ca        1 27G     -0.095300
     19 CAI         9.9950   -6.2910    4.1050 ca        1 27G     -0.112000
     20 CAE        11.3240   -6.6570    4.3030 ca        1 27G     -0.132500
     21 CAD        12.3260   -5.6860    4.3110 ca        1 27G     -0.125000
     22 CAF        11.9950   -4.3450    4.1170 ca        1 27G     -0.132500
     23 CAJ        10.6670   -3.9740    3.9120 ca        1 27G     -0.112000
     24 H1         -0.4890    0.3800    0.7480 hc        1 27G      0.035033
     25 H2         -0.3120    0.8820   -0.9840 hc        1 27G      0.035033
     26 H3          0.1820    2.0110    0.3440 hc        1 27G      0.035033
     27 H4          2.1710    0.9200   -0.7500 hc        1 27G      0.042700
     28 H5          1.5010   -0.7080   -0.3480 hc        1 27G      0.042700
     29 H6          2.2580    1.4900    1.7080 hc        1 27G      0.054700
     30 H7          1.5910   -0.1390    2.1090 hc        1 27G      0.054700
     31 H8          3.5840   -1.2420    0.9940 h1        1 27G      0.055700
     32 H9          4.2630    0.4080    0.5960 h1        1 27G      0.055700
     33 H10         5.0640    1.5360    4.4220 ha        1 27G      0.156000
     34 H11         5.9460    1.8290    6.7440 ha        1 27G      0.143000
     35 H12         7.2260   -0.0210    7.8340 ha        1 27G      0.144000
     36 H13         7.6050   -2.1680    6.6090 ha        1 27G      0.157000
     37 H14         8.0460   -4.4650    2.5450 h1        1 27G      0.065700
     38 H15         7.5280   -5.3400    4.0670 h1        1 27G      0.065700
     39 H16         9.2070   -7.0580    4.1040 ha        1 27G      0.139500
     40 H17        11.5830   -7.7150    4.4570 ha        1 27G      0.132500
     41 H18        13.3740   -5.9780    4.4700 ha        1 27G      0.131000
     42 H19        12.7830   -3.5770    4.1250 ha        1 27G      0.132500
     43 H20        10.3990   -2.9170    3.7610 ha        1 27G      0.139500
@<TRIPOS>BOND
     1    1    2 1   
     2    1   24 1   
     3    1   25 1   
     4    1   26 1   
     5    2    3 1   
     6    2   27 1   
     7    2   28 1   
     8    3    4 1   
     9    3   29 1   
    10    3   30 1   
    11    4    5 1   
    12    4   31 1   
    13    4   32 1   
    14    5    6 1   
    15    6    7 2   
    16    6    8 1   
    17    8    9 ar  
    18    8   13 ar  
    19    9   10 ar  
    20    9   33 1   
    21   10   11 ar  
    22   10   34 1   
    23   11   12 ar  
    24   11   35 1   
    25   12   13 ar  
    26   12   36 1   
    27   13   14 1   
    28   14   15 2   
    29   14   16 1   
    30   16   17 1   
    31   17   18 1   
    32   17   37 1   
    33   17   38 1   
    34   18   19 ar  
    35   18   23 ar  
    36   19   20 ar  
    37   19   39 1   
    38   20   21 ar  
    39   20   40 1   
    40   21   22 ar  
    41   21   41 1   
    42   22   23 ar  
    43   22   42 1   
    44   23   43 1   
@<TRIPOS>SUBSTRUCTURE
     1 27G         1 TEMP              0 ****  ****    0 ROOT
