@<TRIPOS>MOLECULE
27G
   43    44     1     0     0
SMALL
bcc


@<TRIPOS>ATOM
      1 CAA         0.1520    0.9240    0.0210 c3        1 27G     -0.092100
      2 CAM         1.5370    0.3320   -0.0080 c3        1 27G     -0.079400
      3 CAN         2.1980    0.4140    1.3510 c3        1 27G     -0.086400
      4 CAO         3.5890   -0.1870    1.2920 c3        1 27G      0.139400
      5 OAQ         4.1280   -0.0670    2.6230 os        1 27G     -0.434900
      6 CAS         5.3710   -0.6030    2.8200 c         1 27G      0.645700
      7 OAB         5.9610   -1.0910    1.8540 o         1 27G     -0.522000
      8 CAV         5.8480   -0.4680    4.2100 ca        1 27G     -0.073600
      9 CAK         5.6350    0.7360    4.8900 ca        1 27G     -0.090000
     10 CAG         6.1310    0.9110    6.1810 ca        1 27G     -0.117000
     11 CAH         6.8420   -0.1160    6.8010 ca        1 27G     -0.115000
     12 CAL         7.0480   -1.3240    6.1360 ca        1 27G     -0.092000
     13 CAW         6.5410   -1.5110    4.8450 ca        1 27G     -0.071600
     14 CAT         6.7150   -2.8250    4.1930 c         1 27G      0.647700
     15 OAC         5.8680   -3.5170    3.6280 o         1 27G     -0.519000
     16 OAR         7.9920   -3.3070    4.2980 os        1 27G     -0.430900
     17 CAP         8.2360   -4.5830    3.6720 c3        1 27G      0.183700
     18 CAU         9.6620   -4.9410    3.9180 ca        1 27G     -0.095300
     19 CAI        10.0010   -6.2820    4.1330 ca        1 27G     -0.112000
     20 CAE        11.3340   -6.6430    4.3210 ca        1 27G     -0.132500
     21 CAD        12.3320   -5.6690    4.3050 ca        1 27G     -0.125000
     22 CAF        11.9960   -4.3310    4.0980 ca        1 27G     -0.132500
     23 CAJ        10.6650   -3.9670    3.9030 ca        1 27G     -0.112000
     24 H1         -0.4940    0.3800    0.7510 hc        1 27G      0.035033
     25 H2         -0.3200    0.8550   -0.9880 hc        1 27G      0.035033
     26 H3          0.1890    2.0000    0.3210 hc        1 27G      0.035033
     27 H4          2.1640    0.8760   -0.7640 hc        1 27G      0.042700
     28 H5          1.4820   -0.7400   -0.3340 hc        1 27G      0.042700
     29 H6          2.2640    1.4820    1.6850 hc        1 27G      0.054700
     30 H7          1.5850   -0.1350    2.1130 hc        1 27G      0.054700
     31 H8          3.5660   -1.2710    1.0070 h1        1 27G      0.055700
     32 H9          4.2570    0.3680    0.5830 h1        1 27G      0.055700
     33 H10         5.0680    1.5410    4.3950 ha        1 27G      0.157000
     34 H11         5.9600    1.8610    6.7090 ha        1 27G      0.143000
     35 H12         7.2430    0.0240    7.8160 ha        1 27G      0.144000
     36 H13         7.6140   -2.1380    6.6160 ha        1 27G      0.157000
     37 H14         8.0290   -4.4820    2.5720 h1        1 27G      0.065700
     38 H15         7.5320   -5.3390    4.1120 h1        1 27G      0.065700
     39 H16         9.2150   -7.0520    4.1510 ha        1 27G      0.139500
     40 H17        11.5980   -7.6980    4.4850 ha        1 27G      0.132500
     41 H18        13.3830   -5.9560    4.4560 ha        1 27G      0.131000
     42 H19        12.7810   -3.5610    4.0870 ha        1 27G      0.132500
     43 H20        10.3920   -2.9120    3.7420 ha        1 27G      0.139500
@<TRIPOS>BOND
     1    1    2 1   
     2    1   24 1   
     3    1   25 1   
     4    1   26 1   
     5    2    3 1   
     6    2   27 1   
     7    2   28 1   
     8    3    4 1   
     9    3   29 1   
    10    3   30 1   
    11    4    5 1   
    12    4   31 1   
    13    4   32 1   
    14    5    6 1   
    15    6    7 2   
    16    6    8 1   
    17    8    9 ar  
    18    8   13 ar  
    19    9   10 ar  
    20    9   33 1   
    21   10   11 ar  
    22   10   34 1   
    23   11   12 ar  
    24   11   35 1   
    25   12   13 ar  
    26   12   36 1   
    27   13   14 1   
    28   14   15 2   
    29   14   16 1   
    30   16   17 1   
    31   17   18 1   
    32   17   37 1   
    33   17   38 1   
    34   18   19 ar  
    35   18   23 ar  
    36   19   20 ar  
    37   19   39 1   
    38   20   21 ar  
    39   20   40 1   
    40   21   22 ar  
    41   21   41 1   
    42   22   23 ar  
    43   22   42 1   
    44   23   43 1   
@<TRIPOS>SUBSTRUCTURE
     1 27G         1 TEMP              0 ****  ****    0 ROOT
