@<TRIPOS>MOLECULE
27H
   56    58     1     0     0
SMALL
bcc


@<TRIPOS>ATOM
      1 CAB         0.0440   -0.1570   -0.1340 c3        1 27H     -0.092600
      2 CAV         1.5580   -0.1320   -0.0420 c3        1 27H     -0.093700
      3 CAC         2.1180    0.9620   -0.9280 c3        1 27H     -0.092600
      4 CAZ         2.0300   -0.0290    1.4210 c3        1 27H      0.168800
      5 CAX         3.5760   -0.0420    1.5620 c3        1 27H     -0.047700
      6 OAG         1.5520   -1.1570    2.1510 oh        1 27H     -0.594800
      7 CAO         1.5730    1.2810    2.1070 c3        1 27H     -0.110400
      8 CAN         2.8160    1.9450    2.6820 c3        1 27H     -0.074400
      9 CAY         3.8680    0.8280    2.8070 c3        1 27H     -0.041000
     10 CAD         3.6350    0.0890    4.1140 c3        1 27H     -0.091100
     11 CAM         5.2820    1.3970    2.7590 c3        1 27H     -0.034200
     12 CAH         6.3200    0.4150    3.1540 c2        1 27H     -0.172200
     13 CAR         6.5200   -0.7880    2.5930 c2        1 27H     -0.107400
     14 CAA         7.5850   -1.6950    3.0940 c3        1 27H     -0.061900
     15 CAP         5.7620   -1.3070    1.4240 c3        1 27H     -0.064200
     16 CAW         4.2470   -1.4090    1.6280 c3        1 27H      0.177100
     17 OAQ         3.7360   -2.1720    0.5080 os        1 27H     -0.439900
     18 CAS         3.7010   -3.5340    0.6370 c         1 27H      0.657700
     19 OAE         4.1320   -4.0490    1.6740 o         1 27H     -0.550000
     20 CAU         3.1430   -4.2310   -0.5320 ca        1 27H     -0.169600
     21 CAK         2.8480   -3.5510   -1.7210 ca        1 27H     -0.038000
     22 CAI         2.3250   -4.2350   -2.8110 ca        1 27H     -0.205000
     23 CAT         2.0960   -5.6190   -2.7040 ca        1 27H      0.155100
     24 OAF         1.5770   -6.2400   -3.8130 oh        1 27H     -0.492100
     25 CAJ         2.3890   -6.3090   -1.5180 ca        1 27H     -0.205000
     26 CAL         2.9140   -5.6100   -0.4360 ca        1 27H     -0.038000
     27 H1         -0.3650   -1.0820    0.3410 hc        1 27H      0.035200
     28 H2         -0.2760   -0.1550   -1.2040 hc        1 27H      0.035200
     29 H3         -0.4050    0.7320    0.3690 hc        1 27H      0.035200
     30 H4          1.9420   -1.1240   -0.4240 hc        1 27H      0.075700
     31 H5          1.5220    1.0400   -1.8700 hc        1 27H      0.035200
     32 H6          2.0970    1.9550   -0.4180 hc        1 27H      0.035200
     33 H7          3.1750    0.7360   -1.2130 hc        1 27H      0.035200
     34 H8          3.9870    0.4960    0.6620 hc        1 27H      0.060700
     35 H9          0.5890   -1.1030    2.1590 ho        1 27H      0.399000
     36 H10         0.8500    1.0380    2.9270 hc        1 27H      0.049700
     37 H11         1.0560    1.9610    1.3880 hc        1 27H      0.049700
     38 H12         2.6070    2.4170    3.6720 hc        1 27H      0.044200
     39 H13         3.1870    2.7430    1.9900 hc        1 27H      0.044200
     40 H14         2.6330   -0.4070    4.0970 hc        1 27H      0.044033
     41 H15         4.4170   -0.6900    4.2820 hc        1 27H      0.044033
     42 H16         3.6710    0.8090    4.9680 hc        1 27H      0.044033
     43 H17         5.3270    2.2810    3.4500 hc        1 27H      0.045700
     44 H18         5.4990    1.7750    1.7230 hc        1 27H      0.045700
     45 H19         6.9590    0.7350    3.9950 ha        1 27H      0.120000
     46 H20         8.3130   -1.9230    2.2750 hc        1 27H      0.043367
     47 H21         8.1460   -1.2430    3.9480 hc        1 27H      0.043367
     48 H22         7.1320   -2.6590    3.4370 hc        1 27H      0.043367
     49 H23         6.1290   -2.3380    1.1630 hc        1 27H      0.057200
     50 H24         5.9650   -0.6480    0.5360 hc        1 27H      0.057200
     51 H25         3.9900   -1.9420    2.5840 h1        1 27H      0.099700
     52 H26         3.0340   -2.4660   -1.7870 ha        1 27H      0.158000
     53 H27         2.0900   -3.7170   -3.7520 ha        1 27H      0.147500
     54 H28         1.4720   -7.1810   -3.6100 ho        1 27H      0.424000
     55 H29         2.2070   -7.3910   -1.4450 ha        1 27H      0.147500
     56 H30         3.1540   -6.1330    0.5050 ha        1 27H      0.158000
@<TRIPOS>BOND
     1    1    2 1   
     2    1   27 1   
     3    1   28 1   
     4    1   29 1   
     5    2    3 1   
     6    2    4 1   
     7    2   30 1   
     8    3   31 1   
     9    3   32 1   
    10    3   33 1   
    11    4    5 1   
    12    4    6 1   
    13    4    7 1   
    14    5    9 1   
    15    5   16 1   
    16    5   34 1   
    17    6   35 1   
    18    7    8 1   
    19    7   36 1   
    20    7   37 1   
    21    8    9 1   
    22    8   38 1   
    23    8   39 1   
    24    9   10 1   
    25    9   11 1   
    26   10   40 1   
    27   10   41 1   
    28   10   42 1   
    29   11   12 1   
    30   11   43 1   
    31   11   44 1   
    32   12   13 2   
    33   12   45 1   
    34   13   14 1   
    35   13   15 1   
    36   14   46 1   
    37   14   47 1   
    38   14   48 1   
    39   15   16 1   
    40   15   49 1   
    41   15   50 1   
    42   16   17 1   
    43   16   51 1   
    44   17   18 1   
    45   18   19 2   
    46   18   20 1   
    47   20   21 ar  
    48   20   26 ar  
    49   21   22 ar  
    50   21   52 1   
    51   22   23 ar  
    52   22   53 1   
    53   23   24 1   
    54   23   25 ar  
    55   24   54 1   
    56   25   26 ar  
    57   25   55 1   
    58   26   56 1   
@<TRIPOS>SUBSTRUCTURE
     1 27H         1 TEMP              0 ****  ****    0 ROOT
