@<TRIPOS>MOLECULE
27H
   56    58     1     0     0
SMALL
bcc


@<TRIPOS>ATOM
      1 CAB         0.0370   -0.1670   -0.1250 c3        1 27H     -0.092600
      2 CAV         1.5510   -0.1390   -0.0350 c3        1 27H     -0.093700
      3 CAC         2.1080    0.9570   -0.9210 c3        1 27H     -0.092600
      4 CAZ         2.0260   -0.0360    1.4270 c3        1 27H      0.168800
      5 CAX         3.5720   -0.0460    1.5650 c3        1 27H     -0.047700
      6 OAG         1.5510   -1.1650    2.1580 oh        1 27H     -0.594800
      7 CAO         1.5680    1.2730    2.1150 c3        1 27H     -0.110400
      8 CAN         2.8100    1.9390    2.6880 c3        1 27H     -0.074400
      9 CAY         3.8650    0.8240    2.8100 c3        1 27H     -0.041000
     10 CAD         3.6350    0.0840    4.1180 c3        1 27H     -0.091100
     11 CAM         5.2770    1.3960    2.7600 c3        1 27H     -0.034200
     12 CAH         6.3170    0.4150    3.1530 c2        1 27H     -0.172200
     13 CAR         6.5200   -0.7860    2.5910 c2        1 27H     -0.107400
     14 CAA         7.5880   -1.6920    3.0890 c3        1 27H     -0.061900
     15 CAP         5.7610   -1.3060    1.4230 c3        1 27H     -0.064200
     16 CAW         4.2460   -1.4120    1.6290 c3        1 27H      0.177100
     17 OAQ         3.7340   -2.1750    0.5090 os        1 27H     -0.439900
     18 CAS         3.7030   -3.5370    0.6370 c         1 27H      0.657700
     19 OAE         4.1370   -4.0510    1.6730 o         1 27H     -0.550000
     20 CAU         3.1440   -4.2340   -0.5300 ca        1 27H     -0.169600
     21 CAK         2.8450   -3.5540   -1.7190 ca        1 27H     -0.038000
     22 CAI         2.3230   -4.2390   -2.8090 ca        1 27H     -0.205000
     23 CAT         2.0970   -5.6230   -2.7020 ca        1 27H      0.155100
     24 OAF         1.5780   -6.2450   -3.8110 oh        1 27H     -0.492100
     25 CAJ         2.3940   -6.3140   -1.5170 ca        1 27H     -0.205000
     26 CAL         2.9190   -5.6140   -0.4350 ca        1 27H     -0.038000
     27 H1         -0.2850   -0.1650   -1.1940 hc        1 27H      0.035200
     28 H2         -0.3690   -1.0930    0.3510 hc        1 27H      0.035200
     29 H3         -0.4130    0.7210    0.3800 hc        1 27H      0.035200
     30 H4          1.9370   -1.1300   -0.4180 hc        1 27H      0.075700
     31 H5          2.0850    1.9490   -0.4110 hc        1 27H      0.035200
     32 H6          1.5100    1.0340   -1.8620 hc        1 27H      0.035200
     33 H7          3.1640    0.7330   -1.2080 hc        1 27H      0.035200
     34 H8          3.9800    0.4940    0.6650 hc        1 27H      0.060700
     35 H9          0.5890   -1.1130    2.1670 ho        1 27H      0.399000
     36 H10         1.0480    1.9520    1.3970 hc        1 27H      0.049700
     37 H11         0.8460    1.0280    2.9350 hc        1 27H      0.049700
     38 H12         3.1780    2.7380    1.9960 hc        1 27H      0.044200
     39 H13         2.6020    2.4100    3.6790 hc        1 27H      0.044200
     40 H14         3.6710    0.8030    4.9720 hc        1 27H      0.044033
     41 H15         2.6340   -0.4140    4.1020 hc        1 27H      0.044033
     42 H16         4.4190   -0.6940    4.2840 hc        1 27H      0.044033
     43 H17         5.4920    1.7750    1.7240 hc        1 27H      0.045700
     44 H18         5.3220    2.2800    3.4520 hc        1 27H      0.045700
     45 H19         6.9580    0.7360    3.9930 ha        1 27H      0.120000
     46 H20         7.1370   -2.6570    3.4330 hc        1 27H      0.043367
     47 H21         8.3140   -1.9170    2.2690 hc        1 27H      0.043367
     48 H22         8.1490   -1.2390    3.9430 hc        1 27H      0.043367
     49 H23         5.9610   -0.6460    0.5350 hc        1 27H      0.057200
     50 H24         6.1290   -2.3370    1.1610 hc        1 27H      0.057200
     51 H25         3.9920   -1.9450    2.5860 h1        1 27H      0.099700
     52 H26         3.0290   -2.4690   -1.7840 ha        1 27H      0.158000
     53 H27         2.0840   -3.7210   -3.7480 ha        1 27H      0.147500
     54 H28         1.4750   -7.1860   -3.6080 ho        1 27H      0.424000
     55 H29         2.2150   -7.3960   -1.4450 ha        1 27H      0.147500
     56 H30         3.1630   -6.1380    0.5040 ha        1 27H      0.158000
@<TRIPOS>BOND
     1    1    2 1   
     2    1   27 1   
     3    1   28 1   
     4    1   29 1   
     5    2    3 1   
     6    2    4 1   
     7    2   30 1   
     8    3   31 1   
     9    3   32 1   
    10    3   33 1   
    11    4    5 1   
    12    4    6 1   
    13    4    7 1   
    14    5    9 1   
    15    5   16 1   
    16    5   34 1   
    17    6   35 1   
    18    7    8 1   
    19    7   36 1   
    20    7   37 1   
    21    8    9 1   
    22    8   38 1   
    23    8   39 1   
    24    9   10 1   
    25    9   11 1   
    26   10   40 1   
    27   10   41 1   
    28   10   42 1   
    29   11   12 1   
    30   11   43 1   
    31   11   44 1   
    32   12   13 2   
    33   12   45 1   
    34   13   14 1   
    35   13   15 1   
    36   14   46 1   
    37   14   47 1   
    38   14   48 1   
    39   15   16 1   
    40   15   49 1   
    41   15   50 1   
    42   16   17 1   
    43   16   51 1   
    44   17   18 1   
    45   18   19 2   
    46   18   20 1   
    47   20   21 ar  
    48   20   26 ar  
    49   21   22 ar  
    50   21   52 1   
    51   22   23 ar  
    52   22   53 1   
    53   23   24 1   
    54   23   25 ar  
    55   24   54 1   
    56   25   26 ar  
    57   25   55 1   
    58   26   56 1   
@<TRIPOS>SUBSTRUCTURE
     1 27H         1 TEMP              0 ****  ****    0 ROOT
