@<TRIPOS>MOLECULE
27J
   49    50     1     0     0
SMALL
bcc


@<TRIPOS>ATOM
      1 CAO         0.0790    0.1280   -0.5530 c3        1 27J     -0.111400
      2 CAK         1.5320    0.1560   -0.1240 c3        1 27J     -0.083400
      3 CAM         1.6820   -0.1170    1.3580 c3        1 27J     -0.099400
      4 CAV         3.1170   -0.2850    1.8470 c3        1 27J      0.163100
      5 CAA         4.1820    0.2770    0.9350 c3        1 27J     -0.125100
      6 OAP         3.3890   -1.6490    2.2230 os        1 27J     -0.430900
      7 CAQ         3.4930   -2.6350    1.2880 c         1 27J      0.678700
      8 OAB         3.2990   -2.3840    0.0970 o         1 27J     -0.545000
      9 CAU         3.8280   -3.9460    1.8830 ca        1 27J     -0.181600
     10 CAS         5.1440   -4.2030    2.3190 ca        1 27J      0.203100
     11 OAD         6.0580   -3.1890    2.1740 oh        1 27J     -0.486100
     12 CAF         5.5010   -5.4430    2.8630 ca        1 27J     -0.259000
     13 CAR         4.5120   -6.4300    2.9680 ca        1 27J      0.185100
     14 OAC         4.9070   -7.6290    3.5080 oh        1 27J     -0.492100
     15 CAG         3.1980   -6.1910    2.5420 ca        1 27J     -0.256000
     16 CAT         2.8550   -4.9490    2.0010 ca        1 27J      0.041700
     17 CAL         1.4480   -4.7130    1.5640 c3        1 27J     -0.050100
     18 CAI         1.2430   -5.1050    0.1110 c3        1 27J     -0.081400
     19 CAH        -0.1930   -4.9000   -0.3380 c3        1 27J     -0.076400
     20 CAJ        -0.3850   -3.6670   -1.1970 c3        1 27J     -0.075400
     21 CAN        -0.1270   -2.3910   -0.4280 c3        1 27J     -0.081400
     22 CAW        -0.3000   -1.1520   -1.2980 c3        1 27J      0.143100
     23 OAE        -1.6720   -1.1050   -1.6810 oh        1 27J     -0.603800
     24 H1         -0.1240    0.9980   -1.2320 hc        1 27J      0.042700
     25 H2         -0.5990    0.2410    0.3340 hc        1 27J      0.042700
     26 H3          2.1220   -0.6010   -0.7100 hc        1 27J      0.057200
     27 H4          1.9690    1.1630   -0.3550 hc        1 27J      0.057200
     28 H5          1.2180    0.7310    1.9290 hc        1 27J      0.050200
     29 H6          1.1100   -1.0470    1.6260 hc        1 27J      0.050200
     30 H7          3.2050    0.2140    2.8630 h1        1 27J      0.068700
     31 H8          4.1720   -0.2280   -0.0610 hc        1 27J      0.054033
     32 H9          5.1890    0.1260    1.3940 hc        1 27J      0.054033
     33 H10         4.0080    1.3700    0.7890 hc        1 27J      0.054033
     34 H11         6.9100   -3.4990    2.5180 ho        1 27J      0.428000
     35 H12         6.5250   -5.6470    3.2020 ha        1 27J      0.158000
     36 H13         4.1390   -8.2200    3.5210 ho        1 27J      0.426000
     37 H14         2.4360   -6.9790    2.6320 ha        1 27J      0.143000
     38 H15         1.1870   -3.6270    1.6980 hc        1 27J      0.056200
     39 H16         0.7510   -5.3050    2.2160 hc        1 27J      0.056200
     40 H17         1.9410   -4.5020   -0.5310 hc        1 27J      0.054700
     41 H18         1.5230   -6.1840   -0.0140 hc        1 27J      0.054700
     42 H19        -0.8710   -4.8380    0.5540 hc        1 27J      0.038200
     43 H20        -0.5160   -5.7950   -0.9340 hc        1 27J      0.038200
     44 H21        -1.4360   -3.6490   -1.5910 hc        1 27J      0.048200
     45 H22         0.3030   -3.7160   -2.0830 hc        1 27J      0.048200
     46 H23        -0.8220   -2.3270    0.4490 hc        1 27J      0.055700
     47 H24         0.9310   -2.3960   -0.0450 hc        1 27J      0.055700
     48 H25         0.3360   -1.2490   -2.2240 h1        1 27J      0.035700
     49 H26        -1.7830   -0.3130   -2.2200 ho        1 27J      0.395000
@<TRIPOS>BOND
     1    1    2 1   
     2    1   22 1   
     3    1   24 1   
     4    1   25 1   
     5    2    3 1   
     6    2   26 1   
     7    2   27 1   
     8    3    4 1   
     9    3   28 1   
    10    3   29 1   
    11    4    5 1   
    12    4    6 1   
    13    4   30 1   
    14    5   31 1   
    15    5   32 1   
    16    5   33 1   
    17    6    7 1   
    18    7    8 2   
    19    7    9 1   
    20    9   10 ar  
    21    9   16 ar  
    22   10   11 1   
    23   10   12 ar  
    24   11   34 1   
    25   12   13 ar  
    26   12   35 1   
    27   13   14 1   
    28   13   15 ar  
    29   14   36 1   
    30   15   16 ar  
    31   15   37 1   
    32   16   17 1   
    33   17   18 1   
    34   17   38 1   
    35   17   39 1   
    36   18   19 1   
    37   18   40 1   
    38   18   41 1   
    39   19   20 1   
    40   19   42 1   
    41   19   43 1   
    42   20   21 1   
    43   20   44 1   
    44   20   45 1   
    45   21   22 1   
    46   21   46 1   
    47   21   47 1   
    48   22   23 1   
    49   22   48 1   
    50   23   49 1   
@<TRIPOS>SUBSTRUCTURE
     1 27J         1 TEMP              0 ****  ****    0 ROOT
