@<TRIPOS>MOLECULE
27K
   28    28     1     0     0
SMALL
bcc


@<TRIPOS>ATOM
      1 CAA         0.0150    0.0580    0.1500 c3        1 27K     -0.092100
      2 CAH         1.5200    0.0250    0.0840 c3        1 27K     -0.079400
      3 CAI         2.1300    0.0130    1.4690 c3        1 27K     -0.086400
      4 CAJ         3.6430   -0.0210    1.3750 c3        1 27K      0.141400
      5 OAK         4.1250   -0.0300    2.7300 os        1 27K     -0.442900
      6 CAL         5.4860   -0.0610    2.8880 c         1 27K      0.652700
      7 OAB         6.1840   -0.0800    1.8690 o         1 27K     -0.551000
      8 CAN         5.9320   -0.0690    4.2860 ca        1 27K     -0.173600
      9 CAF         7.3090   -0.1020    4.5460 ca        1 27K     -0.034000
     10 CAD         7.7730   -0.1110    5.8570 ca        1 27K     -0.205500
     11 CAM         6.8480   -0.0860    6.9120 ca        1 27K      0.158100
     12 OAC         7.2290   -0.0930    8.2300 oh        1 27K     -0.491100
     13 CAE         5.4640   -0.0530    6.6620 ca        1 27K     -0.205500
     14 CAG         5.0160   -0.0450    5.3470 ca        1 27K     -0.034000
     15 H1         -0.3370    0.9720    0.6880 hc        1 27K      0.035033
     16 H2         -0.4170    0.0670   -0.8800 hc        1 27K      0.035033
     17 H3         -0.3760   -0.8380    0.6890 hc        1 27K      0.035033
     18 H4          1.8530   -0.8860   -0.4800 hc        1 27K      0.042200
     19 H5          1.8930    0.9200   -0.4820 hc        1 27K      0.042200
     20 H6          1.7700   -0.8810    2.0420 hc        1 27K      0.053700
     21 H7          1.8110    0.9230    2.0400 hc        1 27K      0.053700
     22 H8          4.0510    0.8830    0.8520 h1        1 27K      0.052700
     23 H9          4.0100   -0.9430    0.8540 h1        1 27K      0.052700
     24 H10         8.0180   -0.1210    3.7010 ha        1 27K      0.158500
     25 H11         8.8520   -0.1360    6.0640 ha        1 27K      0.149000
     26 H12         8.1970   -0.1160    8.2650 ho        1 27K      0.425000
     27 H13         4.7600   -0.0340    7.5050 ha        1 27K      0.149000
     28 H14         3.9350   -0.0190    5.1300 ha        1 27K      0.158500
@<TRIPOS>BOND
     1    1    2 1   
     2    1   15 1   
     3    1   16 1   
     4    1   17 1   
     5    2    3 1   
     6    2   18 1   
     7    2   19 1   
     8    3    4 1   
     9    3   20 1   
    10    3   21 1   
    11    4    5 1   
    12    4   22 1   
    13    4   23 1   
    14    5    6 1   
    15    6    7 2   
    16    6    8 1   
    17    8    9 ar  
    18    8   14 ar  
    19    9   10 ar  
    20    9   24 1   
    21   10   11 ar  
    22   10   25 1   
    23   11   12 1   
    24   11   13 ar  
    25   12   26 1   
    26   13   14 ar  
    27   13   27 1   
    28   14   28 1   
@<TRIPOS>SUBSTRUCTURE
     1 27K         1 TEMP              0 ****  ****    0 ROOT
