@<TRIPOS>MOLECULE
27K
   28    28     1     0     0
SMALL
bcc


@<TRIPOS>ATOM
      1 CAA         0.0250    0.0410    0.1360 c3        1 27K     -0.092100
      2 CAH         1.5300    0.0310    0.0760 c3        1 27K     -0.079400
      3 CAI         2.1350    0.0070    1.4630 c3        1 27K     -0.086400
      4 CAJ         3.6490   -0.0020    1.3730 c3        1 27K      0.141400
      5 OAK         4.1260   -0.0250    2.7300 os        1 27K     -0.442900
      6 CAL         5.4870   -0.0370    2.8920 c         1 27K      0.652700
      7 OAB         6.1890   -0.0280    1.8760 o         1 27K     -0.551000
      8 CAN         5.9290   -0.0590    4.2910 ca        1 27K     -0.173600
      9 CAF         7.3050   -0.0730    4.5560 ca        1 27K     -0.034000
     10 CAD         7.7640   -0.0950    5.8680 ca        1 27K     -0.205500
     11 CAM         6.8350   -0.1020    6.9210 ca        1 27K      0.158100
     12 OAC         7.2120   -0.1230    8.2400 oh        1 27K     -0.491100
     13 CAE         5.4520   -0.0890    6.6650 ca        1 27K     -0.205500
     14 CAG         5.0080   -0.0670    5.3490 ca        1 27K     -0.034000
     15 H1         -0.3430    0.9410    0.6860 hc        1 27K      0.035033
     16 H2         -0.4040    0.0590   -0.8950 hc        1 27K      0.035033
     17 H3         -0.3550   -0.8690    0.6610 hc        1 27K      0.035033
     18 H4          1.8790   -0.8660   -0.5010 hc        1 27K      0.041700
     19 H5          1.8920    0.9400   -0.4750 hc        1 27K      0.041700
     20 H6          1.7880   -0.9010    2.0210 hc        1 27K      0.053700
     21 H7          1.8000    0.9040    2.0460 hc        1 27K      0.053700
     22 H8          4.0450    0.9160    0.8650 h1        1 27K      0.052700
     23 H9          4.0320   -0.9110    0.8400 h1        1 27K      0.052700
     24 H10         8.0170   -0.0670    3.7140 ha        1 27K      0.158500
     25 H11         8.8430   -0.1050    6.0800 ha        1 27K      0.149000
     26 H12         8.1810   -0.1310    8.2780 ho        1 27K      0.425000
     27 H13         4.7450   -0.0950    7.5070 ha        1 27K      0.149000
     28 H14         3.9280   -0.0560    5.1300 ha        1 27K      0.158500
@<TRIPOS>BOND
     1    1    2 1   
     2    1   15 1   
     3    1   16 1   
     4    1   17 1   
     5    2    3 1   
     6    2   18 1   
     7    2   19 1   
     8    3    4 1   
     9    3   20 1   
    10    3   21 1   
    11    4    5 1   
    12    4   22 1   
    13    4   23 1   
    14    5    6 1   
    15    6    7 2   
    16    6    8 1   
    17    8    9 ar  
    18    8   14 ar  
    19    9   10 ar  
    20    9   24 1   
    21   10   11 ar  
    22   10   25 1   
    23   11   12 1   
    24   11   13 ar  
    25   12   26 1   
    26   13   14 ar  
    27   13   27 1   
    28   14   28 1   
@<TRIPOS>SUBSTRUCTURE
     1 27K         1 TEMP              0 ****  ****    0 ROOT
