@<TRIPOS>MOLECULE
27L
   37    37     1     0     0
SMALL
bcc


@<TRIPOS>ATOM
      1 CAA         0.0070   -0.4830    0.1280 c3        1 27L     -0.088433
      2 CAN         1.4840   -0.1140    0.0730 c3        1 27L     -0.047000
      3 CAB         2.0820   -0.2050    1.4640 c3        1 27L     -0.088433
      4 CAC         2.1820   -1.1590   -0.8060 c3        1 27L     -0.088433
      5 CAK         1.7010    1.2410   -0.6140 c3        1 27L     -0.065400
      6 CAO         1.4990    2.5770    0.1130 c3        1 27L      0.010300
      7 CAD         0.1450    2.6110    0.8100 c3        1 27L     -0.087100
      8 CAE         2.6070    2.8150    1.1380 c3        1 27L     -0.087100
      9 CAM         1.5640    3.7160   -0.8890 ca        1 27L     -0.101300
     10 CAI         1.9260    3.5360   -2.2310 ca        1 27L     -0.095000
     11 CAG         1.9800    4.6060   -3.1200 ca        1 27L     -0.184500
     12 CAL         1.6720    5.8950   -2.6630 ca        1 27L      0.118100
     13 OAF         1.7370    6.9140   -3.5870 oh        1 27L     -0.498100
     14 CAH         1.3240    6.1050   -1.3220 ca        1 27L     -0.184500
     15 CAJ         1.2780    5.0200   -0.4530 ca        1 27L     -0.095000
     16 H1         -0.1060   -1.5420    0.4660 hc        1 27L      0.034256
     17 H2         -0.5520    0.1670    0.8400 hc        1 27L      0.034256
     18 H3         -0.4580   -0.3840   -0.8830 hc        1 27L      0.034256
     19 H4          2.0950   -1.2700    1.8030 hc        1 27L      0.034256
     20 H5          3.1310    0.1770    1.4620 hc        1 27L      0.034256
     21 H6          1.4800    0.3800    2.1990 hc        1 27L      0.034256
     22 H7          1.8010   -1.1010   -1.8530 hc        1 27L      0.034256
     23 H8          3.2850   -0.9860   -0.8140 hc        1 27L      0.034256
     24 H9          1.9880   -2.1850   -0.4130 hc        1 27L      0.034256
     25 H10         2.7600    1.2460   -0.9960 hc        1 27L      0.041200
     26 H11         1.0120    1.2410   -1.5050 hc        1 27L      0.041200
     27 H12         0.1300    1.8880    1.6600 hc        1 27L      0.037033
     28 H13        -0.0710    3.6240    1.2270 hc        1 27L      0.037033
     29 H14        -0.6650    2.3440    0.0890 hc        1 27L      0.037033
     30 H15         3.5990    2.5280    0.7150 hc        1 27L      0.037033
     31 H16         2.4280    2.2230    2.0660 hc        1 27L      0.037033
     32 H17         2.6470    3.8940    1.4270 hc        1 27L      0.037033
     33 H18         2.1870    2.5410   -2.6230 ha        1 27L      0.135000
     34 H19         2.2610    4.4550   -4.1710 ha        1 27L      0.140000
     35 H20         1.5040    7.7380   -3.1350 ho        1 27L      0.418000
     36 H21         1.0910    7.1160   -0.9600 ha        1 27L      0.140000
     37 H22         1.0180    5.2040    0.6010 ha        1 27L      0.135000
@<TRIPOS>BOND
     1    1    2 1   
     2    1   16 1   
     3    1   17 1   
     4    1   18 1   
     5    2    3 1   
     6    2    4 1   
     7    2    5 1   
     8    3   19 1   
     9    3   20 1   
    10    3   21 1   
    11    4   22 1   
    12    4   23 1   
    13    4   24 1   
    14    5    6 1   
    15    5   25 1   
    16    5   26 1   
    17    6    7 1   
    18    6    8 1   
    19    6    9 1   
    20    7   27 1   
    21    7   28 1   
    22    7   29 1   
    23    8   30 1   
    24    8   31 1   
    25    8   32 1   
    26    9   10 ar  
    27    9   15 ar  
    28   10   11 ar  
    29   10   33 1   
    30   11   12 ar  
    31   11   34 1   
    32   12   13 1   
    33   12   14 ar  
    34   13   35 1   
    35   14   15 ar  
    36   14   36 1   
    37   15   37 1   
@<TRIPOS>SUBSTRUCTURE
     1 27L         1 TEMP              0 ****  ****    0 ROOT
