@<TRIPOS>MOLECULE
27L
   37    37     1     0     0
SMALL
bcc


@<TRIPOS>ATOM
      1 CAA         0.0010   -0.4810    0.1240 c3        1 27L     -0.088433
      2 CAN         1.4780   -0.1140    0.0680 c3        1 27L     -0.047000
      3 CAB         2.0780   -0.2100    1.4590 c3        1 27L     -0.088433
      4 CAC         2.1740   -1.1590   -0.8130 c3        1 27L     -0.088433
      5 CAK         1.6980    1.2410   -0.6160 c3        1 27L     -0.065400
      6 CAO         1.5000    2.5760    0.1140 c3        1 27L      0.010300
      7 CAD         0.1460    2.6120    0.8110 c3        1 27L     -0.087100
      8 CAE         2.6100    2.8100    1.1390 c3        1 27L     -0.087100
      9 CAM         1.5670    3.7170   -0.8870 ca        1 27L     -0.101300
     10 CAI         1.9280    3.5380   -2.2290 ca        1 27L     -0.095000
     11 CAG         1.9840    4.6100   -3.1150 ca        1 27L     -0.184500
     12 CAL         1.6790    5.8990   -2.6560 ca        1 27L      0.118100
     13 OAF         1.7450    6.9190   -3.5780 oh        1 27L     -0.498100
     14 CAH         1.3310    6.1070   -1.3140 ca        1 27L     -0.184500
     15 CAJ         1.2840    5.0200   -0.4480 ca        1 27L     -0.095000
     16 H1         -0.1140   -1.5400    0.4600 hc        1 27L      0.034256
     17 H2         -0.5560    0.1690    0.8390 hc        1 27L      0.034256
     18 H3         -0.4640   -0.3780   -0.8860 hc        1 27L      0.034256
     19 H4          2.0880   -1.2760    1.7960 hc        1 27L      0.034256
     20 H5          3.1280    0.1700    1.4570 hc        1 27L      0.034256
     21 H6          1.4780    0.3750    2.1960 hc        1 27L      0.034256
     22 H7          1.7920   -1.0990   -1.8600 hc        1 27L      0.034256
     23 H8          3.2770   -0.9890   -0.8220 hc        1 27L      0.034256
     24 H9          1.9780   -2.1860   -0.4220 hc        1 27L      0.034256
     25 H10         2.7570    1.2440   -0.9990 hc        1 27L      0.041200
     26 H11         1.0090    1.2440   -1.5070 hc        1 27L      0.041200
     27 H12         0.1310    1.8870    1.6610 hc        1 27L      0.037033
     28 H13        -0.0670    3.6240    1.2300 hc        1 27L      0.037033
     29 H14        -0.6650    2.3480    0.0910 hc        1 27L      0.037033
     30 H15         3.6010    2.5210    0.7140 hc        1 27L      0.037033
     31 H16         2.4300    2.2160    2.0660 hc        1 27L      0.037033
     32 H17         2.6520    3.8880    1.4290 hc        1 27L      0.037033
     33 H18         2.1870    2.5440   -2.6230 ha        1 27L      0.135000
     34 H19         2.2640    4.4610   -4.1670 ha        1 27L      0.140000
     35 H20         1.5140    7.7430   -3.1250 ho        1 27L      0.418000
     36 H21         1.1010    7.1180   -0.9510 ha        1 27L      0.140000
     37 H22         1.0240    5.2040    0.6070 ha        1 27L      0.135000
@<TRIPOS>BOND
     1    1    2 1   
     2    1   16 1   
     3    1   17 1   
     4    1   18 1   
     5    2    3 1   
     6    2    4 1   
     7    2    5 1   
     8    3   19 1   
     9    3   20 1   
    10    3   21 1   
    11    4   22 1   
    12    4   23 1   
    13    4   24 1   
    14    5    6 1   
    15    5   25 1   
    16    5   26 1   
    17    6    7 1   
    18    6    8 1   
    19    6    9 1   
    20    7   27 1   
    21    7   28 1   
    22    7   29 1   
    23    8   30 1   
    24    8   31 1   
    25    8   32 1   
    26    9   10 ar  
    27    9   15 ar  
    28   10   11 ar  
    29   10   33 1   
    30   11   12 ar  
    31   11   34 1   
    32   12   13 1   
    33   12   14 ar  
    34   13   35 1   
    35   14   15 ar  
    36   14   36 1   
    37   15   37 1   
@<TRIPOS>SUBSTRUCTURE
     1 27L         1 TEMP              0 ****  ****    0 ROOT
