@<TRIPOS>MOLECULE
27M
   28    29     1     0     0
SMALL
bcc


@<TRIPOS>ATOM
      1 OAD        -0.0040   -0.0310   -0.4790 oh        1 27M     -0.475100
      2 CAO         1.3450   -0.0660   -0.2280 ca        1 27M      0.207100
      3 CAJ         1.8360   -0.1810    1.0810 ca        1 27M     -0.289500
      4 CAM         3.2210   -0.2370    1.2760 ca        1 27M      0.182100
      5 OAB         3.6490   -0.3410    2.5770 oh        1 27M     -0.492100
      6 CAF         4.1090   -0.1900    0.1890 ca        1 27M     -0.230500
      7 CAH         3.5970   -0.0830   -1.0980 ca        1 27M     -0.025000
      8 CAQ         2.2190    0.0020   -1.3310 ca        1 27M     -0.220600
      9 CAL         1.7390    0.1110   -2.7310 c         1 27M      0.621300
     10 OAA         2.0730   -0.7200   -3.5810 o         1 27M     -0.510100
     11 CAR         0.9100    1.2890   -3.0570 ca        1 27M     -0.220600
     12 CAI         1.1860    2.5320   -2.4720 ca        1 27M     -0.025000
     13 CAG         0.4530    3.6670   -2.7930 ca        1 27M     -0.230500
     14 CAN        -0.6000    3.5580   -3.7190 ca        1 27M      0.182100
     15 OAC        -1.2910    4.7100   -3.9980 oh        1 27M     -0.492100
     16 CAK        -0.9160    2.3320   -4.3140 ca        1 27M     -0.289500
     17 CAP        -0.1540    1.2010   -3.9790 ca        1 27M      0.207100
     18 OAE        -0.4250   -0.0300   -4.5140 oh        1 27M     -0.475100
     19 H1         -0.4710   -0.1050    0.3670 ho        1 27M      0.422500
     20 H2          1.1570   -0.2330    1.9430 ha        1 27M      0.146500
     21 H3          4.6170   -0.3930    2.5710 ho        1 27M      0.423500
     22 H4          5.1930   -0.2470    0.3550 ha        1 27M      0.148000
     23 H5          4.2820   -0.0690   -1.9620 ha        1 27M      0.147000
     24 H6          2.0090    2.6070   -1.7420 ha        1 27M      0.147000
     25 H7          0.6780    4.6410   -2.3400 ha        1 27M      0.148000
     26 H8         -1.9800    4.5020   -4.6460 ho        1 27M      0.423500
     27 H9         -1.7420    2.2520   -5.0330 ha        1 27M      0.146500
     28 H10        -1.1570    0.0670   -5.1420 ho        1 27M      0.422500
@<TRIPOS>BOND
     1    1    2 1   
     2    1   19 1   
     3    2    3 ar  
     4    2    8 ar  
     5    3    4 ar  
     6    3   20 1   
     7    4    5 1   
     8    4    6 ar  
     9    5   21 1   
    10    6    7 ar  
    11    6   22 1   
    12    7    8 ar  
    13    7   23 1   
    14    8    9 1   
    15    9   10 2   
    16    9   11 1   
    17   11   12 ar  
    18   11   17 ar  
    19   12   13 ar  
    20   12   24 1   
    21   13   14 ar  
    22   13   25 1   
    23   14   15 1   
    24   14   16 ar  
    25   15   26 1   
    26   16   17 ar  
    27   16   27 1   
    28   17   18 1   
    29   18   28 1   
@<TRIPOS>SUBSTRUCTURE
     1 27M         1 TEMP              0 ****  ****    0 ROOT
