@<TRIPOS>MOLECULE
27M
   28    29     1     0     0
SMALL
bcc


@<TRIPOS>ATOM
      1 OAD        -0.0020   -0.0340   -0.4800 oh        1 27M     -0.475100
      2 CAO         1.3460   -0.0630   -0.2260 ca        1 27M      0.207100
      3 CAJ         1.8360   -0.1750    1.0840 ca        1 27M     -0.289500
      4 CAM         3.2210   -0.2250    1.2820 ca        1 27M      0.182100
      5 OAB         3.6470   -0.3250    2.5840 oh        1 27M     -0.492100
      6 CAF         4.1110   -0.1760    0.1960 ca        1 27M     -0.230500
      7 CAH         3.6000   -0.0730   -1.0920 ca        1 27M     -0.025000
      8 CAQ         2.2230    0.0070   -1.3270 ca        1 27M     -0.220600
      9 CAL         1.7450    0.1120   -2.7280 c         1 27M      0.621300
     10 OAA         2.0840   -0.7200   -3.5770 o         1 27M     -0.510100
     11 CAR         0.9120    1.2860   -3.0580 ca        1 27M     -0.220600
     12 CAI         1.1810    2.5310   -2.4750 ca        1 27M     -0.025000
     13 CAG         0.4450    3.6620   -2.7990 ca        1 27M     -0.230500
     14 CAN        -0.6060    3.5470   -3.7260 ca        1 27M      0.182100
     15 OAC        -1.3020    4.6970   -4.0080 oh        1 27M     -0.492100
     16 CAK        -0.9160    2.3190   -4.3200 ca        1 27M     -0.289500
     17 CAP        -0.1500    1.1920   -3.9810 ca        1 27M      0.207100
     18 OAE        -0.4150   -0.0410   -4.5150 oh        1 27M     -0.475100
     19 H1         -0.4700   -0.1080    0.3660 ho        1 27M      0.422500
     20 H2          1.1550   -0.2280    1.9440 ha        1 27M      0.146500
     21 H3          4.6140   -0.3740    2.5800 ho        1 27M      0.423500
     22 H4          5.1950   -0.2290    0.3640 ha        1 27M      0.148000
     23 H5          4.2870   -0.0580   -1.9550 ha        1 27M      0.147000
     24 H6          2.0030    2.6100   -1.7440 ha        1 27M      0.147000
     25 H7          0.6660    4.6380   -2.3470 ha        1 27M      0.148000
     26 H8         -1.9890    4.4840   -4.6560 ho        1 27M      0.423500
     27 H9         -1.7410    2.2350   -5.0390 ha        1 27M      0.146500
     28 H10        -1.1470    0.0520   -5.1440 ho        1 27M      0.422500
@<TRIPOS>BOND
     1    1    2 1   
     2    1   19 1   
     3    2    3 ar  
     4    2    8 ar  
     5    3    4 ar  
     6    3   20 1   
     7    4    5 1   
     8    4    6 ar  
     9    5   21 1   
    10    6    7 ar  
    11    6   22 1   
    12    7    8 ar  
    13    7   23 1   
    14    8    9 1   
    15    9   10 2   
    16    9   11 1   
    17   11   12 ar  
    18   11   17 ar  
    19   12   13 ar  
    20   12   24 1   
    21   13   14 ar  
    22   13   25 1   
    23   14   15 1   
    24   14   16 ar  
    25   15   26 1   
    26   16   17 ar  
    27   16   27 1   
    28   17   18 1   
    29   18   28 1   
@<TRIPOS>SUBSTRUCTURE
     1 27M         1 TEMP              0 ****  ****    0 ROOT
