@<TRIPOS>MOLECULE
27N
   30    31     1     0     0
SMALL
bcc


@<TRIPOS>ATOM
      1 CAJ         0.0760    0.0970   -0.0340 ca        1 27N     -0.073750
      2 CAF         1.4650    0.1830   -0.0030 ca        1 27N     -0.186500
      3 CAN         2.1230    0.2290    1.2340 ca        1 27N      0.135100
      4 OAA         3.4910    0.3130    1.3470 oh        1 27N     -0.494600
      5 CAG         1.3950    0.1860    2.4350 ca        1 27N     -0.186500
      6 CAK         0.0090    0.1000    2.3810 ca        1 27N     -0.073750
      7 CAP        -0.6650    0.0590    1.1510 ca        1 27N     -0.128300
      8 CAR        -2.1600   -0.0570    1.1480 c3        1 27N      0.044900
      9 CAS        -2.8400    1.3290    1.0930 c3        1 27N      0.269200
     10 CLD        -4.5870    1.1470    0.8820 cl        1 27N     -0.122067
     11 CLE        -2.5680    2.1610    2.6390 cl        1 27N     -0.122067
     12 CLC        -2.2200    2.3690   -0.1920 cl        1 27N     -0.122067
     13 CAQ        -2.6510   -1.0270    0.1150 ca        1 27N     -0.128300
     14 CAL        -2.9130   -2.3430    0.5340 ca        1 27N     -0.073750
     15 CAH        -3.3540   -3.3080   -0.3620 ca        1 27N     -0.186500
     16 CAO        -3.5420   -2.9550   -1.7090 ca        1 27N      0.135100
     17 OAB        -3.9810   -3.9490   -2.5500 oh        1 27N     -0.494600
     18 CAI        -3.2880   -1.6480   -2.1440 ca        1 27N     -0.186500
     19 CAM        -2.8420   -0.6960   -1.2290 ca        1 27N     -0.073750
     20 H1         -0.4410    0.0560   -1.0060 ha        1 27N      0.140250
     21 H2          2.0390    0.2150   -0.9400 ha        1 27N      0.145000
     22 H3          3.8640    0.3400    0.4540 ho        1 27N      0.421000
     23 H4          1.9280    0.2220    3.3950 ha        1 27N      0.145000
     24 H5         -0.5640    0.0700    3.3210 ha        1 27N      0.140250
     25 H6         -2.4670   -0.4830    2.1570 hc        1 27N      0.085700
     26 H7         -2.7670   -2.6210    1.5890 ha        1 27N      0.140250
     27 H8         -3.5590   -4.3380   -0.0360 ha        1 27N      0.145000
     28 H9         -4.0810   -3.5690   -3.4360 ho        1 27N      0.421000
     29 H10        -3.4400   -1.3730   -3.1970 ha        1 27N      0.145000
     30 H11        -2.6530    0.3290   -1.5850 ha        1 27N      0.140250
@<TRIPOS>BOND
     1    1    2 ar  
     2    1    7 ar  
     3    1   20 1   
     4    2    3 ar  
     5    2   21 1   
     6    3    4 1   
     7    3    5 ar  
     8    4   22 1   
     9    5    6 ar  
    10    5   23 1   
    11    6    7 ar  
    12    6   24 1   
    13    7    8 1   
    14    8    9 1   
    15    8   13 1   
    16    8   25 1   
    17    9   10 1   
    18    9   11 1   
    19    9   12 1   
    20   13   14 ar  
    21   13   19 ar  
    22   14   15 ar  
    23   14   26 1   
    24   15   16 ar  
    25   15   27 1   
    26   16   17 1   
    27   16   18 ar  
    28   17   28 1   
    29   18   19 ar  
    30   18   29 1   
    31   19   30 1   
@<TRIPOS>SUBSTRUCTURE
     1 27N         1 TEMP              0 ****  ****    0 ROOT
