@<TRIPOS>MOLECULE
27O
   42    42     1     0     0
SMALL
bcc


@<TRIPOS>ATOM
      1 C4         -0.3510   -0.0710   -0.1700 ca        1 27O     -0.169000
      2 C5          1.0450   -0.1800   -0.4780 ca        1 27O     -0.066000
      3 C6          1.9750   -0.5150    0.4660 ca        1 27O     -0.097000
      4 C7          3.3610   -0.5990    0.0500 c2        1 27O     -0.081000
      5 C8          3.9490    0.5460   -0.6100 c3        1 27O     -0.132500
      6 C10         5.9450    0.0510    0.7220 c2        1 27O     -0.308000
      7 C13         1.5140   -0.7620    1.8370 ca        1 27O     -0.002000
      8 C15         1.8040    1.3600    4.7670 c1        1 27O      0.155000
      9 C17        -0.0340    0.4050    3.3990 c2        1 27O     -0.112000
     10 C2         -3.1170   -0.8380    0.5220 c2        1 27O      0.344000
     11 O          -3.7210   -1.8070    1.0550 o         1 27O     -0.566000
     12 C1         -2.2260    0.0360    1.4650 c3        1 27O     -0.171000
     13 C          -2.7060    1.4690    1.3870 c3        1 27O     -0.181000
     14 C3         -0.7820   -0.0680    1.1170 ca        1 27O      0.003000
     15 C18         0.2230   -0.1350    2.1890 ca        1 27O     -0.016000
     16 C16         0.8660    0.4720    4.5360 c2        1 27O     -0.427000
     17 C14         2.1430   -1.5330    2.7390 c2        1 27O     -0.226000
     18 C12         4.2530   -1.6830    0.3620 c3        1 27O     -0.132500
     19 C11         5.3900   -1.1040    1.3610 c3        1 27O     -0.103000
     20 C9          5.0770    1.1390    0.3900 c3        1 27O     -0.103000
     21 H1         -1.0870   -0.0140   -0.9960 ha        1 27O      0.194000
     22 H2          1.3470   -0.0130   -1.5250 ha        1 27O      0.119000
     23 H3          4.6710    1.1690    3.5220 ha        1 27O      0.000500
     24 H4          4.0540    1.2930    3.7740 ha        1 27O      0.000500
     25 H5          4.5120    0.2880   -1.5410 hc        1 27O      0.091250
     26 H6          6.9340   -0.0130    0.2550 ha        1 27O      0.106000
     27 H7          3.0990   -2.0320    2.5610 ha        1 27O      0.109000
     28 H8          0.6760   -0.3100    5.3050 ha        1 27O      0.188000
     29 H10        -2.3870   -0.3580    2.5070 hc        1 27O      0.089000
     30 H11        -2.0820    2.1430    2.0230 hc        1 27O      0.061667
     31 H12        -3.7650    1.5280    1.7360 hc        1 27O      0.061667
     32 H13        -2.6640    1.8220    0.3280 hc        1 27O      0.061667
     33 H14        -1.0250    0.8550    3.6010 ha        1 27O      0.147000
     34 H15         1.7120   -1.7170    3.7320 ha        1 27O      0.109000
     35 H16         3.7650   -2.5660    0.8360 hc        1 27O      0.091250
     36 H17         4.8330   -2.0320   -0.5310 hc        1 27O      0.091250
     37 H18         6.1270   -1.9210    1.5420 hc        1 27O      0.085500
     38 H19         4.8450   -0.8750    2.3130 hc        1 27O      0.085500
     39 H20         5.5850    1.9780   -0.1410 hc        1 27O      0.085500
     40 H21         4.4980    1.5450    1.2590 hc        1 27O      0.085500
     41 H22         3.2200    1.3630   -0.8290 hc        1 27O      0.091250
     42 O1         -3.2070   -0.5120   -0.6950 o         1 27O     -0.566000
@<TRIPOS>BOND
     1    1    2 1   
     2    1   14 1   
     3    1   21 1   
     4    2    3 1   
     5    2   22 1   
     6    3    4 1   
     7    3    7 1   
     8    4    5 1   
     9    4   18 1   
    10    5   20 1   
    11    5   25 1   
    12    5   41 1   
    13    6   19 1   
    14    6   20 1   
    15    6   26 1   
    16    7   15 1   
    17    7   17 1   
    18    8   16 1   
    19    9   15 1   
    20    9   16 1   
    21    9   33 1   
    22   10   11 1   
    23   10   12 1   
    24   10   42 1   
    25   12   13 1   
    26   12   14 1   
    27   12   29 1   
    28   13   30 1   
    29   13   31 1   
    30   13   32 1   
    31   14   15 1   
    32   16   28 1   
    33   17   27 1   
    34   17   34 1   
    35   18   19 1   
    36   18   35 1   
    37   18   36 1   
    38   19   37 1   
    39   19   38 1   
    40   20   39 1   
    41   20   40 1   
    42   23   24 1   
@<TRIPOS>SUBSTRUCTURE
     1 27O         1 TEMP              0 ****  ****    0 ROOT
