@<TRIPOS>MOLECULE
27O
   42    42     1     0     0
SMALL
bcc


@<TRIPOS>ATOM
      1 C4          0.1520    0.0360    0.1380 ca        1 27O     -0.163000
      2 C5          1.5500    0.3510    0.2570 ca        1 27O     -0.081000
      3 C6          2.1970    0.2790    1.4470 ca        1 27O     -0.126000
      4 C7          3.6540    0.5880    1.5960 c3        1 27O     -0.057000
      5 C8          4.0880    1.7400    0.7120 c3        1 27O     -0.205000
      6 C10         5.7760   -0.7410   -0.8080 c3        1 27O     -0.255000
      7 C13         1.4460   -0.1280    2.6390 ca        1 27O     -0.007000
      8 C15         0.1040    1.7800    5.4630 c1        1 27O      0.151000
      9 C17        -0.7820    0.3750    3.6220 c2        1 27O     -0.115000
     10 C2         -2.3250   -1.5470   -0.0130 c2        1 27O      0.343000
     11 O          -2.7250   -2.6880    0.3410 o         1 27O     -0.568000
     12 C1         -2.0650   -0.5090    1.1260 c3        1 27O     -0.167000
     13 C          -2.9120    0.7180    0.8650 c3        1 27O     -0.181000
     14 C3         -0.6220   -0.1540    1.2360 ca        1 27O     -0.009000
     15 C18        -0.0180    0.0270    2.5650 ca        1 27O     -0.010000
     16 C16        -0.3320    0.6420    4.9760 c2        1 27O     -0.424000
     17 C14         2.0360   -0.6650    3.7210 c2        1 27O     -0.230000
     18 C12         4.5320   -0.6440    1.3900 c3        1 27O     -0.149000
     19 C11         4.5630   -1.1940   -0.0210 c3        1 27O     -0.186000
     20 C9          7.0740   -1.2330   -0.4090 c1        1 27O     -0.073000
     21 H1         -0.2890   -0.0830   -0.8710 ha        1 27O      0.192000
     22 H2          2.0740    0.6430   -0.6670 ha        1 27O      0.116000
     23 H3          3.8210    0.9220    2.6650 hc        1 27O      0.086000
     24 H4          3.4410    2.6310    0.8980 hc        1 27O      0.070000
     25 H5          5.8520    0.3890   -0.7870 hc        1 27O      0.144500
     26 H6          5.6480   -1.0170   -1.8970 hc        1 27O      0.144500
     27 H7          3.1210   -0.8020    3.8030 ha        1 27O      0.106500
     28 H8         -0.4280   -0.2300    5.6620 ha        1 27O      0.187000
     29 H10        -2.4000   -1.0000    2.0820 hc        1 27O      0.088000
     30 H11        -2.7370    1.5050    1.6370 hc        1 27O      0.061333
     31 H12        -3.9920    0.4360    0.8790 hc        1 27O      0.061333
     32 H13        -2.6690    1.1330   -0.1430 hc        1 27O      0.061333
     33 H14        -1.8770    0.4770    3.4990 ha        1 27O      0.148000
     34 H15         1.4590   -1.0160    4.5850 ha        1 27O      0.106500
     35 H16         5.5770   -0.3890    1.7140 hc        1 27O      0.074000
     36 H17         4.1590   -1.4500    2.0770 hc        1 27O      0.074000
     37 H18         3.6260   -0.8930   -0.5630 hc        1 27O      0.093000
     38 H19         4.5630   -2.3160    0.0230 hc        1 27O      0.093000
     39 H20         7.1020   -1.8900    0.4750 ha        1 27O      0.033000
     40 H21         5.1480    2.0130    0.9330 hc        1 27O      0.070000
     41 H22         4.0130    1.4720   -0.3700 hc        1 27O      0.070000
     42 O1         -2.1540   -1.1850   -1.2110 o         1 27O     -0.568000
@<TRIPOS>BOND
     1    1    2 1   
     2    1   14 1   
     3    1   21 1   
     4    2    3 1   
     5    2   22 1   
     6    3    4 1   
     7    3    7 1   
     8    4    5 1   
     9    4   18 1   
    10    4   23 1   
    11    5   24 1   
    12    5   40 1   
    13    5   41 1   
    14    6   19 1   
    15    6   20 1   
    16    6   25 1   
    17    6   26 1   
    18    7   15 1   
    19    7   17 1   
    20    8   16 1   
    21    9   15 1   
    22    9   16 1   
    23    9   33 1   
    24   10   11 1   
    25   10   12 1   
    26   10   42 1   
    27   12   13 1   
    28   12   14 1   
    29   12   29 1   
    30   13   30 1   
    31   13   31 1   
    32   13   32 1   
    33   14   15 1   
    34   16   28 1   
    35   17   27 1   
    36   17   34 1   
    37   18   19 1   
    38   18   35 1   
    39   18   36 1   
    40   19   37 1   
    41   19   38 1   
    42   20   39 1   
@<TRIPOS>SUBSTRUCTURE
     1 27O         1 TEMP              0 ****  ****    0 ROOT
