@<TRIPOS>MOLECULE
27O
   42    37     1     0     0
SMALL
bcc


@<TRIPOS>ATOM
      1 C4         -1.6770   -0.0170   -1.3160 c1        1 27O     -0.138250
      2 C5         -0.2860   -0.0510   -1.2810 c1        1 27O     -0.138250
      3 C6          0.3770   -0.0860   -0.0620 c1        1 27O     -0.106000
      4 C7          1.9040   -0.0190    0.0090 c2        1 27O     -0.054000
      5 C8          2.3680    1.2800   -0.6200 c3        1 27O     -0.152500
      6 C10         4.4500    0.1330   -1.4530 c3        1 27O     -0.154000
      7 C13        -0.3560   -0.0880    1.1400 c1        1 27O     -0.022000
      8 C15        -0.4090   -0.1100    3.5610 c1        1 27O     -0.138250
      9 C17        -2.4640   -0.0490    2.3070 c1        1 27O     -0.096000
     10 O1         -5.4440   -1.4150   -1.4750 o         1 27O     -0.580000
     11 C2         -4.3530   -1.3550   -0.8490 c1        1 27O      0.339000
     12 O          -3.6480   -2.3890   -0.7110 os        1 27O     -0.561000
     13 C1         -3.9120   -0.0490   -0.2220 c3        1 27O     -0.167000
     14 C          -4.3880    1.1050   -1.0750 c3        1 27O     -0.183000
     15 C3         -2.4020   -0.0190   -0.1300 c1        1 27O      0.006000
     16 C18        -1.7310   -0.0550    1.1060 c1        1 27O     -0.043000
     17 C16        -1.8000   -0.0770    3.5270 c1        1 27O     -0.138250
     18 C14         0.3160   -0.1160    2.3760 c1        1 27O     -0.132000
     19 C12         2.4820   -1.2390   -0.6860 c3        1 27O     -0.152500
     20 C11         3.9870   -1.1670   -0.8240 c3        1 27O     -0.154000
     21 C9          3.8730    1.3520   -0.7580 c3        1 27O     -0.154000
     22 H1         -2.1430    0.0240   -2.1720 ha        1 27O      0.134500
     23 H2          0.2220   -0.0490   -2.1140 ha        1 27O      0.134500
     24 H3          2.1770   -0.0310    0.9450 ha        1 27O      0.083000
     25 H4          1.9650    1.3630   -1.5080 hc        1 27O      0.085500
     26 H5          5.4270    0.1750   -1.4080 hc        1 27O      0.071000
     27 H6          4.1760    0.1450   -2.3920 hc        1 27O      0.071000
     28 H7          0.0570   -0.1300    4.4180 ha        1 27O      0.134500
     29 H8         -3.4390   -0.0250    2.2840 ha        1 27O      0.142000
     30 H10        -4.2940    0.0270    0.6720 hc        1 27O      0.090000
     31 H11        -3.8050    1.8800   -0.9300 hc        1 27O      0.062333
     32 H12        -5.3070    1.3370   -0.8260 hc        1 27O      0.062333
     33 H13        -4.3610    0.8470   -2.0190 hc        1 27O      0.062333
     34 H14        -2.3080   -0.0810    4.3590 ha        1 27O      0.134500
     35 H15         1.2900   -0.1400    2.4010 ha        1 27O      0.115000
     36 H16         2.0860   -1.3110   -1.5780 hc        1 27O      0.085500
     37 H17         2.2490   -2.0370   -0.1710 hc        1 27O      0.085500
     38 H18         4.2900   -1.9130   -1.3800 hc        1 27O      0.070250
     39 H19         4.3900   -1.2500    0.0630 hc        1 27O      0.070250
     40 H20         4.1060    2.1490   -1.2740 hc        1 27O      0.070250
     41 H21         2.0660    2.0260   -0.0640 hc        1 27O      0.085500
     42 H22         4.2700    1.4240    0.1330 hc        1 27O      0.070250
@<TRIPOS>BOND
     1    1    2 1   
     2    1   22 1   
     3    2   23 1   
     4    3    7 1   
     5    4    5 1   
     6    4   19 1   
     7    4   24 1   
     8    5   21 1   
     9    5   25 1   
    10    5   41 1   
    11    6   20 1   
    12    6   21 1   
    13    6   26 1   
    14    6   27 1   
    15    7   18 1   
    16    8   17 1   
    17    8   28 1   
    18    9   16 1   
    19    9   29 1   
    20   10   11 1   
    21   11   13 1   
    22   13   14 1   
    23   13   15 1   
    24   13   30 1   
    25   14   31 1   
    26   14   32 1   
    27   14   33 1   
    28   15   16 1   
    29   17   34 1   
    30   18   35 1   
    31   19   20 1   
    32   19   36 1   
    33   19   37 1   
    34   20   38 1   
    35   20   39 1   
    36   21   40 1   
    37   21   42 1   
@<TRIPOS>SUBSTRUCTURE
     1 27O         1 TEMP              0 ****  ****    0 ROOT
