@<TRIPOS>MOLECULE
27O
   42    44     1     0     0
SMALL
bcc


@<TRIPOS>ATOM
      1 C4         -0.9010   -1.4370   -0.1890 ca        1 27O     -0.134000
      2 C5          0.4960   -1.3080   -0.1020 ca        1 27O     -0.111000
      3 C6          1.1140   -0.0720   -0.0540 ca        1 27O     -0.113300
      4 C7          2.6080   -0.0230    0.0550 c3        1 27O     -0.007400
      5 C8          3.2640   -0.6760   -1.1590 c3        1 27O     -0.073900
      6 C10         5.2480   -1.2970    0.2350 c3        1 27O     -0.075400
      7 C13         0.3080    1.1040   -0.1110 ca        1 27O     -0.022000
      8 C15         0.0700    3.5350   -0.1560 ca        1 27O     -0.144000
      9 C17        -1.9000    2.1560   -0.2900 ca        1 27O     -0.096000
     10 C2         -3.7110   -1.8220    0.3100 c         1 27O      0.919600
     11 O          -4.3680   -1.7510    1.3840 o         1 27O     -0.835800
     12 C1         -3.2020   -0.4760   -0.2920 c3        1 27O     -0.170400
     13 C          -3.6910   -0.3640   -1.7200 c3        1 27O     -0.065100
     14 C3         -1.7170   -0.3230   -0.2270 ca        1 27O     -0.001300
     15 C18        -1.1090    0.9730   -0.2060 ca        1 27O     -0.043000
     16 C16        -1.3330    3.4040   -0.2650 ca        1 27O     -0.164000
     17 C14         0.8610    2.4170   -0.0830 ca        1 27O     -0.132000
     18 C12         3.0820   -0.7010    1.3380 c3        1 27O     -0.073900
     19 C11         4.5930   -0.6660    1.4470 c3        1 27O     -0.075400
     20 C9          4.7750   -0.6420   -1.0460 c3        1 27O     -0.075400
     21 H1         -1.3590   -2.4450   -0.2210 ha        1 27O      0.195000
     22 H2          1.1010   -2.2280   -0.0670 ha        1 27O      0.117000
     23 H3          2.9720    1.0410    0.0930 hc        1 27O      0.043700
     24 H4          2.9180   -1.7390   -1.2480 hc        1 27O      0.046200
     25 H5          6.3620   -1.2030    0.3170 hc        1 27O      0.031700
     26 H6          5.0030   -2.3910    0.2070 hc        1 27O      0.031700
     27 H7          0.5150    4.5390   -0.1320 ha        1 27O      0.111000
     28 H8         -2.9930    2.0540   -0.3850 ha        1 27O      0.142000
     29 H10        -3.6770    0.3310    0.3340 hc        1 27O      0.050700
     30 H11        -4.8080   -0.3510   -1.7330 hc        1 27O      0.023033
     31 H12        -3.3150    0.5690   -2.2050 hc        1 27O      0.023033
     32 H13        -3.3440   -1.2490   -2.3070 hc        1 27O      0.023033
     33 H14        -1.9550    4.3070   -0.3300 ha        1 27O      0.115000
     34 H15         1.9490    2.5510   -0.0010 ha        1 27O      0.115000
     35 H16         2.6280   -0.1810    2.2210 hc        1 27O      0.046200
     36 H17         2.7280   -1.7650    1.3560 hc        1 27O      0.046200
     37 H18         4.9140   -1.2120    2.3730 hc        1 27O      0.030950
     38 H19         4.9370    0.3960    1.5460 hc        1 27O      0.030950
     39 H20         5.2270   -1.1690   -1.9260 hc        1 27O      0.030950
     40 H21         2.9420   -0.1380   -2.0870 hc        1 27O      0.046200
     41 H22         5.1280    0.4220   -1.0740 hc        1 27O      0.030950
     42 O1         -3.4740   -2.8980   -0.3110 o         1 27O     -0.835800
@<TRIPOS>BOND
     1    1    2 ar  
     2    1   14 ar  
     3    1   21 1   
     4    2    3 ar  
     5    2   22 1   
     6    3    4 1   
     7    3    7 ar  
     8    4    5 1   
     9    4   18 1   
    10    4   23 1   
    11    5   20 1   
    12    5   24 1   
    13    5   40 1   
    14    6   19 1   
    15    6   20 1   
    16    6   25 1   
    17    6   26 1   
    18    7   15 ar  
    19    7   17 ar  
    20    8   16 ar  
    21    8   17 ar  
    22    8   27 1   
    23    9   15 ar  
    24    9   16 ar  
    25    9   28 1   
    26   10   11 1   
    27   10   12 1   
    28   10   42 1   
    29   12   13 1   
    30   12   14 1   
    31   12   29 1   
    32   13   30 1   
    33   13   31 1   
    34   13   32 1   
    35   14   15 ar  
    36   16   33 1   
    37   17   34 1   
    38   18   19 1   
    39   18   35 1   
    40   18   36 1   
    41   19   37 1   
    42   19   38 1   
    43   20   39 1   
    44   20   41 1   
@<TRIPOS>SUBSTRUCTURE
     1 27O         1 TEMP              0 ****  ****    0 ROOT
