@<TRIPOS>MOLECULE
27P
   44    46     1     0     0
SMALL
bcc


@<TRIPOS>ATOM
      1 CAR        -6.2850    0.7680   -0.5040 c3        1 27P      0.152800
      2 CAS        -6.9380   -0.6230   -0.4540 c3        1 27P     -0.096400
      3 CAU        -5.9330   -1.5350    0.2360 c3        1 27P     -0.096400
      4 CAT        -4.7390   -0.6420    0.6130 c3        1 27P      0.152800
      5 NAA        -4.9350    0.7020    0.0650 n3        1 27P     -0.722600
      6 CAB        -3.9060    1.1320   -0.8660 c3        1 27P      0.163800
      7 CAC        -2.5180    1.2760   -0.2270 c3        1 27P      0.125400
      8 OAD        -1.8680    0.0110   -0.4110 os        1 27P     -0.338900
      9 CAE        -0.5700   -0.0740    0.0520 ca        1 27P      0.127100
     10 CAJ         0.0530   -1.3170   -0.1690 ca        1 27P     -0.180500
     11 CAI         1.3610   -1.5070    0.2600 ca        1 27P     -0.091500
     12 CAF         0.1170    0.9610    0.6970 ca        1 27P     -0.180500
     13 CAG         1.4280    0.7480    1.1200 ca        1 27P     -0.091500
     14 CAH         2.0610   -0.4790    0.9070 ca        1 27P     -0.112300
     15 CAK         3.4580   -0.6990    1.3780 c3        1 27P      0.012200
     16 CAL         4.4860   -0.2040    0.4180 ca        1 27P     -0.075300
     17 CAM         5.5030    0.6510    0.8560 ca        1 27P     -0.125500
     18 CAN         6.4840    1.0900   -0.0330 ca        1 27P     -0.128500
     19 CAO         6.4570    0.6790   -1.3650 ca        1 27P     -0.132000
     20 CAP         5.4440   -0.1730   -1.8080 ca        1 27P     -0.128500
     21 CAQ         4.4640   -0.6130   -0.9210 ca        1 27P     -0.125500
     22 HAR        -6.2850    1.1590   -1.5580 h1        1 27P      0.049950
     23 HARA       -6.8670    1.4920    0.1300 h1        1 27P      0.049950
     24 HAS        -7.8990   -0.5800    0.1130 hc        1 27P      0.046450
     25 HASA       -7.1670   -0.9860   -1.4860 hc        1 27P      0.046450
     26 HAU        -6.3720   -2.0030    1.1500 hc        1 27P      0.046450
     27 HAUA       -5.6060   -2.3590   -0.4440 hc        1 27P      0.046450
     28 HAT        -4.6820   -0.5300    1.7300 h1        1 27P      0.049950
     29 HATA       -3.7750   -1.1020    0.2620 h1        1 27P      0.049950
     30 HAB        -3.8110    0.4460   -1.7580 h1        1 27P      0.045700
     31 HABA       -4.2010    2.1540   -1.2410 h1        1 27P      0.045700
     32 HAC        -1.9390    2.0700   -0.7680 h1        1 27P      0.050200
     33 HACA       -2.5710    1.5180    0.8660 h1        1 27P      0.050200
     34 HAJ        -0.5020   -2.1180   -0.6760 ha        1 27P      0.142500
     35 HAI         1.8510   -2.4780    0.0900 ha        1 27P      0.133500
     36 HAF        -0.3590    1.9340    0.8760 ha        1 27P      0.142500
     37 HAG         1.9700    1.5610    1.6270 ha        1 27P      0.133500
     38 HAK         3.5930   -0.1930    2.3740 hc        1 27P      0.054700
     39 HAKA        3.6290   -1.8000    1.5430 hc        1 27P      0.054700
     40 HAM         5.5310    0.9800    1.9050 ha        1 27P      0.132000
     41 HAN         7.2800    1.7620    0.3190 ha        1 27P      0.130500
     42 HAO         7.2300    1.0260   -2.0650 ha        1 27P      0.130000
     43 HAP         5.4180   -0.4970   -2.8580 ha        1 27P      0.130500
     44 HAQ         3.6600   -1.2790   -1.2680 ha        1 27P      0.132000
@<TRIPOS>BOND
     1    1    2 1   
     2    1    5 1   
     3    1   22 1   
     4    1   23 1   
     5    2    3 1   
     6    2   24 1   
     7    2   25 1   
     8    3    4 1   
     9    3   26 1   
    10    3   27 1   
    11    4    5 1   
    12    4   28 1   
    13    4   29 1   
    14    5    6 1   
    15    6    7 1   
    16    6   30 1   
    17    6   31 1   
    18    7    8 1   
    19    7   32 1   
    20    7   33 1   
    21    8    9 1   
    22    9   10 ar  
    23    9   12 ar  
    24   10   11 ar  
    25   10   34 1   
    26   11   14 ar  
    27   11   35 1   
    28   12   13 ar  
    29   12   36 1   
    30   13   14 ar  
    31   13   37 1   
    32   14   15 1   
    33   15   16 1   
    34   15   38 1   
    35   15   39 1   
    36   16   17 ar  
    37   16   21 ar  
    38   17   18 ar  
    39   17   40 1   
    40   18   19 ar  
    41   18   41 1   
    42   19   20 ar  
    43   19   42 1   
    44   20   21 ar  
    45   20   43 1   
    46   21   44 1   
@<TRIPOS>SUBSTRUCTURE
     1 27P         1 TEMP              0 ****  ****    0 ROOT
