@<TRIPOS>MOLECULE
27P
   44    46     1     0     0
SMALL
bcc


@<TRIPOS>ATOM
      1 CAR        -0.0180    0.0920   -0.1530 c3        1 27P      0.152800
      2 CAS         1.4530    0.5290   -0.0610 c3        1 27P     -0.096400
      3 CAU         1.9920   -0.0780    1.2270 c3        1 27P     -0.096400
      4 CAT         0.8350   -0.8900    1.8300 c3        1 27P      0.152800
      5 NAA        -0.3800   -0.6830    1.0380 n3        1 27P     -0.722600
      6 CAB        -1.4920   -0.1050    1.7750 c3        1 27P      0.163800
      7 CAC        -2.0220   -1.0070    2.8960 c3        1 27P      0.125400
      8 OAD        -1.3070   -0.6260    4.0790 os        1 27P     -0.338900
      9 CAE        -1.6670   -1.2820    5.2400 ca        1 27P      0.127100
     10 CAJ        -0.9740   -0.8610    6.3920 ca        1 27P     -0.179500
     11 CAI        -1.2600   -1.4600    7.6120 ca        1 27P     -0.090500
     12 CAF        -2.6320   -2.2910    5.3200 ca        1 27P     -0.179500
     13 CAG        -2.9020   -2.8790    6.5560 ca        1 27P     -0.090500
     14 CAH        -2.2240   -2.4730    7.7070 ca        1 27P     -0.110300
     15 CAK        -2.5090   -3.1180    9.0210 c3        1 27P      0.012200
     16 CAL        -3.5730   -2.4070    9.7880 ca        1 27P     -0.073300
     17 CAM        -4.9090   -2.8100    9.6850 ca        1 27P     -0.124500
     18 CAN        -5.9000   -2.1540   10.4140 ca        1 27P     -0.128000
     19 CAO        -5.5640   -1.0910   11.2520 ca        1 27P     -0.132000
     20 CAP        -4.2340   -0.6840   11.3580 ca        1 27P     -0.128000
     21 CAQ        -3.2420   -1.3390   10.6300 ca        1 27P     -0.124500
     22 HAR        -0.1670   -0.5870   -1.0370 h1        1 27P      0.050200
     23 HARA       -0.6800    0.9890   -0.2950 h1        1 27P      0.050200
     24 HAS         1.5310    1.6430   -0.0450 hc        1 27P      0.046450
     25 HASA        2.0220    0.1610   -0.9490 hc        1 27P      0.046450
     26 HAU         2.8690   -0.7400    1.0260 hc        1 27P      0.046450
     27 HAUA        2.3230    0.7190    1.9370 hc        1 27P      0.046450
     28 HAT         0.6820   -0.6200    2.9110 h1        1 27P      0.050200
     29 HATA        1.0700   -1.9880    1.7790 h1        1 27P      0.050200
     30 HAB        -2.3370    0.0400    1.0430 h1        1 27P      0.046200
     31 HABA       -1.2410    0.9000    2.2240 h1        1 27P      0.046200
     32 HAC        -1.8560   -2.0950    2.6880 h1        1 27P      0.050200
     33 HACA       -3.1160   -0.8100    3.0480 h1        1 27P      0.050200
     34 HAJ        -0.2210   -0.0660    6.3100 ha        1 27P      0.142500
     35 HAI        -0.7240   -1.1330    8.5160 ha        1 27P      0.131500
     36 HAF        -3.1780   -2.6290    4.4290 ha        1 27P      0.142500
     37 HAG        -3.6630   -3.6720    6.6210 ha        1 27P      0.131500
     38 HAK        -2.8220   -4.1850    8.8510 hc        1 27P      0.053200
     39 HAKA       -1.5660   -3.1450    9.6340 hc        1 27P      0.053200
     40 HAM        -5.1770   -3.6470    9.0240 ha        1 27P      0.129500
     41 HAN        -6.9480   -2.4770   10.3270 ha        1 27P      0.130000
     42 HAO        -6.3460   -0.5740   11.8260 ha        1 27P      0.130000
     43 HAP        -3.9670    0.1540   12.0170 ha        1 27P      0.130000
     44 HAQ        -2.1940   -1.0150   10.7130 ha        1 27P      0.129500
@<TRIPOS>BOND
     1    1    2 1   
     2    1    5 1   
     3    1   22 1   
     4    1   23 1   
     5    2    3 1   
     6    2   24 1   
     7    2   25 1   
     8    3    4 1   
     9    3   26 1   
    10    3   27 1   
    11    4    5 1   
    12    4   28 1   
    13    4   29 1   
    14    5    6 1   
    15    6    7 1   
    16    6   30 1   
    17    6   31 1   
    18    7    8 1   
    19    7   32 1   
    20    7   33 1   
    21    8    9 1   
    22    9   10 ar  
    23    9   12 ar  
    24   10   11 ar  
    25   10   34 1   
    26   11   14 ar  
    27   11   35 1   
    28   12   13 ar  
    29   12   36 1   
    30   13   14 ar  
    31   13   37 1   
    32   14   15 1   
    33   15   16 1   
    34   15   38 1   
    35   15   39 1   
    36   16   17 ar  
    37   16   21 ar  
    38   17   18 ar  
    39   17   40 1   
    40   18   19 ar  
    41   18   41 1   
    42   19   20 ar  
    43   19   42 1   
    44   20   21 ar  
    45   20   43 1   
    46   21   44 1   
@<TRIPOS>SUBSTRUCTURE
     1 27P         1 TEMP              0 ****  ****    0 ROOT
