@<TRIPOS>MOLECULE
27P
   44    46     1     0     0
SMALL
bcc


@<TRIPOS>ATOM
      1 CAR         0.0190    0.2010   -0.1180 c3        1 27P      0.152800
      2 CAS         1.5380    0.4350   -0.0620 c3        1 27P     -0.096400
      3 CAU         2.0330   -0.3030    1.1740 c3        1 27P     -0.096400
      4 CAT         0.7970   -0.9870    1.7820 c3        1 27P      0.152800
      5 NAA        -0.4040   -0.5820    1.0480 n3        1 27P     -0.722600
      6 CAB        -1.4050    0.0970    1.8530 c3        1 27P      0.163800
      7 CAC        -2.0160   -0.7870    2.9490 c3        1 27P      0.125400
      8 OAD        -1.2200   -0.5660    4.1210 os        1 27P     -0.338900
      9 CAE        -1.6230   -1.2330    5.2600 ca        1 27P      0.127100
     10 CAJ        -0.8420   -0.9730    6.4030 ca        1 27P     -0.180500
     11 CAI        -1.1640   -1.5970    7.6010 ca        1 27P     -0.091500
     12 CAF        -2.7120   -2.1090    5.3280 ca        1 27P     -0.180500
     13 CAG        -3.0170   -2.7250    6.5420 ca        1 27P     -0.091500
     14 CAH        -2.2520   -2.4760    7.6840 ca        1 27P     -0.112300
     15 CAK        -2.5780   -3.1530    8.9720 c3        1 27P      0.012200
     16 CAL        -3.6420   -2.4540    9.7490 ca        1 27P     -0.075300
     17 CAM        -4.7560   -3.1630   10.2130 ca        1 27P     -0.125500
     18 CAN        -5.7360   -2.5190   10.9660 ca        1 27P     -0.128500
     19 CAO        -5.6120   -1.1620   11.2630 ca        1 27P     -0.132000
     20 CAP        -4.5050   -0.4500   10.8030 ca        1 27P     -0.128500
     21 CAQ        -3.5240   -1.0920   10.0510 ca        1 27P     -0.125500
     22 HAR        -0.2460   -0.4050   -1.0270 h1        1 27P      0.049950
     23 HARA       -0.5220    1.1830   -0.1910 h1        1 27P      0.049950
     24 HAS         1.7640    1.5270    0.0050 hc        1 27P      0.046450
     25 HASA        2.0250    0.0430   -0.9880 hc        1 27P      0.046450
     26 HAU         2.8070   -1.0630    0.9090 hc        1 27P      0.046450
     27 HAUA        2.4880    0.4050    1.9080 hc        1 27P      0.046450
     28 HAT         0.8830   -2.1030    1.6690 h1        1 27P      0.049950
     29 HATA        0.7160   -0.7560    2.8790 h1        1 27P      0.049950
     30 HAB        -1.0090    1.0350    2.3410 h1        1 27P      0.045700
     31 HABA       -2.2460    0.3900    1.1620 h1        1 27P      0.045700
     32 HAC        -3.0680   -0.4560    3.1510 h1        1 27P      0.050200
     33 HACA       -2.0010   -1.8750    2.6820 h1        1 27P      0.050200
     34 HAJ         0.0100   -0.2830    6.3300 ha        1 27P      0.142500
     35 HAI        -0.5540   -1.3970    8.4960 ha        1 27P      0.133500
     36 HAF        -3.3290   -2.3210    4.4440 ha        1 27P      0.142500
     37 HAG        -3.8730   -3.4140    6.5970 ha        1 27P      0.133500
     38 HAK        -2.8960   -4.2110    8.7600 hc        1 27P      0.054700
     39 HAKA       -1.6530   -3.2090    9.6110 hc        1 27P      0.054700
     40 HAM        -4.8600   -4.2340    9.9820 ha        1 27P      0.132000
     41 HAN        -6.6080   -3.0830   11.3270 ha        1 27P      0.130500
     42 HAO        -6.3860   -0.6550   11.8570 ha        1 27P      0.130000
     43 HAP        -4.4050    0.6210   11.0340 ha        1 27P      0.130500
     44 HAQ        -2.6520   -0.5310    9.6800 ha        1 27P      0.132000
@<TRIPOS>BOND
     1    1    2 1   
     2    1    5 1   
     3    1   22 1   
     4    1   23 1   
     5    2    3 1   
     6    2   24 1   
     7    2   25 1   
     8    3    4 1   
     9    3   26 1   
    10    3   27 1   
    11    4    5 1   
    12    4   28 1   
    13    4   29 1   
    14    5    6 1   
    15    6    7 1   
    16    6   30 1   
    17    6   31 1   
    18    7    8 1   
    19    7   32 1   
    20    7   33 1   
    21    8    9 1   
    22    9   10 ar  
    23    9   12 ar  
    24   10   11 ar  
    25   10   34 1   
    26   11   14 ar  
    27   11   35 1   
    28   12   13 ar  
    29   12   36 1   
    30   13   14 ar  
    31   13   37 1   
    32   14   15 1   
    33   15   16 1   
    34   15   38 1   
    35   15   39 1   
    36   16   17 ar  
    37   16   21 ar  
    38   17   18 ar  
    39   17   40 1   
    40   18   19 ar  
    41   18   41 1   
    42   19   20 ar  
    43   19   42 1   
    44   20   21 ar  
    45   20   43 1   
    46   21   44 1   
@<TRIPOS>SUBSTRUCTURE
     1 27P         1 TEMP              0 ****  ****    0 ROOT
