@<TRIPOS>MOLECULE
27P
   44    46     1     0     0
SMALL
bcc


@<TRIPOS>ATOM
      1 CAR        -0.0210    0.0850   -0.1540 c3        1 27P      0.152800
      2 CAS         1.4610    0.4870   -0.0740 c3        1 27P     -0.096400
      3 CAU         1.9970   -0.1360    1.2080 c3        1 27P     -0.096400
      4 CAT         0.8270   -0.9230    1.8180 c3        1 27P      0.152800
      5 NAA        -0.3900   -0.6870    1.0370 n3        1 27P     -0.722600
      6 CAB        -1.4820   -0.0870    1.7850 c3        1 27P      0.163800
      7 CAC        -2.0240   -0.9810    2.9080 c3        1 27P      0.125400
      8 OAD        -1.2910   -0.6210    4.0860 os        1 27P     -0.338900
      9 CAE        -1.6550   -1.2720    5.2470 ca        1 27P      0.127100
     10 CAJ        -0.9450   -0.8710    6.3960 ca        1 27P     -0.179500
     11 CAI        -1.2340   -1.4680    7.6150 ca        1 27P     -0.090500
     12 CAF        -2.6430   -2.2610    5.3320 ca        1 27P     -0.179500
     13 CAG        -2.9160   -2.8460    6.5670 ca        1 27P     -0.090500
     14 CAH        -2.2200   -2.4600    7.7150 ca        1 27P     -0.110300
     15 CAK        -2.5090   -3.1040    9.0280 c3        1 27P      0.012200
     16 CAL        -3.5780   -2.3950    9.7890 ca        1 27P     -0.073300
     17 CAM        -4.9070   -2.8300    9.7170 ca        1 27P     -0.125000
     18 CAN        -5.9020   -2.1750   10.4410 ca        1 27P     -0.128000
     19 CAO        -5.5790   -1.0810   11.2440 ca        1 27P     -0.132000
     20 CAP        -4.2570   -0.6430   11.3190 ca        1 27P     -0.128000
     21 CAQ        -3.2600   -1.2960   10.5960 ca        1 27P     -0.125000
     22 HAR        -0.1920   -0.5880   -1.0390 h1        1 27P      0.050200
     23 HARA       -0.6640    0.9970   -0.2880 h1        1 27P      0.050200
     24 HAS         1.5640    1.5990   -0.0540 hc        1 27P      0.046450
     25 HASA        2.0140    0.1090   -0.9680 hc        1 27P      0.046450
     26 HAU         2.3510    0.6510    1.9180 hc        1 27P      0.046450
     27 HAUA        2.8570   -0.8160    0.9980 hc        1 27P      0.046450
     28 HAT         0.6890   -0.6540    2.9010 h1        1 27P      0.050200
     29 HATA        1.0360   -2.0270    1.7610 h1        1 27P      0.050200
     30 HAB        -2.3300    0.0810    1.0610 h1        1 27P      0.046200
     31 HABA       -1.2040    0.9110    2.2360 h1        1 27P      0.046200
     32 HAC        -1.8840   -2.0720    2.6940 h1        1 27P      0.050200
     33 HACA       -3.1120   -0.7590    3.0690 h1        1 27P      0.050200
     34 HAJ        -0.1740   -0.0930    6.3100 ha        1 27P      0.142500
     35 HAI        -0.6840   -1.1560    8.5170 ha        1 27P      0.131500
     36 HAF        -3.2030   -2.5830    4.4430 ha        1 27P      0.142500
     37 HAG        -3.6930   -3.6230    6.6360 ha        1 27P      0.131500
     38 HAK        -1.5700   -3.1270    9.6460 hc        1 27P      0.053700
     39 HAKA       -2.8180   -4.1720    8.8580 hc        1 27P      0.053700
     40 HAM        -5.1650   -3.6920    9.0840 ha        1 27P      0.129500
     41 HAN        -6.9430   -2.5230   10.3790 ha        1 27P      0.130000
     42 HAO        -6.3640   -0.5650   11.8150 ha        1 27P      0.130000
     43 HAP        -3.9990    0.2210   11.9500 ha        1 27P      0.130000
     44 HAQ        -2.2190   -0.9470   10.6550 ha        1 27P      0.129500
@<TRIPOS>BOND
     1    1    2 1   
     2    1    5 1   
     3    1   22 1   
     4    1   23 1   
     5    2    3 1   
     6    2   24 1   
     7    2   25 1   
     8    3    4 1   
     9    3   26 1   
    10    3   27 1   
    11    4    5 1   
    12    4   28 1   
    13    4   29 1   
    14    5    6 1   
    15    6    7 1   
    16    6   30 1   
    17    6   31 1   
    18    7    8 1   
    19    7   32 1   
    20    7   33 1   
    21    8    9 1   
    22    9   10 ar  
    23    9   12 ar  
    24   10   11 ar  
    25   10   34 1   
    26   11   14 ar  
    27   11   35 1   
    28   12   13 ar  
    29   12   36 1   
    30   13   14 ar  
    31   13   37 1   
    32   14   15 1   
    33   15   16 1   
    34   15   38 1   
    35   15   39 1   
    36   16   17 ar  
    37   16   21 ar  
    38   17   18 ar  
    39   17   40 1   
    40   18   19 ar  
    41   18   41 1   
    42   19   20 ar  
    43   19   42 1   
    44   20   21 ar  
    45   20   43 1   
    46   21   44 1   
@<TRIPOS>SUBSTRUCTURE
     1 27P         1 TEMP              0 ****  ****    0 ROOT
