@<TRIPOS>MOLECULE
27P
   44    42     1     0     0
SMALL
bcc


@<TRIPOS>ATOM
      1 CAR         1.7470   -1.3870   -4.4360 c3        1 27P     -0.078500
      2 CAS         2.6060   -1.9770   -5.6100 c3        1 27P     -0.172500
      3 CAU         4.0200   -1.4420   -5.3940 c3        1 27P     -0.172500
      4 CAT         3.8930   -0.4910   -4.4550 c3        1 27P     -0.078500
      5 NAA         2.6180   -0.8820   -3.5920 n3        1 27P     -0.251000
      6 CAB         2.0630    0.3120   -2.9790 c3        1 27P     -0.075000
      7 CAC         1.8130    0.0520   -1.5170 c3        1 27P     -0.023000
      8 OAD         0.8380    0.9930   -1.0220 os        1 27P     -0.219000
      9 CAE         0.2180    0.5950    0.1760 c2        1 27P      0.083000
     10 CAJ         0.7260    1.0190    1.3920 c1        1 27P     -0.155000
     11 CAI         0.0760    0.6670    2.5850 c1        1 27P     -0.091000
     12 CAF        -0.9500   -0.1890    0.1370 c2        1 27P     -0.203000
     13 CAG        -1.5940   -0.5380    1.3190 c1        1 27P     -0.093000
     14 CAH        -1.0810   -0.1100    2.5470 c1        1 27P     -0.104000
     15 CAK        -1.7090   -0.5900    3.8390 c3        1 27P     -0.081000
     16 CAL        -2.7770    0.3980    4.2840 c2        1 27P     -0.067000
     17 CAM        -2.4730    1.3590    5.2110 c2        1 27P     -0.130000
     18 CAN        -3.4650    2.1960    5.6900 c1        1 27P     -0.129000
     19 CAO        -4.7540    2.0640    5.2360 c1        1 27P     -0.130000
     20 CAP        -5.0590    1.0970    4.3030 c1        1 27P     -0.130000
     21 CAQ        -4.0740    0.2650    3.8270 c1        1 27P     -0.121000
     22 HAR         1.1600   -0.6970   -4.7650 h1        1 27P      0.083500
     23 HARA        1.2250   -2.1040   -4.0010 h1        1 27P      0.083500
     24 HAS         2.2460   -1.6620   -6.4980 hc        1 27P      0.087250
     25 HASA        2.6060   -2.9640   -5.5710 hc        1 27P      0.087250
     26 HAU         4.6100   -2.1580   -5.0760 hc        1 27P      0.087250
     27 HAUA        4.3640   -1.0630   -6.2100 hc        1 27P      0.087250
     28 HAT         4.6760   -0.4710   -3.8950 h1        1 27P      0.083500
     29 HATA        3.7580    0.3880   -4.8780 h1        1 27P      0.083500
     30 HAB         1.2320    0.5380   -3.4110 h1        1 27P      0.086500
     31 HABA        2.6990    1.0600   -3.0760 h1        1 27P      0.086500
     32 HAC         2.6550    0.1570   -1.0160 h1        1 27P      0.086000
     33 HACA        1.4800   -0.8500   -1.4020 h1        1 27P      0.086000
     34 HAJ         1.5420    1.5660    1.4200 ha        1 27P      0.148000
     35 HAI         0.4330    0.9640    3.4390 ha        1 27P      0.137000
     36 HAF        -1.3030   -0.4830   -0.7090 ha        1 27P      0.138000
     37 HAG        -2.3980   -1.0780    1.2910 ha        1 27P      0.130000
     38 HAK        -2.1170   -1.4750    3.6970 hc        1 27P      0.093500
     39 HAKA       -1.0450   -0.6540    4.5050 hc        1 27P      0.093500
     40 HAM        -1.5330    1.4560    5.5420 ha        1 27P      0.130000
     41 HAN        -3.2530    2.8660    6.3370 ha        1 27P      0.130000
     42 HAO        -5.4580    2.6590    5.5770 ha        1 27P      0.130500
     43 HAP        -5.9750    1.0040    3.9800 ha        1 27P      0.130500
     44 HAQ        -4.2870   -0.4070    3.1790 ha        1 27P      0.132000
@<TRIPOS>BOND
     1    1    2 1   
     2    1    5 1   
     3    1   22 1   
     4    1   23 1   
     5    2    3 1   
     6    2   24 1   
     7    2   25 1   
     8    3    4 1   
     9    3   26 1   
    10    3   27 1   
    11    4    5 1   
    12    4   28 1   
    13    4   29 1   
    14    5    6 1   
    15    6    7 1   
    16    6   30 1   
    17    6   31 1   
    18    7    8 1   
    19    7   32 1   
    20    7   33 1   
    21    8    9 1   
    22    9   10 1   
    23    9   12 1   
    24   10   34 1   
    25   11   14 1   
    26   11   35 1   
    27   12   13 1   
    28   12   36 1   
    29   13   37 1   
    30   14   15 1   
    31   15   16 1   
    32   15   38 1   
    33   15   39 1   
    34   16   17 1   
    35   16   21 1   
    36   17   18 1   
    37   17   40 1   
    38   18   41 1   
    39   19   20 1   
    40   19   42 1   
    41   20   43 1   
    42   21   44 1   
@<TRIPOS>SUBSTRUCTURE
     1 27P         1 TEMP              0 ****  ****    0 ROOT
