@<TRIPOS>MOLECULE
27Q
   59    58     1     0     0
SMALL
bcc


@<TRIPOS>ATOM
      1 OAH         0.0000    0.0000    0.0000 o         1 27Q     -0.481500
      2 PAX         1.6100    0.0000    0.0000 p5        1 27Q      0.805900
      3 OAI         2.1460    0.0000    1.5180 o         1 27Q     -0.481500
      4 OAF         2.1030   -1.2090   -0.6980 o         1 27Q     -0.481500
      5 OAS         2.1470    1.3140   -0.7590 os        1 27Q     -0.491200
      6 CAP         3.5320    1.5530   -1.0160 c3        1 27Q      0.305400
      7 CAW         3.6920    2.8850   -1.7510 c3        1 27Q     -0.115000
      8 CAB         2.9290    2.8340   -3.0750 c3        1 27Q      0.014400
      9 CAC         3.1330    4.0150   -0.8830 c3        1 27Q      0.014400
     10 CAV         5.1760    3.1400   -2.0260 c3        1 27Q      0.158100
     11 OAG         5.8660    3.3220   -0.7890 oh        1 27Q     -0.515800
     12 CAU         5.7600    1.9610   -2.7600 c         1 27Q      0.244100
     13 OAE         6.5730    1.2480   -2.2110 o         1 27Q     -0.440100
     14 NAR         5.3780    1.6980   -4.0250 ny        1 27Q      0.117200
     15 CAN         5.8720    0.4980   -4.7050 c3        1 27Q      0.000800
     16 CAO         5.2930    0.4370   -6.1200 c3        1 27Q     -0.023400
     17 CAT         5.8000   -0.7980   -6.8180 c         1 27Q      0.002100
     18 OAD         6.5520   -1.5550   -6.2420 o         1 27Q     -0.625100
     19 NAQ         5.4190   -1.0610   -8.0840 ny        1 27Q      0.308200
     20 CAM         5.9120   -2.2610   -8.7630 c3        1 27Q     -0.028200
     21 CAL         5.3320   -2.3210  -10.1770 c3        1 27Q     -0.038400
     22 CAK         5.8480   -3.5750  -10.8880 c3        1 27Q     -0.019400
     23 CAJ         5.2680   -3.6350  -12.3020 c3        1 27Q     -0.027400
     24 CAA         5.7840   -4.8890  -13.0120 c3        1 27Q     -0.028400
     25 CAY         5.2040   -4.9490  -14.4260 c3        1 27Q     -0.027400
     26 CAZ         5.7200   -6.2030  -15.1360 c3        1 27Q      0.006900
     27 H3          4.0730    1.5900   -0.0780 h1        1 27Q     -0.011300
     28 H4          3.9290    0.7520   -1.6300 h1        1 27Q     -0.011300
     29 H5          2.8150    1.8020   -3.3860 hc        1 27Q      0.011867
     30 H6          3.4800    3.3800   -3.8310 hc        1 27Q      0.011867
     31 H7          1.9510    3.2820   -2.9460 hc        1 27Q      0.011867
     32 H8          3.4180    4.9710   -1.3070 hc        1 27Q      0.011867
     33 H9          2.0530    3.9430   -0.8470 hc        1 27Q      0.011867
     34 H10         3.5340    3.9320    0.1200 hc        1 27Q      0.011867
     35 H11         5.2820    4.0320   -2.6330 h1        1 27Q      0.005700
     36 H12         6.5420    3.9700   -0.8980 ho        1 27Q      0.392000
     37 H13         4.3790    1.6400   -4.0230 hn        1 27Q      0.250800
     38 H14         6.9530    0.5320   -4.7590 hx        1 27Q      0.100700
     39 H15         5.5660   -0.3820   -4.1520 hx        1 27Q      0.100700
     40 H16         4.2110    0.4030   -6.0660 hc        1 27Q      0.005700
     41 H17         5.5990    1.3170   -6.6730 hc        1 27Q      0.005700
     42 H18         5.6960   -0.2760   -8.6400 hn        1 27Q      0.161300
     43 H19         5.6070   -3.1400   -8.2100 hx        1 27Q      0.081200
     44 H20         6.9940   -2.2260   -8.8180 hx        1 27Q      0.081200
     45 H21         4.2510   -2.3570  -10.1230 hc        1 27Q      0.022700
     46 H22         5.6370   -1.4410  -10.7310 hc        1 27Q      0.022700
     47 H23         6.9300   -3.5390  -10.9420 hc        1 27Q      0.025700
     48 H24         5.5430   -4.4550  -10.3340 hc        1 27Q      0.025700
     49 H25         4.1870   -3.6700  -12.2470 hc        1 27Q      0.016200
     50 H26         5.5740   -2.7560  -12.8550 hc        1 27Q      0.016200
     51 H27         5.4770   -5.7690  -12.4580 hc        1 27Q      0.018700
     52 H28         6.8650   -4.8550  -13.0660 hc        1 27Q      0.018700
     53 H29         5.5100   -4.0700  -14.9790 hc        1 27Q      0.012700
     54 H30         4.1230   -4.9840  -14.3720 hc        1 27Q      0.012700
     55 H31         5.4180   -7.0830  -14.5800 hc        1 27Q      0.003033
     56 H32         5.3050   -6.2480  -16.1360 hc        1 27Q      0.003033
     57 H33         6.8010   -6.1670  -15.1940 hc        1 27Q      0.003033
     58 HAR2        5.6560    2.4820   -4.5820 hn        1 27Q      0.250800
     59 HAQ2        4.4200   -1.1190   -8.0810 hn        1 27Q      0.161300
@<TRIPOS>BOND
     1    1    2 1   
     2    2    3 1   
     3    2    4 1   
     4    2    5 1   
     5    5    6 1   
     6    6    7 1   
     7    6   27 1   
     8    6   28 1   
     9    7    8 1   
    10    7    9 1   
    11    7   10 1   
    12    8   29 1   
    13    8   30 1   
    14    8   31 1   
    15    9   32 1   
    16    9   33 1   
    17    9   34 1   
    18   10   11 1   
    19   10   12 1   
    20   10   35 1   
    21   11   36 1   
    22   12   13 2   
    23   12   14 1   
    24   14   15 1   
    25   14   37 1   
    26   14   58 1   
    27   15   16 1   
    28   15   38 1   
    29   15   39 1   
    30   16   17 1   
    31   16   40 1   
    32   16   41 1   
    33   17   18 2   
    34   17   19 1   
    35   19   20 1   
    36   19   42 1   
    37   19   59 1   
    38   20   21 1   
    39   20   43 1   
    40   20   44 1   
    41   21   22 1   
    42   21   45 1   
    43   21   46 1   
    44   22   23 1   
    45   22   47 1   
    46   22   48 1   
    47   23   24 1   
    48   23   49 1   
    49   23   50 1   
    50   24   25 1   
    51   24   51 1   
    52   24   52 1   
    53   25   26 1   
    54   25   53 1   
    55   25   54 1   
    56   26   55 1   
    57   26   56 1   
    58   26   57 1   
@<TRIPOS>SUBSTRUCTURE
     1 27Q         1 TEMP              0 ****  ****    0 ROOT
