@<TRIPOS>MOLECULE
27Q
   57    56     1     0     0
SMALL
bcc


@<TRIPOS>ATOM
      1 OAH         2.4050    2.3100   -7.6160 o         1 27Q     -0.920500
      2 PAX         3.2660    1.4990   -6.7090 p5        1 27Q      1.337900
      3 OAI         3.5340    0.0480   -7.0150 o         1 27Q     -0.920500
      4 OAF         4.5690    2.1020   -6.2120 o         1 27Q     -0.920500
      5 OAS         2.3480    1.4210   -5.2570 os        1 27Q     -0.560200
      6 CAP         2.9210    0.6680   -4.2630 c3        1 27Q      0.228400
      7 CAW         3.2530    1.5140   -2.9970 c3        1 27Q     -0.111000
      8 CAB         3.5310    2.9590   -3.3770 c3        1 27Q     -0.091100
      9 CAC         2.0400    1.4660   -2.0730 c3        1 27Q     -0.091100
     10 CAV         4.4480    0.9360   -2.2140 c3        1 27Q      0.094100
     11 OAG         4.4520   -0.4800   -2.1620 oh        1 27Q     -0.617800
     12 CAU         5.8350    1.4380   -2.6660 c         1 27Q      0.621100
     13 OAE         6.6450    1.8270   -1.7840 o         1 27Q     -0.699100
     14 NAR         6.1720    1.3450   -3.9870 n         1 27Q     -0.538900
     15 CAN         7.4540    1.8200   -4.4430 c3        1 27Q      0.113000
     16 CAO         7.5520    1.9130   -5.9650 c3        1 27Q     -0.176400
     17 CAT         7.6550    0.5320   -6.5890 c         1 27Q      0.656100
     18 OAD         8.7940    0.0550   -6.8570 o         1 27Q     -0.736100
     19 NAQ         6.5020   -0.1600   -6.8170 n         1 27Q     -0.534900
     20 CAM         6.5130   -1.4760   -7.3930 c3        1 27Q      0.116000
     21 CAL         5.5690   -1.6370   -8.5850 c3        1 27Q     -0.134400
     22 CAK         5.5450   -3.0780   -9.0410 c3        1 27Q     -0.062400
     23 CAJ         4.5960   -3.2600  -10.2070 c3        1 27Q     -0.081400
     24 CAA         4.5330   -4.7050  -10.6520 c3        1 27Q     -0.076400
     25 CAY         3.5850   -4.8830  -11.8190 c3        1 27Q     -0.082400
     26 CAZ         3.5120   -6.3210  -12.2650 c3        1 27Q     -0.088100
     27 H3          3.8490    0.1560   -4.6520 h1        1 27Q     -0.004300
     28 H4          2.2020   -0.1430   -3.9380 h1        1 27Q     -0.004300
     29 H5          2.5770    3.5390   -3.3940 hc        1 27Q      0.033867
     30 H6          3.9600    2.9980   -4.4200 hc        1 27Q      0.033867
     31 H7          4.2290    3.4390   -2.6510 hc        1 27Q      0.033867
     32 H8          1.1260    1.7400   -2.6530 hc        1 27Q      0.033867
     33 H9          2.1590    2.1810   -1.2240 hc        1 27Q      0.033867
     34 H10         1.9110    0.4370   -1.6570 hc        1 27Q      0.033867
     35 H11         4.3560    1.2380   -1.1270 h1        1 27Q      0.062700
     36 H12         4.4870   -0.8080   -3.0700 ho        1 27Q      0.419000
     37 H13         5.4250    1.3810   -4.6900 hn        1 27Q      0.400500
     38 H14         7.6660    2.8420   -4.0110 h1        1 27Q      0.021700
     39 H15         8.2520    1.1250   -4.0510 h1        1 27Q      0.021700
     40 H16         6.6550    2.4650   -6.3780 hc        1 27Q      0.093700
     41 H17         8.4860    2.4730   -6.2220 hc        1 27Q      0.093700
     42 H18         5.5850    0.2870   -6.7010 hn        1 27Q      0.409500
     43 H19         6.1950   -2.2090   -6.5940 h1        1 27Q      0.021700
     44 H20         7.5630   -1.7470   -7.7060 h1        1 27Q      0.021700
     45 H21         5.9040   -0.9800   -9.4280 hc        1 27Q      0.094200
     46 H22         4.5320   -1.2970   -8.2790 hc        1 27Q      0.094200
     47 H23         6.5750   -3.4090   -9.3400 hc        1 27Q      0.018200
     48 H24         5.2210   -3.7350   -8.1910 hc        1 27Q      0.018200
     49 H25         3.5740   -2.9080   -9.9070 hc        1 27Q      0.047700
     50 H26         4.9280   -2.6160  -11.0640 hc        1 27Q      0.047700
     51 H27         4.1970   -5.3470   -9.7960 hc        1 27Q      0.028700
     52 H28         5.5580   -5.0560  -10.9450 hc        1 27Q      0.028700
     53 H29         3.9220   -4.2400  -12.6750 hc        1 27Q      0.039200
     54 H30         2.5630   -4.5280  -11.5230 hc        1 27Q      0.039200
     55 H31         2.8090   -6.4290  -13.1250 hc        1 27Q      0.021367
     56 H32         3.1540   -6.9730  -11.4320 hc        1 27Q      0.021367
     57 H33         4.5180   -6.6860  -12.5850 hc        1 27Q      0.021367
@<TRIPOS>BOND
     1    1    2 1   
     2    2    3 1   
     3    2    4 1   
     4    2    5 1   
     5    5    6 1   
     6    6    7 1   
     7    6   27 1   
     8    6   28 1   
     9    7    8 1   
    10    7    9 1   
    11    7   10 1   
    12    8   29 1   
    13    8   30 1   
    14    8   31 1   
    15    9   32 1   
    16    9   33 1   
    17    9   34 1   
    18   10   11 1   
    19   10   12 1   
    20   10   35 1   
    21   11   36 1   
    22   12   13 2   
    23   12   14 1   
    24   14   15 1   
    25   14   37 1   
    26   15   16 1   
    27   15   38 1   
    28   15   39 1   
    29   16   17 1   
    30   16   40 1   
    31   16   41 1   
    32   17   18 2   
    33   17   19 1   
    34   19   20 1   
    35   19   42 1   
    36   20   21 1   
    37   20   43 1   
    38   20   44 1   
    39   21   22 1   
    40   21   45 1   
    41   21   46 1   
    42   22   23 1   
    43   22   47 1   
    44   22   48 1   
    45   23   24 1   
    46   23   49 1   
    47   23   50 1   
    48   24   25 1   
    49   24   51 1   
    50   24   52 1   
    51   25   26 1   
    52   25   53 1   
    53   25   54 1   
    54   26   55 1   
    55   26   56 1   
    56   26   57 1   
@<TRIPOS>SUBSTRUCTURE
     1 27Q         1 TEMP              0 ****  ****    0 ROOT
