@<TRIPOS>MOLECULE
27R
   31    23     1     0     0
SMALL
bcc


@<TRIPOS>ATOM
      1 C4          2.8760   -3.9680   -0.8700 c1        1 27R     -0.157000
      2 C5          1.6080   -4.1350   -0.3360 c1        1 27R     -0.120000
      3 C6          0.6910   -3.0970   -0.3920 c1        1 27R     -0.090000
      4 C7         -0.1880    0.2280   -0.0530 c1        1 27R     -0.286000
      5 C8          0.5460    0.1410    1.1200 c2        1 27R     -0.073000
      6 C10        -0.4790    2.1630    1.9120 c1        1 27R     -0.080000
      7 C13        -3.2010    3.4770    1.5460 c1        1 27R      0.336000
      8 O2         -2.9660    3.0620    2.7110 o         1 27R     -0.571500
      9 O1         -4.3400    3.9300    1.2570 o         1 27R     -0.571500
     10 C12        -2.1120    3.4450    0.4980 c2        1 27R     -0.209000
     11 C11        -1.2130    2.2500    0.7400 c1        1 27R     -0.090000
     12 C9          0.4000    1.1080    2.1020 c1        1 27R     -0.214000
     13 C14        -1.0680    1.2830   -0.2430 c1        1 27R      0.186000
     14 N          -1.7990    1.3880   -1.4560 n2        1 27R     -0.341000
     15 C           0.0060   -0.8020   -1.1460 c1        1 27R      0.321000
     16 O          -0.6370   -0.7260   -2.1720 o         1 27R     -0.340000
     17 C1          1.0420   -1.8930   -0.9820 c1        1 27R     -0.111000
     18 BR          4.1220   -5.4190   -0.8430 br        1 27R      0.025000
     19 C3          3.2270   -2.7640   -1.4590 c1        1 27R     -0.109000
     20 C2          2.3110   -1.7270   -1.5150 c1        1 27R     -0.109000
     21 H1          1.3610   -4.9830    0.0790 ha        1 27R      0.144000
     22 H2         -0.1940   -3.2060    0.0050 ha        1 27R      0.165000
     23 H3          1.1650   -0.6010    1.2530 ha        1 27R      0.114000
     24 H4         -0.5820    2.8440    2.6040 ha        1 27R      0.129000
     25 H6         -2.5160    3.3750   -0.3890 ha        1 27R      0.079500
     26 H7         -1.5840    4.2670    0.5520 ha        1 27R      0.079500
     27 H8          0.9040    1.0370    2.9350 ha        1 27R      0.115000
     28 H9         -1.5760    0.8640   -2.1700 hn        1 27R      0.244000
     29 H10        -2.4850    1.9860   -1.5250 hn        1 27R      0.244000
     30 H11         4.1210   -2.6470   -1.8350 ha        1 27R      0.144500
     31 H12         2.5580   -0.8790   -1.9310 ha        1 27R      0.144500
@<TRIPOS>BOND
     1    1    2 1   
     2    1   18 1   
     3    2   21 1   
     4    3   17 1   
     5    3   22 1   
     6    4    5 1   
     7    4   13 1   
     8    5   12 1   
     9    5   23 1   
    10    6   11 1   
    11    6   24 1   
    12    7    8 1   
    13    7    9 1   
    14   10   11 1   
    15   10   25 1   
    16   10   26 1   
    17   12   27 1   
    18   14   28 1   
    19   14   29 1   
    20   15   16 1   
    21   19   20 1   
    22   19   30 1   
    23   20   31 1   
@<TRIPOS>SUBSTRUCTURE
     1 27R         1 TEMP              0 ****  ****    0 ROOT
