@<TRIPOS>MOLECULE
27R
   31    32     1     0     0
SMALL
bcc


@<TRIPOS>ATOM
      1 C4          0.5830   -1.0060   -0.4290 cu        1 27R     -0.130000
      2 C5          1.7180   -0.6610    0.3810 cu        1 27R     -0.162000
      3 C6          2.5440   -0.2230    1.3190 c2        1 27R     -0.150000
      4 C7          0.9200   -0.2480    4.7410 c2        1 27R     -0.012000
      5 C8          0.5990   -1.5100    5.1710 c2        1 27R     -0.225000
      6 C10        -1.1940   -0.6230    6.6010 c3        1 27R     -0.198000
      7 C13        -0.2490    4.5760    6.8290 c2        1 27R      0.258000
      8 O2         -1.2170    3.7840    6.5670 o         1 27R     -0.599000
      9 O1          0.8980    4.4240    6.2980 o         1 27R     -0.599000
     10 C11        -0.8200    0.7210    6.1290 c2        1 27R     -0.175000
     11 C9         -0.4520   -1.7650    6.0830 c1        1 27R     -0.130000
     12 C14         0.1830    0.9170    5.2130 c2        1 27R     -0.025000
     13 N           0.4660    2.1740    4.6370 n8        1 27R     -0.326000
     14 C1          1.6960    0.4630    2.4020 c3        1 27R     -0.121000
     15 Br          0.0650   -1.7770   -1.9540 br        1 27R      0.154000
     16 C3          0.2760   -0.3740    0.7030 cu        1 27R     -0.095000
     17 C2          0.1820    0.3030    1.9910 c3        1 27R     -0.062000
     18 H1          3.6240   -0.2840    1.4180 ha        1 27R      0.169000
     19 H2          1.9440    1.5620    2.4080 hc        1 27R      0.148000
     20 H3          1.1790   -2.3750    4.8080 ha        1 27R      0.137000
     21 H4         -2.2890   -0.8090    6.3890 hc        1 27R      0.153500
     22 H6         -0.2910    5.5160    8.7890 ha        1 27R      0.018000
     23 H7         -1.3710    1.5910    6.5390 ha        1 27R      0.197000
     24 H8         -1.0930   -0.6570    7.7290 hc        1 27R      0.153500
     25 H9          1.4010    2.4720    4.8540 hn        1 27R      0.207000
     26 H10        -0.1710    2.8860    4.9820 hn        1 27R      0.207000
     27 H11        -0.3890   -0.3070    2.7360 hc        1 27R      0.139000
     28 H12        -0.3030    1.3090    1.9170 hc        1 27R      0.139000
     29 C           2.0360   -0.0600    3.7730 c2        1 27R      0.274000
     30 C12        -0.4840    5.7130    7.7220 c1        1 27R     -0.057000
     31 O           3.2050   -0.3070    4.0880 o         1 27R     -0.288000
@<TRIPOS>BOND
     1    1    2 1   
     2    1   15 1   
     3    1   16 1   
     4    2    3 1   
     5    2   16 1   
     6    3   14 1   
     7    3   18 1   
     8    4    5 1   
     9    4   12 1   
    10    4   29 1   
    11    5   11 1   
    12    5   20 1   
    13    6   10 1   
    14    6   11 1   
    15    6   21 1   
    16    6   24 1   
    17    7    8 1   
    18    7    9 1   
    19    7   30 1   
    20   10   12 1   
    21   10   23 1   
    22   12   13 1   
    23   13   25 1   
    24   13   26 1   
    25   14   17 1   
    26   14   19 1   
    27   14   29 1   
    28   16   17 1   
    29   17   27 1   
    30   17   28 1   
    31   22   30 1   
    32   29   31 1   
@<TRIPOS>SUBSTRUCTURE
     1 27R         1 TEMP              0 ****  ****    0 ROOT
