@<TRIPOS>MOLECULE
27R
   31    32     1     0     0
SMALL
bcc


@<TRIPOS>ATOM
      1 C4          2.8660    0.2100    0.1280 ca        1 27R     -0.007900
      2 C5          2.9240   -1.0550    0.7220 ca        1 27R     -0.121500
      3 C6          1.7910   -1.8630    0.7380 ca        1 27R     -0.083500
      4 C7         -1.9050   -1.7650   -0.1740 ca        1 27R     -0.267600
      5 C8         -2.6210   -2.4080   -1.1980 ca        1 27R     -0.073000
      6 C10        -4.3480   -0.7420   -1.0480 ca        1 27R     -0.089000
      7 C13        -3.4430    2.4020    0.2300 c         1 27R      0.914600
      8 O2         -2.3700    2.5980    0.8770 o         1 27R     -0.839800
      9 O1         -3.8890    3.1860   -0.6470 o         1 27R     -0.839800
     10 C11        -3.6930   -0.0990   -0.0070 ca        1 27R     -0.084300
     11 C9         -3.8300   -1.9030   -1.6360 ca        1 27R     -0.200000
     12 C14        -2.4530   -0.6330    0.4820 ca        1 27R      0.208600
     13 N          -1.8710   -0.1120    1.6300 nh        1 27R     -0.821200
     14 C1          0.5900   -1.4180    0.1670 ca        1 27R     -0.163600
     15 BR          4.3960    1.2960    0.1010 br        1 27R     -0.111100
     16 C3          1.6740    0.6620   -0.4420 ca        1 27R     -0.121500
     17 C2          0.5410   -0.1520   -0.4240 ca        1 27R     -0.083500
     18 H1          3.8580   -1.4180    1.1760 ha        1 27R      0.148500
     19 H2          1.8270   -2.8650    1.1970 ha        1 27R      0.165500
     20 H3         -2.1930   -3.3160   -1.6490 ha        1 27R      0.122000
     21 H4         -5.2920   -0.3220   -1.4290 ha        1 27R      0.129000
     22 H6         -4.3520    1.0570    1.6820 hc        1 27R      0.040700
     23 H7         -5.3100    1.2970    0.1670 hc        1 27R      0.040700
     24 H8         -4.3810   -2.3990   -2.4460 ha        1 27R      0.115000
     25 H9         -0.8940   -0.2900    1.7160 hn        1 27R      0.418300
     26 H10        -2.1110    0.8510    1.8190 hn        1 27R      0.418300
     27 H11         1.6090    1.6640   -0.8970 ha        1 27R      0.148500
     28 H12        -0.4000    0.2180   -0.8720 ha        1 27R      0.165500
     29 C          -0.5880   -2.3280    0.1710 c         1 27R      0.605300
     30 C12        -4.2750    1.1410    0.5670 c3        1 27R     -0.173100
     31 O          -0.4270   -3.5380    0.3950 o         1 27R     -0.562100
@<TRIPOS>BOND
     1    1    2 ar  
     2    1   15 1   
     3    1   16 ar  
     4    2    3 ar  
     5    2   18 1   
     6    3   14 ar  
     7    3   19 1   
     8    4    5 ar  
     9    4   12 ar  
    10    4   29 1   
    11    5   11 ar  
    12    5   20 1   
    13    6   10 ar  
    14    6   11 ar  
    15    6   21 1   
    16    7    8 1   
    17    7    9 1   
    18    7   30 1   
    19   10   12 ar  
    20   10   30 1   
    21   11   24 1   
    22   12   13 1   
    23   13   25 1   
    24   13   26 1   
    25   14   17 ar  
    26   14   29 1   
    27   16   17 ar  
    28   16   27 1   
    29   17   28 1   
    30   22   30 1   
    31   23   30 1   
    32   29   31 2   
@<TRIPOS>SUBSTRUCTURE
     1 27R         1 TEMP              0 ****  ****    0 ROOT
