@<TRIPOS>MOLECULE
27R
   31    30     1     0     0
SMALL
bcc


@<TRIPOS>ATOM
      1 C4         -3.4200    1.1970   -1.0370 c2        1 27R     -0.260000
      2 C5         -2.9320    0.3440   -2.0350 c1        1 27R     -0.089000
      3 C6          5.5150    1.2180    3.9170 c1        1 27R      0.201000
      4 C7          2.9520    0.1380    6.2870 c2        1 27R     -0.401000
      5 C8          2.6310   -0.7570    7.3930 c2        1 27R      0.018000
      6 C10         0.5120    0.3850    7.7160 c2        1 27R     -0.122000
      7 C13        -1.1390    1.4450    4.4380 c2        1 27R      0.322000
      8 O2         -0.6060    2.1460    3.5150 o         1 27R     -0.584000
      9 O1         -2.0860    0.6430    4.2110 o         1 27R     -0.584000
     10 C11         0.4140    0.5430    6.2190 c3        1 27R     -0.058000
     11 C9          1.5430   -0.3680    8.0630 c1        1 27R     -0.252000
     12 C14         1.8590    0.8130    5.6970 c2        1 27R      0.212000
     13 N           1.9940    1.6770    4.6790 n3        1 27R     -0.329000
     14 C1          4.6110    0.4180    4.4220 c2        1 27R     -0.556000
     15 BR         -4.8130    2.3870   -1.5330 br        1 27R     -0.004000
     16 C3         -2.9940    1.2440    0.2240 c1        1 27R     -0.012000
     17 C2         -2.5690    1.2770    1.4370 c2        1 27R     -0.181000
     18 H1         -2.1210   -0.3430   -1.7400 ha        1 27R      0.037000
     19 H2          3.9790   -0.2110    3.7610 ha        1 27R      0.211000
     20 H3          3.2440   -1.6420    7.5800 ha        1 27R      0.144000
     21 H4          0.1040   -0.4250    5.7250 hc        1 27R      0.139000
     22 H6         -0.2050    2.6290    6.0140 hc        1 27R      0.090000
     23 H7         -1.4930    1.4800    6.5590 hc        1 27R      0.090000
     24 H8         -0.1710    0.9260    8.3720 ha        1 27R      0.143000
     25 H9          2.8840    1.8520    4.2790 hn        1 27R      0.259000
     26 H10         1.1890    2.0880    4.2300 hn        1 27R      0.259000
     27 H11        -2.9670    0.6600    2.2740 ha        1 27R      0.243000
     28 H12        -1.7280    1.9140    1.8080 ha        1 27R      0.243000
     29 C           4.3350    0.1800    5.8680 c2        1 27R      0.375000
     30 C12        -0.6160    1.5990    5.8680 c3        1 27R     -0.219000
     31 O           5.2880   -0.0520    6.6300 o         1 27R     -0.337000
@<TRIPOS>BOND
     1    1    2 1   
     2    1   15 1   
     3    1   16 1   
     4    2   18 1   
     5    3   14 1   
     6    4    5 1   
     7    4   12 1   
     8    4   29 1   
     9    5   11 1   
    10    5   20 1   
    11    6   10 1   
    12    6   11 1   
    13    6   24 1   
    14    7    8 1   
    15    7    9 1   
    16    7   30 1   
    17   10   12 1   
    18   10   21 1   
    19   10   30 1   
    20   12   13 1   
    21   13   25 1   
    22   13   26 1   
    23   14   19 1   
    24   14   29 1   
    25   16   17 1   
    26   17   27 1   
    27   17   28 1   
    28   22   30 1   
    29   23   30 1   
    30   29   31 1   
@<TRIPOS>SUBSTRUCTURE
     1 27R         1 TEMP              0 ****  ****    0 ROOT
