@<TRIPOS>MOLECULE
27R
   32    31     1     0     0
SMALL
bcc


@<TRIPOS>ATOM
      1 C4         -0.7010   -1.1640    0.5130 cu        1 27R     -0.096000
      2 C5          0.6560   -1.2980    0.9670 cu        1 27R     -0.125000
      3 C6          1.8830   -1.1220    1.4390 c2        1 27R     -0.176000
      4 C7          1.5360    0.3160    4.2690 c2        1 27R     -0.041000
      5 C8          1.1230   -0.9560    4.5310 c2        1 27R     -0.181000
      6 C10        -0.3050   -0.1770    6.3850 c3        1 27R     -0.204000
      7 C13        -3.5960    2.1140    7.3930 c1        1 27R      0.185500
      8 O2         -2.1200    4.6620    8.4740 o         1 27R     -0.186500
      9 O1         -3.4290    1.0460    6.9400 o         1 27R     -0.186500
     10 C11         0.1970    1.1820    6.1120 c2        1 27R     -0.210000
     11 C9          0.1900   -1.2680    5.5630 c1        1 27R     -0.070000
     12 C14         1.0710    1.4370    5.0910 c2        1 27R     -0.009000
     13 N           1.4820    2.7390    4.7470 n3        1 27R     -0.324000
     14 C1          2.0420    0.3730    1.7500 c3        1 27R     -0.124000
     15 BR         -2.1040   -2.0360   -0.1590 br        1 27R      0.189000
     16 C3         -0.1420   -0.0300    0.9370 cu        1 27R     -0.117000
     17 C2          0.6600    1.0760    1.4470 c3        1 27R     -0.062000
     18 H1          2.7020   -1.8210    1.5850 ha        1 27R      0.169000
     19 H2          2.8210    0.7970    1.0580 hc        1 27R      0.128000
     20 H3          1.4950   -1.7970    3.9190 ha        1 27R      0.159000
     21 H4         -1.4370   -0.1900    6.2940 hc        1 27R      0.169500
     22 H6          0.6090    4.0400    7.5770 ha        1 27R      0.003500
     23 H7         -0.1750    1.9880    6.7670 ha        1 27R      0.139000
     24 H8         -0.0920   -0.4520    7.4630 hc        1 27R      0.169500
     25 H9          1.2870    3.4050    5.4660 hn        1 27R      0.182500
     26 H10         0.3670    4.5590    7.2150 ha        1 27R      0.003500
     27 H11         0.2170    1.5230    2.3740 hc        1 27R      0.130500
     28 H12         0.7950    1.8840    0.6860 hc        1 27R      0.130500
     29 C           2.4950    0.6070    3.1680 c2        1 27R      0.268000
     30 C12        -1.8470    3.6320    7.9880 c1        1 27R      0.185500
     31 O           3.6280    1.0400    3.4080 o         1 27R     -0.282000
     32 HN3         2.4410    2.7820    4.4600 hn        1 27R      0.182500
@<TRIPOS>BOND
     1    1    2 1   
     2    1   15 1   
     3    1   16 1   
     4    2    3 1   
     5    2   16 1   
     6    3   14 1   
     7    3   18 1   
     8    4    5 1   
     9    4   12 1   
    10    4   29 1   
    11    5   11 1   
    12    5   20 1   
    13    6   10 1   
    14    6   11 1   
    15    6   21 1   
    16    6   24 1   
    17    7    9 1   
    18    8   30 1   
    19   10   12 1   
    20   10   23 1   
    21   12   13 1   
    22   13   25 1   
    23   13   32 1   
    24   14   17 1   
    25   14   19 1   
    26   14   29 1   
    27   16   17 1   
    28   17   27 1   
    29   17   28 1   
    30   22   26 1   
    31   29   31 1   
@<TRIPOS>SUBSTRUCTURE
     1 27R         1 TEMP              0 ****  ****    0 ROOT
