@<TRIPOS>MOLECULE
27S
   49    50     1     0     0
SMALL
bcc


@<TRIPOS>ATOM
      1 OAG         0.1480   -0.8350    0.2050 o         1 27S     -0.355100
      2 CAT         1.2590   -0.3670    0.0340 c         1 27S      0.690500
      3 NAM         2.0330    0.2380    1.1200 ne        1 27S     -0.561100
      4 CAS         3.2920    0.3020    0.7890 c2        1 27S      0.520100
      5 NAD         4.2780    1.0300    1.5950 n4        1 27S     -0.788600
      6 SAP         3.7930   -0.3830   -0.7330 ss        1 27S     -0.147300
      7 CAY         2.0420   -0.2930   -1.3030 c3        1 27S     -0.012700
      8 CAX         1.7320    1.0910   -1.9520 c3        1 27S      0.111700
      9 NAN         2.8550    1.6840   -2.6260 n         1 27S     -0.563900
     10 CAQ         3.7410    2.5410   -2.0000 c         1 27S      0.703100
     11 OAE         3.7190    2.6910   -0.7530 o         1 27S     -0.706100
     12 CAC         4.7380    3.2690   -2.8630 c3        1 27S     -0.178100
     13 CAI         1.8250   -1.4620   -2.1700 c2        1 27S     -0.133200
     14 CAU         1.1950   -1.3930   -3.3520 ce        1 27S     -0.120400
     15 CAR         1.0750   -2.6080   -4.2000 c         1 27S      0.623300
     16 OAH         2.0100   -3.2870   -4.6180 o         1 27S     -0.454000
     17 OAF        -0.1570   -3.0380   -4.5900 oh        1 27S     -0.554100
     18 CAL         0.6320   -0.1430   -3.9160 c3        1 27S     -0.088200
     19 CAW         0.4950    0.9790   -2.8930 c3        1 27S      0.141100
     20 OAO        -0.6070    0.7570   -2.0230 os        1 27S     -0.425600
     21 CAV        -1.8700    1.2460   -2.5180 c3        1 27S      0.141100
     22 CAK        -2.9140    0.1980   -2.1400 c3        1 27S     -0.096900
     23 CAB        -2.7050   -1.1040   -2.8670 c3        1 27S     -0.096600
     24 CAJ        -2.1910    2.5810   -1.8530 c3        1 27S     -0.096900
     25 CAA        -1.3210    3.7070   -2.3420 c3        1 27S     -0.096600
     26 H2          4.4600    1.9280    1.0990 hn        1 27S      0.489800
     27 H3          1.4290    1.7960   -1.1120 h1        1 27S      0.104700
     28 H4         -0.8530   -2.5070   -4.1720 ho        1 27S      0.438000
     29 H5          5.3710    2.5470   -3.4340 hc        1 27S      0.086033
     30 H6          5.3940    3.8950   -2.2100 hc        1 27S      0.086033
     31 H7          4.2080    3.9380   -3.5860 hc        1 27S      0.086033
     32 H8          2.2150   -2.4250   -1.7900 ha        1 27S      0.175000
     33 H10        -0.3890   -0.3510   -4.3470 hc        1 27S      0.084200
     34 H11         1.2890    0.2020   -4.7620 hc        1 27S      0.084200
     35 H12         0.3630    1.9570   -3.4420 h1        1 27S      0.074700
     36 H13        -1.8300    1.3650   -3.6350 h1        1 27S      0.045700
     37 H14        -3.9270    0.6130   -2.3840 hc        1 27S      0.065450
     38 H15        -2.8690    0.0220   -1.0330 hc        1 27S      0.065450
     39 H16        -3.5150   -1.8270   -2.6030 hc        1 27S      0.036367
     40 H17        -2.7130   -0.9530   -3.9740 hc        1 27S      0.036367
     41 H18        -1.7230   -1.5500   -2.5720 hc        1 27S      0.036367
     42 H19        -3.2670    2.8230   -2.0620 hc        1 27S      0.065450
     43 H20        -2.0790    2.4690   -0.7430 hc        1 27S      0.065450
     44 H21        -0.2570    3.5430   -2.0390 hc        1 27S      0.036367
     45 H22        -1.3640    3.7940   -3.4550 hc        1 27S      0.036367
     46 H23        -1.6630    4.6760   -1.9020 hc        1 27S      0.036367
     47 H1          5.1430    0.4820    1.6580 hn        1 27S      0.489800
     48 HAD3        3.9260    1.2310    2.5420 hn        1 27S      0.489800
     49 HAN2        2.9310    1.5430   -3.6080 hn        1 27S      0.333500
@<TRIPOS>BOND
     1    1    2 2   
     2    2    3 1   
     3    2    7 1   
     4    3    4 2   
     5    4    5 1   
     6    4    6 1   
     7    5   26 1   
     8    5   47 1   
     9    5   48 1   
    10    6    7 1   
    11    7    8 1   
    12    7   13 1   
    13    8    9 1   
    14    8   19 1   
    15    8   27 1   
    16    9   10 1   
    17    9   49 1   
    18   10   11 2   
    19   10   12 1   
    20   12   29 1   
    21   12   30 1   
    22   12   31 1   
    23   13   14 2   
    24   13   32 1   
    25   14   15 1   
    26   14   18 1   
    27   15   16 2   
    28   15   17 1   
    29   17   28 1   
    30   18   19 1   
    31   18   33 1   
    32   18   34 1   
    33   19   20 1   
    34   19   35 1   
    35   20   21 1   
    36   21   22 1   
    37   21   24 1   
    38   21   36 1   
    39   22   23 1   
    40   22   37 1   
    41   22   38 1   
    42   23   39 1   
    43   23   40 1   
    44   23   41 1   
    45   24   25 1   
    46   24   42 1   
    47   24   43 1   
    48   25   44 1   
    49   25   45 1   
    50   25   46 1   
@<TRIPOS>SUBSTRUCTURE
     1 27S         1 TEMP              0 ****  ****    0 ROOT
