@<TRIPOS>MOLECULE
27S
   47    44     1     0     0
SMALL
bcc


@<TRIPOS>ATOM
      1 OAG        -3.3950   -0.9390    3.1530 o         1 27S     -0.251000
      2 CAT        -2.1970   -0.8220    3.1360 c1        1 27S      0.280000
      3 NAM        -1.2690   -0.6830    4.3860 n1        1 27S     -0.289000
      4 CAS        -0.0020   -1.0860    4.1810 c1        1 27S      0.027000
      5 NAD         1.0670   -0.4760    4.8960 n2        1 27S     -0.324000
      6 SAP         0.2490   -1.6780    2.7470 ss        1 27S      0.057000
      7 CAY        -1.1810   -1.3490    1.9360 c3        1 27S     -0.117000
      8 CAX        -0.9170   -0.0980    0.8570 c3        1 27S      0.036000
      9 NAN        -0.1730    1.0510    1.6140 n3        1 27S     -0.360000
     10 CAQ        -0.8950    2.2220    2.0320 c1        1 27S      0.306000
     11 OAE        -2.0920    2.3200    1.7950 o         1 27S     -0.356000
     12 CAC        -0.1830    3.3170    2.7970 c2        1 27S     -0.244000
     13 CAI        -1.6780   -2.5330    1.4100 c2        1 27S     -0.218000
     14 CAU        -1.1950   -2.8710   -0.1780 c1        1 27S     -0.078000
     15 CAR        -1.5860   -4.1590   -0.8190 c2        1 27S      0.356000
     16 OAH        -2.7600   -4.3240   -1.2270 o         1 27S     -0.554000
     17 OAF        -0.7590   -5.1030   -0.8880 o         1 27S     -0.554000
     18 CAL        -0.8830   -1.6590   -1.0360 c2        1 27S     -0.164000
     19 CAW        -0.2710   -0.3860   -0.1100 c3        1 27S      0.007000
     20 OAO        -0.1750    0.8660   -1.0160 os        1 27S     -0.283000
     21 CAV         0.7110    0.7060   -2.1420 c3        1 27S      0.030000
     22 CAK         2.0180    1.4450   -1.8710 c3        1 27S     -0.172500
     23 CAB         3.1260    0.8470   -2.7300 c3        1 27S     -0.211000
     24 CAJ         0.0440    1.2870   -3.4100 c3        1 27S     -0.172500
     25 CAA         0.2530    0.3560   -4.5500 c3        1 27S     -0.211000
     26 H2          0.8870    0.0960    5.5820 hn        1 27S      0.211500
     27 H3         -1.7880    0.2400    0.5570 h1        1 27S      0.171000
     28 H4          0.7370    1.0000    1.7480 hn        1 27S      0.215000
     29 H5          0.7610    3.0900    2.8860 ha        1 27S      0.097333
     30 H6         -0.2720    4.1630    2.3130 ha        1 27S      0.097333
     31 H7         -0.5830    3.4060    3.6870 ha        1 27S      0.097333
     32 H8         -1.9390   -3.2630    2.0100 ha        1 27S      0.165000
     33 H10        -1.5980   -1.3820   -1.6350 ha        1 27S      0.121500
     34 H11        -0.2090   -1.9240   -1.6840 ha        1 27S      0.121500
     35 H12         0.6310   -0.6260    0.1830 h1        1 27S      0.078000
     36 H13         0.8980   -0.2540   -2.2790 h1        1 27S      0.100000
     37 H14         2.2550    1.3550   -0.9200 hc        1 27S      0.085500
     38 H15         1.9100    2.3890   -2.0920 hc        1 27S      0.085500
     39 H16         4.0010    1.0710   -2.3390 hc        1 27S      0.072000
     40 H17         3.0230   -0.1290   -2.7640 hc        1 27S      0.072000
     41 H18         3.0700    1.2140   -3.6400 hc        1 27S      0.072000
     42 H19         0.4410    2.1470   -3.6180 hc        1 27S      0.085500
     43 H20        -0.9080    1.3990   -3.2530 hc        1 27S      0.085500
     44 H21        -0.5470   -0.1980   -4.6700 hc        1 27S      0.072000
     45 H22         1.0130   -0.2110   -4.3670 hc        1 27S      0.072000
     46 H23         0.4200    0.8750   -5.3710 hc        1 27S      0.072000
     47 H1          1.9370   -0.7060    4.7050 hn        1 27S      0.211500
@<TRIPOS>BOND
     1    1    2 1   
     2    2    7 1   
     3    3    4 1   
     4    4    6 1   
     5    5   26 1   
     6    5   47 1   
     7    6    7 1   
     8    7    8 1   
     9    7   13 1   
    10    8    9 1   
    11    8   19 1   
    12    8   27 1   
    13    9   10 1   
    14    9   28 1   
    15   10   11 1   
    16   12   29 1   
    17   12   30 1   
    18   12   31 1   
    19   13   14 1   
    20   13   32 1   
    21   14   15 1   
    22   15   16 1   
    23   15   17 1   
    24   18   19 1   
    25   18   33 1   
    26   18   34 1   
    27   19   20 1   
    28   19   35 1   
    29   20   21 1   
    30   21   22 1   
    31   21   24 1   
    32   21   36 1   
    33   22   23 1   
    34   22   37 1   
    35   22   38 1   
    36   23   39 1   
    37   23   40 1   
    38   23   41 1   
    39   24   25 1   
    40   24   42 1   
    41   24   43 1   
    42   25   44 1   
    43   25   45 1   
    44   25   46 1   
@<TRIPOS>SUBSTRUCTURE
     1 27S         1 TEMP              0 ****  ****    0 ROOT
