@<TRIPOS>MOLECULE
27S
   49    50     1     0     0
SMALL
bcc


@<TRIPOS>ATOM
      1 OAG         0.1410   -0.8070    0.2220 o         1 27S     -0.355100
      2 CAT         1.2530   -0.3410    0.0490 c         1 27S      0.690500
      3 NAM         2.0230    0.2770    1.1290 ne        1 27S     -0.561100
      4 CAS         3.2830    0.3370    0.8020 c2        1 27S      0.520100
      5 NAD         4.2670    1.0740    1.6020 nz        1 27S     -0.788600
      6 SAP         3.7890   -0.3660   -0.7110 ss        1 27S     -0.147300
      7 CAY         2.0400   -0.2830   -1.2860 c3        1 27S     -0.012700
      8 CAX         1.7310    1.0920   -1.9540 c3        1 27S      0.111700
      9 NAN         2.8560    1.6780   -2.6310 ns        1 27S     -0.563900
     10 CAQ         3.7410    2.5420   -2.0130 c         1 27S      0.703100
     11 OAE         3.7150    2.7070   -0.7680 o         1 27S     -0.706100
     12 CAC         4.7400    3.2600   -2.8820 c3        1 27S     -0.178100
     13 CAI         1.8250   -1.4630   -2.1400 c2        1 27S     -0.133200
     14 CAU         1.1990   -1.4090   -3.3250 ce        1 27S     -0.120400
     15 CAR         1.0810   -2.6340   -4.1590 c         1 27S      0.623300
     16 OAH         2.0180   -3.3170   -4.5650 o         1 27S     -0.454000
     17 OAF        -0.1490   -3.0680   -4.5460 oh        1 27S     -0.554100
     18 CAL         0.6370   -0.1650   -3.9060 c3        1 27S     -0.088200
     19 CAW         0.4980    0.9690   -2.8970 c3        1 27S      0.141100
     20 OAO        -0.6070    0.7580   -2.0270 os        1 27S     -0.425600
     21 CAV        -1.8690    1.2410   -2.5320 c3        1 27S      0.141100
     22 CAK        -2.9140    0.1970   -2.1450 c3        1 27S     -0.096900
     23 CAB        -2.7020   -1.1140   -2.8550 c3        1 27S     -0.096600
     24 CAJ        -2.1920    2.5830   -1.8850 c3        1 27S     -0.096900
     25 CAA        -1.3200    3.7030   -2.3850 c3        1 27S     -0.096600
     26 H2          4.4500    1.9670    1.0960 hn        1 27S      0.489800
     27 H3          1.4260    1.8070   -1.1230 h1        1 27S      0.104700
     28 H4         -0.8460   -2.5320   -4.1370 ho        1 27S      0.438000
     29 H5          4.2130    3.9200   -3.6140 hc        1 27S      0.086033
     30 H6          5.3760    2.5300   -3.4420 hc        1 27S      0.086033
     31 H7          5.3950    3.8940   -2.2340 hc        1 27S      0.086033
     32 H8          2.2140   -2.4210   -1.7470 ha        1 27S      0.175000
     33 H10        -0.3820   -0.3790   -4.3370 hc        1 27S      0.084200
     34 H11         1.2970    0.1690   -4.7540 hc        1 27S      0.084200
     35 H12         0.3670    1.9400   -3.4580 h1        1 27S      0.074700
     36 H13        -1.8250    1.3450   -3.6510 h1        1 27S      0.045700
     37 H14        -2.8730    0.0350   -1.0360 hc        1 27S      0.065450
     38 H15        -3.9260    0.6090   -2.3970 hc        1 27S      0.065450
     39 H16        -2.7070   -0.9760   -3.9640 hc        1 27S      0.036367
     40 H17        -1.7210   -1.5560   -2.5510 hc        1 27S      0.036367
     41 H18        -3.5130   -1.8330   -2.5850 hc        1 27S      0.036367
     42 H19        -2.0840    2.4850   -0.7730 hc        1 27S      0.065450
     43 H20        -3.2680    2.8230   -2.1010 hc        1 27S      0.065450
     44 H21        -0.2580    3.5430   -2.0760 hc        1 27S      0.036367
     45 H22        -1.3590    3.7760   -3.4990 hc        1 27S      0.036367
     46 H23        -1.6630    4.6770   -1.9580 hc        1 27S      0.036367
     47 H1          5.1310    0.5280    1.6740 hn        1 27S      0.489800
     48 HAD3        3.9120    1.2870    2.5450 hn        1 27S      0.489800
     49 HAN2        2.9360    1.5240   -3.6110 hn        1 27S      0.333500
@<TRIPOS>BOND
     1    1    2 2   
     2    2    3 1   
     3    2    7 1   
     4    3    4 2   
     5    4    5 1   
     6    4    6 1   
     7    5   26 1   
     8    5   47 1   
     9    5   48 1   
    10    6    7 1   
    11    7    8 1   
    12    7   13 1   
    13    8    9 1   
    14    8   19 1   
    15    8   27 1   
    16    9   10 1   
    17    9   49 1   
    18   10   11 2   
    19   10   12 1   
    20   12   29 1   
    21   12   30 1   
    22   12   31 1   
    23   13   14 2   
    24   13   32 1   
    25   14   15 1   
    26   14   18 1   
    27   15   16 2   
    28   15   17 1   
    29   17   28 1   
    30   18   19 1   
    31   18   33 1   
    32   18   34 1   
    33   19   20 1   
    34   19   35 1   
    35   20   21 1   
    36   21   22 1   
    37   21   24 1   
    38   21   36 1   
    39   22   23 1   
    40   22   37 1   
    41   22   38 1   
    42   23   39 1   
    43   23   40 1   
    44   23   41 1   
    45   24   25 1   
    46   24   42 1   
    47   24   43 1   
    48   25   44 1   
    49   25   45 1   
    50   25   46 1   
@<TRIPOS>SUBSTRUCTURE
     1 27S         1 TEMP              0 ****  ****    0 ROOT
