@<TRIPOS>MOLECULE
27S
   47    48     1     0     0
SMALL
bcc


@<TRIPOS>ATOM
      1 OAG        -0.2300   -0.6570    2.2770 o         1 27S     -0.489100
      2 CAT         0.9170   -0.6720    1.8290 c         1 27S      0.711500
      3 NAM         2.0540   -0.6740    2.6880 ne        1 27S     -0.722100
      4 CAS         3.1930   -0.7260    2.0180 c2        1 27S      0.689100
      5 NAD         4.4490   -0.6730    2.5860 nh        1 27S     -0.891800
      6 SAP         3.0790   -0.7960    0.2620 ss        1 27S     -0.298300
      7 CAY         1.2550   -0.7310    0.3180 c3        1 27S     -0.008700
      8 CAX         0.7580    0.5240   -0.4450 c3        1 27S      0.133700
      9 NAN         1.3690    0.5760   -1.7540 n         1 27S     -0.564900
     10 CAQ         2.0100    1.6840   -2.2590 c         1 27S      0.663100
     11 OAE         2.1490    2.7360   -1.6010 o         1 27S     -0.625100
     12 CAC         2.5570    1.5690   -3.6650 c3        1 27S     -0.175100
     13 CAI         0.7260   -1.9500   -0.3380 c2        1 27S     -0.239200
     14 CAU        -0.5270   -1.9750   -0.8170 ce        1 27S     -0.105400
     15 CAR        -1.0560   -3.1550   -1.6270 c         1 27S      0.902800
     16 OAH        -2.1030   -2.9690   -2.3080 o         1 27S     -0.821800
     17 OAF        -0.4060   -4.2360   -1.5930 o         1 27S     -0.821800
     18 CAL        -1.4570   -0.8470   -0.5670 c3        1 27S     -0.096200
     19 CAW        -0.8000    0.5300   -0.5760 c3        1 27S      0.140100
     20 OAO        -1.2250    1.3570    0.5130 os        1 27S     -0.424600
     21 CAV        -2.6390    1.5730    0.5840 c3        1 27S      0.145100
     22 CAK        -3.0860    1.1340    1.9790 c3        1 27S     -0.098400
     23 CAB        -4.5450    0.7610    2.0060 c3        1 27S     -0.091600
     24 CAJ        -2.9040    3.0620    0.3620 c3        1 27S     -0.098400
     25 CAA        -2.7730    3.4510   -1.0860 c3        1 27S     -0.091600
     26 H2          4.5190   -0.8060    3.5690 hn        1 27S      0.420300
     27 H3          1.0600    1.4500    0.1330 h1        1 27S      0.109700
     28 H4          1.2320   -0.2220   -2.3320 hn        1 27S      0.328500
     29 H5          3.3150    0.7520   -3.7210 hc        1 27S      0.060367
     30 H6          1.7350    1.3520   -4.3880 hc        1 27S      0.060367
     31 H7          3.0410    2.5360   -3.9400 hc        1 27S      0.060367
     32 H8          1.3940   -2.8190   -0.4440 ha        1 27S      0.165000
     33 H10        -2.2780   -0.8800   -1.3360 hc        1 27S      0.085200
     34 H11        -1.9270   -1.0180    0.4440 hc        1 27S      0.085200
     35 H12        -1.0860    1.0590   -1.5320 h1        1 27S      0.036700
     36 H13        -3.1790    0.9720   -0.1980 h1        1 27S      0.053700
     37 H14        -2.4560    0.2560    2.2910 hc        1 27S      0.052950
     38 H15        -2.8850    1.9600    2.7090 hc        1 27S      0.052950
     39 H16        -5.1830    1.6190    1.6820 hc        1 27S      0.030033
     40 H17        -4.7440   -0.1010    1.3240 hc        1 27S      0.030033
     41 H18        -4.8470    0.4680    3.0400 hc        1 27S      0.030033
     42 H19        -3.9370    3.2950    0.7290 hc        1 27S      0.052950
     43 H20        -2.1780    3.6530    0.9790 hc        1 27S      0.052950
     44 H21        -1.7410    3.2290   -1.4540 hc        1 27S      0.030033
     45 H22        -3.5000    2.8860   -1.7180 hc        1 27S      0.030033
     46 H23        -2.9680    4.5430   -1.2150 hc        1 27S      0.030033
     47 H1          5.1850   -1.0540    2.0380 hn        1 27S      0.420300
@<TRIPOS>BOND
     1    1    2 2   
     2    2    3 1   
     3    2    7 1   
     4    3    4 2   
     5    4    5 1   
     6    4    6 1   
     7    5   26 1   
     8    5   47 1   
     9    6    7 1   
    10    7    8 1   
    11    7   13 1   
    12    8    9 1   
    13    8   19 1   
    14    8   27 1   
    15    9   10 1   
    16    9   28 1   
    17   10   11 2   
    18   10   12 1   
    19   12   29 1   
    20   12   30 1   
    21   12   31 1   
    22   13   14 2   
    23   13   32 1   
    24   14   15 1   
    25   14   18 1   
    26   15   16 1   
    27   15   17 1   
    28   18   19 1   
    29   18   33 1   
    30   18   34 1   
    31   19   20 1   
    32   19   35 1   
    33   20   21 1   
    34   21   22 1   
    35   21   24 1   
    36   21   36 1   
    37   22   23 1   
    38   22   37 1   
    39   22   38 1   
    40   23   39 1   
    41   23   40 1   
    42   23   41 1   
    43   24   25 1   
    44   24   42 1   
    45   24   43 1   
    46   25   44 1   
    47   25   45 1   
    48   25   46 1   
@<TRIPOS>SUBSTRUCTURE
     1 27S         1 TEMP              0 ****  ****    0 ROOT
