@<TRIPOS>MOLECULE
27S
   49    50     1     0     0
SMALL
bcc


@<TRIPOS>ATOM
      1 OAG         0.1590   -0.8170    0.2190 o         1 27S     -0.355100
      2 CAT         1.2690   -0.3500    0.0380 c         1 27S      0.690500
      3 NAM         2.0490    0.2630    1.1140 ne        1 27S     -0.561100
      4 CAS         3.3070    0.3240    0.7770 c2        1 27S      0.520100
      5 NAD         4.2970    1.0580    1.5710 n4        1 27S     -0.788600
      6 SAP         3.7990   -0.3720   -0.7430 ss        1 27S     -0.147300
      7 CAY         2.0450   -0.2870   -1.3040 c3        1 27S     -0.012700
      8 CAX         1.7310    1.0920   -1.9620 c3        1 27S      0.111700
      9 NAN         2.8510    1.6800   -2.6470 n         1 27S     -0.563900
     10 CAQ         3.7410    2.5420   -2.0330 c         1 27S      0.703100
     11 OAE         3.7250    2.7000   -0.7870 o         1 27S     -0.706100
     12 CAC         4.7330    3.2630   -2.9070 c3        1 27S     -0.178100
     13 CAI         1.8230   -1.4630   -2.1610 c2        1 27S     -0.133200
     14 CAU         1.1870   -1.4030   -3.3400 ce        1 27S     -0.120400
     15 CAR         1.0620   -2.6240   -4.1780 c         1 27S      0.623300
     16 OAH         1.9950   -3.3060   -4.5950 o         1 27S     -0.454000
     17 OAF        -0.1720   -3.0570   -4.5570 oh        1 27S     -0.554100
     18 CAL         0.6210   -0.1570   -3.9100 c3        1 27S     -0.088200
     19 CAW         0.4900    0.9730   -2.8960 c3        1 27S      0.141100
     20 OAO        -0.6070    0.7580   -2.0180 os        1 27S     -0.425600
     21 CAV        -1.8740    1.2430   -2.5100 c3        1 27S      0.141100
     22 CAK        -2.9160    0.1970   -2.1180 c3        1 27S     -0.096900
     23 CAB        -2.7100   -1.1100   -2.8350 c3        1 27S     -0.096600
     24 CAJ        -2.1910    2.5830   -1.8550 c3        1 27S     -0.096900
     25 CAA        -1.3230    3.7050   -2.3570 c3        1 27S     -0.096600
     26 H2          5.1620    0.5110    1.6340 hn        1 27S      0.489800
     27 H3          1.4330    1.8030   -1.1260 h1        1 27S      0.104700
     28 H4         -0.8660   -2.5230   -4.1400 ho        1 27S      0.438000
     29 H5          5.3930    3.8930   -2.2620 hc        1 27S      0.086033
     30 H6          5.3630    2.5350   -3.4750 hc        1 27S      0.086033
     31 H7          4.1990    3.9260   -3.6310 hc        1 27S      0.086033
     32 H8          2.2150   -2.4230   -1.7760 ha        1 27S      0.175000
     33 H10         1.2730    0.1810   -4.7630 hc        1 27S      0.084200
     34 H11        -0.4020   -0.3690   -4.3340 hc        1 27S      0.084200
     35 H12         0.3550    1.9460   -3.4520 h1        1 27S      0.074700
     36 H13        -1.8390    1.3520   -3.6290 h1        1 27S      0.045700
     37 H14        -3.9300    0.6110   -2.3590 hc        1 27S      0.065450
     38 H15        -2.8650    0.0310   -1.0100 hc        1 27S      0.065450
     39 H16        -3.5190   -1.8310   -2.5610 hc        1 27S      0.036367
     40 H17        -1.7260   -1.5540   -2.5420 hc        1 27S      0.036367
     41 H18        -2.7250   -0.9680   -3.9430 hc        1 27S      0.036367
     42 H19        -3.2680    2.8230   -2.0600 hc        1 27S      0.065450
     43 H20        -2.0740    2.4800   -0.7440 hc        1 27S      0.065450
     44 H21        -1.3720    3.7820   -3.4710 hc        1 27S      0.036367
     45 H22        -0.2590    3.5440   -2.0580 hc        1 27S      0.036367
     46 H23        -1.6630    4.6770   -1.9240 hc        1 27S      0.036367
     47 H1          3.9500    1.2660    2.5180 hn        1 27S      0.489800
     48 HAD3        4.4760    1.9530    1.0680 hn        1 27S      0.489800
     49 HAN2        2.9220    1.5310   -3.6280 hn        1 27S      0.333500
@<TRIPOS>BOND
     1    1    2 2   
     2    2    3 1   
     3    2    7 1   
     4    3    4 2   
     5    4    5 1   
     6    4    6 1   
     7    5   26 1   
     8    5   47 1   
     9    5   48 1   
    10    6    7 1   
    11    7    8 1   
    12    7   13 1   
    13    8    9 1   
    14    8   19 1   
    15    8   27 1   
    16    9   10 1   
    17    9   49 1   
    18   10   11 2   
    19   10   12 1   
    20   12   29 1   
    21   12   30 1   
    22   12   31 1   
    23   13   14 2   
    24   13   32 1   
    25   14   15 1   
    26   14   18 1   
    27   15   16 2   
    28   15   17 1   
    29   17   28 1   
    30   18   19 1   
    31   18   33 1   
    32   18   34 1   
    33   19   20 1   
    34   19   35 1   
    35   20   21 1   
    36   21   22 1   
    37   21   24 1   
    38   21   36 1   
    39   22   23 1   
    40   22   37 1   
    41   22   38 1   
    42   23   39 1   
    43   23   40 1   
    44   23   41 1   
    45   24   25 1   
    46   24   42 1   
    47   24   43 1   
    48   25   44 1   
    49   25   45 1   
    50   25   46 1   
@<TRIPOS>SUBSTRUCTURE
     1 27S         1 TEMP              0 ****  ****    0 ROOT
