@<TRIPOS>MOLECULE
27U
   56    58     1     0     0
SMALL
bcc


@<TRIPOS>ATOM
      1 C3         -0.2940    0.3330   -0.9510 c         1 27U      0.676100
      2 O1          0.8290    0.4180   -1.5000 o         1 27U     -0.662100
      3 C2         -0.4810    0.0640    0.5200 c3        1 27U     -0.143400
      4 C1          0.8330    0.1830    1.2750 c3        1 27U     -0.019100
      5 C17         0.6320   -0.1170    2.7180 ca        1 27U     -0.118300
      6 C18         0.9580   -1.3780    3.2290 ca        1 27U     -0.123500
      7 C19         0.7820   -1.6520    4.5850 ca        1 27U     -0.118500
      8 C20         0.2810   -0.6680    5.4390 ca        1 27U     -0.107000
      9 C21        -0.0430    0.5920    4.9340 ca        1 27U     -0.118500
     10 C22         0.1320    0.8670    3.5790 ca        1 27U     -0.123500
     11 N1         -1.4150    0.5700   -1.7570 n         1 27U     -0.491800
     12 C7         -1.3480    0.3580   -3.1890 c3        1 27U      0.042700
     13 C8         -0.8500    1.5690   -3.9930 c         1 27U      0.537100
     14 O2         -1.1760    1.8740   -5.1290 o         1 27U     -0.428100
     15 C6         -2.7640   -0.0400   -3.6770 c3        1 27U     -0.085400
     16 C5         -3.6830    0.0930   -2.4680 c3        1 27U     -0.098400
     17 C4         -2.7780    0.3860   -1.2630 c3        1 27U      0.071000
     18 N2          0.2220    2.4120   -3.3370 ny        1 27U     -0.683800
     19 C9          0.8400    3.4550   -4.2060 c3        1 27U      0.152100
     20 C10         1.9670    2.9440   -5.0490 ca        1 27U     -0.113300
     21 C15         3.2610    2.8730   -4.5210 ca        1 27U     -0.088000
     22 C14         4.3270    2.4750   -5.3290 ca        1 27U     -0.088000
     23 C13         4.0950    2.1500   -6.6700 ca        1 27U     -0.224900
     24 C16         5.2220    1.6820   -7.5120 ce        1 27U      0.572800
     25 N3          5.8490    0.5720   -7.5350 n2        1 27U     -0.679100
     26 N4          5.6750    2.7290   -8.4940 nz        1 27U     -0.821600
     27 C12         2.8010    2.2110   -7.2010 ca        1 27U     -0.088000
     28 C11         1.7380    2.6040   -6.3880 ca        1 27U     -0.088000
     29 H2         -0.8900   -0.9790    0.6330 hc        1 27U      0.095200
     30 H2A        -1.2350    0.7750    0.9540 hc        1 27U      0.095200
     31 H1          1.2400    1.2220    1.1520 hc        1 27U      0.059200
     32 H1A         1.5840   -0.5220    0.8270 hc        1 27U      0.059200
     33 H18         1.3610   -2.1550    2.5630 ha        1 27U      0.127000
     34 H19         1.0430   -2.6450    4.9830 ha        1 27U      0.146000
     35 H20         0.1450   -0.8850    6.5090 ha        1 27U      0.150000
     36 H21        -0.4330    1.3710    5.6070 ha        1 27U      0.146000
     37 H22        -0.1150    1.8650    3.1870 ha        1 27U      0.127000
     38 H7         -0.5920   -0.4520   -3.4380 h1        1 27U      0.116700
     39 H6         -2.7330   -1.0980   -4.0430 hc        1 27U      0.091700
     40 H6A        -3.1070    0.6050   -4.5240 hc        1 27U      0.091700
     41 H5         -4.4190    0.9230   -2.6140 hc        1 27U      0.087700
     42 H5A        -4.2630   -0.8490   -2.3010 hc        1 27U      0.087700
     43 H4         -2.8180   -0.4610   -0.5230 h1        1 27U      0.077200
     44 H4A        -3.0950    1.3290   -0.7370 h1        1 27U      0.077200
     45 HN2        -0.2080    2.8720   -2.5230 hn        1 27U      0.483800
     46 H9          1.2220    4.2760   -3.5270 hx        1 27U      0.123700
     47 H9A         0.0290    3.8900   -4.8660 hx        1 27U      0.123700
     48 H15         3.4540    3.1400   -3.4670 ha        1 27U      0.174500
     49 H14         5.3430    2.4190   -4.9010 ha        1 27U      0.167000
     50 HN3         5.5870   -0.1590   -6.9050 hn        1 27U      0.497400
     51 HN4         6.0440    3.5310   -7.9720 hn        1 27U      0.477467
     52 HN4A        6.4080    2.3710   -9.1250 hn        1 27U      0.477467
     53 H12         2.6060    1.9350   -8.2510 ha        1 27U      0.167000
     54 H11         0.7150    2.6470   -6.8040 ha        1 27U      0.174500
     55 H221        0.9530    1.7650   -2.9770 hn        1 27U      0.483800
     56 H43         4.8660    3.0280   -9.0490 hn        1 27U      0.477467
@<TRIPOS>BOND
     1    1    2 2   
     2    1    3 1   
     3    1   11 1   
     4    3    4 1   
     5    3   29 1   
     6    3   30 1   
     7    4    5 1   
     8    4   31 1   
     9    4   32 1   
    10    5    6 ar  
    11    5   10 ar  
    12    6    7 ar  
    13    6   33 1   
    14    7    8 ar  
    15    7   34 1   
    16    8    9 ar  
    17    8   35 1   
    18    9   10 ar  
    19    9   36 1   
    20   10   37 1   
    21   11   12 1   
    22   11   17 1   
    23   12   13 1   
    24   12   15 1   
    25   12   38 1   
    26   13   14 2   
    27   13   18 1   
    28   15   16 1   
    29   15   39 1   
    30   15   40 1   
    31   16   17 1   
    32   16   41 1   
    33   16   42 1   
    34   17   43 1   
    35   17   44 1   
    36   18   19 1   
    37   18   45 1   
    38   18   55 1   
    39   19   20 1   
    40   19   46 1   
    41   19   47 1   
    42   20   21 ar  
    43   20   28 ar  
    44   21   22 ar  
    45   21   48 1   
    46   22   23 ar  
    47   22   49 1   
    48   23   24 1   
    49   23   27 ar  
    50   24   25 2   
    51   24   26 1   
    52   25   50 1   
    53   26   51 1   
    54   26   52 1   
    55   26   56 1   
    56   27   28 ar  
    57   27   53 1   
    58   28   54 1   
@<TRIPOS>SUBSTRUCTURE
     1 27U         1 TEMP              0 ****  ****    0 ROOT
