@<TRIPOS>MOLECULE
27U
   56    58     1     0     0
SMALL
bcc


@<TRIPOS>ATOM
      1 C3         -0.2710    0.3050   -0.9500 c         1 27U      0.676100
      2 O1          0.8540    0.4390   -1.4850 o         1 27U     -0.662100
      3 C2         -0.4660    0.0590    0.5230 c3        1 27U     -0.143400
      4 C1          0.8260    0.2670    1.2940 c3        1 27U     -0.019100
      5 C17         0.6200   -0.0110    2.7410 ca        1 27U     -0.118300
      6 C18         1.0090   -1.2400    3.2870 ca        1 27U     -0.123500
      7 C19         0.8270   -1.4920    4.6460 ca        1 27U     -0.118500
      8 C20         0.2560   -0.5200    5.4680 ca        1 27U     -0.107000
      9 C21        -0.1310    0.7080    4.9290 ca        1 27U     -0.118500
     10 C22         0.0500    0.9620    3.5710 ca        1 27U     -0.123500
     11 N1         -1.3910    0.4620   -1.7780 n         1 27U     -0.491800
     12 C7         -1.2900    0.2220   -3.2040 c3        1 27U      0.042700
     13 C8         -0.8450    1.4400   -4.0290 c         1 27U      0.537100
     14 O2         -1.1700    1.7020   -5.1760 o         1 27U     -0.428100
     15 C6         -2.6740   -0.2640   -3.7030 c3        1 27U     -0.085400
     16 C5         -3.6170   -0.1550   -2.5110 c3        1 27U     -0.098400
     17 C4         -2.7490    0.2140   -1.3000 c3        1 27U      0.071000
     18 N2          0.1680    2.3550   -3.3760 n4        1 27U     -0.683800
     19 C9          0.7420    3.4120   -4.2600 c3        1 27U      0.152100
     20 C10         1.9080    2.9440   -5.0750 ca        1 27U     -0.113300
     21 C15         3.1960    2.9550   -4.5270 ca        1 27U     -0.088000
     22 C14         4.2940    2.5990   -5.3100 ca        1 27U     -0.088000
     23 C13         4.1010    2.2330   -6.6470 ca        1 27U     -0.224900
     24 C16         5.2650    1.8090   -7.4620 ce        1 27U      0.572800
     25 N3          5.9510    0.7350   -7.4500 n2        1 27U     -0.679100
     26 N4          5.6760    2.8570   -8.4610 n4        1 27U     -0.821600
     27 C12         2.8140    2.2110   -7.1980 ca        1 27U     -0.088000
     28 C11         1.7190    2.5630   -6.4090 ca        1 27U     -0.088000
     29 H2         -0.8190   -1.0020    0.6550 hc        1 27U      0.095200
     30 H2A        -1.2650    0.7370    0.9300 hc        1 27U      0.095200
     31 H1          1.6220   -0.4050    0.8740 hc        1 27U      0.059200
     32 H1A         1.1780    1.3230    1.1540 hc        1 27U      0.059200
     33 H18         1.4680   -2.0070    2.6450 ha        1 27U      0.127000
     34 H19         1.1380   -2.4580    5.0710 ha        1 27U      0.146000
     35 H20         0.1150   -0.7190    6.5420 ha        1 27U      0.150000
     36 H21        -0.5760    1.4780    5.5770 ha        1 27U      0.146000
     37 H22        -0.2480    1.9340    3.1510 ha        1 27U      0.127000
     38 H7         -0.4860   -0.5510   -3.4230 h1        1 27U      0.116700
     39 H6         -2.5780   -1.3270   -4.0440 hc        1 27U      0.091700
     40 H6A        -3.0370    0.3420   -4.5690 hc        1 27U      0.091700
     41 H5         -4.3960    0.6290   -2.6870 hc        1 27U      0.087700
     42 H5A        -4.1480   -1.1240   -2.3310 hc        1 27U      0.087700
     43 H4         -2.7550   -0.6180   -0.5410 h1        1 27U      0.077200
     44 H4A        -3.1260    1.1490   -0.8010 h1        1 27U      0.077200
     45 HN2        -0.2990    2.8090   -2.5790 hn        1 27U      0.483800
     46 H9         -0.0810    3.7860   -4.9410 hx        1 27U      0.123700
     47 H9A         1.0680    4.2660   -3.5950 hx        1 27U      0.123700
     48 H15         3.3570    3.2560   -3.4770 ha        1 27U      0.174500
     49 H14         5.3040    2.6080   -4.8670 ha        1 27U      0.167000
     50 HN3         5.7200    0.0040   -6.8080 hn        1 27U      0.497400
     51 HN4         5.9930    3.6900   -7.9510 hn        1 27U      0.477133
     52 HN4A        6.4370    2.5260   -9.0730 hn        1 27U      0.477133
     53 H12         2.6510    1.9020   -8.2430 ha        1 27U      0.167000
     54 H11         0.7020    2.5410   -6.8410 ha        1 27U      0.174500
     55 H221        0.9270    1.7580   -2.9910 hn        1 27U      0.483800
     56 H43         4.8600    3.1000   -9.0340 hn        1 27U      0.477133
@<TRIPOS>BOND
     1    1    2 2   
     2    1    3 1   
     3    1   11 1   
     4    3    4 1   
     5    3   29 1   
     6    3   30 1   
     7    4    5 1   
     8    4   31 1   
     9    4   32 1   
    10    5    6 ar  
    11    5   10 ar  
    12    6    7 ar  
    13    6   33 1   
    14    7    8 ar  
    15    7   34 1   
    16    8    9 ar  
    17    8   35 1   
    18    9   10 ar  
    19    9   36 1   
    20   10   37 1   
    21   11   12 1   
    22   11   17 1   
    23   12   13 1   
    24   12   15 1   
    25   12   38 1   
    26   13   14 2   
    27   13   18 1   
    28   15   16 1   
    29   15   39 1   
    30   15   40 1   
    31   16   17 1   
    32   16   41 1   
    33   16   42 1   
    34   17   43 1   
    35   17   44 1   
    36   18   19 1   
    37   18   45 1   
    38   18   55 1   
    39   19   20 1   
    40   19   46 1   
    41   19   47 1   
    42   20   21 ar  
    43   20   28 ar  
    44   21   22 ar  
    45   21   48 1   
    46   22   23 ar  
    47   22   49 1   
    48   23   24 1   
    49   23   27 ar  
    50   24   25 2   
    51   24   26 1   
    52   25   50 1   
    53   26   51 1   
    54   26   52 1   
    55   26   56 1   
    56   27   28 ar  
    57   27   53 1   
    58   28   54 1   
@<TRIPOS>SUBSTRUCTURE
     1 27U         1 TEMP              0 ****  ****    0 ROOT
