@<TRIPOS>MOLECULE
27U
   54    50     1     0     0
SMALL
bcc


@<TRIPOS>ATOM
      1 C3          3.2200    0.8970    0.4050 c1        1 27U      0.326000
      2 O1          4.4350    0.8980    0.4430 o         1 27U     -0.369000
      3 C2          2.4240    0.9410    1.6910 c2        1 27U     -0.175000
      4 C1          3.0490    1.9430    2.6380 c3        1 27U     -0.114000
      5 C17         3.7440    1.2100    3.7630 c2        1 27U     -0.079000
      6 C18         5.1090    1.3600    3.9480 c1        1 27U     -0.115000
      7 C19         5.7320    0.7640    5.0330 c1        1 27U     -0.130000
      8 C20         4.9890    0.0180    5.9340 c1        1 27U     -0.130000
      9 C21         3.6240   -0.1330    5.7500 c1        1 27U     -0.134000
     10 C22         3.0010    0.4630    4.6640 c2        1 27U     -0.129000
     11 N1          2.5500    0.9600   -0.8460 n3        1 27U     -0.334000
     12 C7          1.0220    0.9680   -1.0830 c3        1 27U      0.023000
     13 C8          0.3750   -0.2580   -0.7580 c2        1 27U      0.267000
     14 O2          1.0230   -1.1920   -0.3330 o         1 27U     -0.343000
     15 C6          0.9150    1.3770   -2.6270 c3        1 27U     -0.165000
     16 C5          2.0640    1.7700   -2.9540 c3        1 27U     -0.170000
     17 C4          3.0890    1.0230   -2.0080 c3        1 27U     -0.018000
     18 N2         -1.0210   -0.4060   -0.9850 n         1 27U     -0.366000
     19 C9         -1.6240   -1.6940   -0.8960 c3        1 27U      0.001000
     20 C10        -3.0470   -1.6210   -1.4060 c2        1 27U     -0.109000
     21 C15        -3.3120   -1.8380   -2.7490 c2        1 27U     -0.119000
     22 C14        -4.6230   -1.8770   -3.2000 c1        1 27U     -0.098000
     23 C13        -5.6680   -1.7000   -2.3080 c1        1 27U     -0.108000
     24 C16        -7.0960   -1.7090   -2.8050 c2        1 27U      0.114000
     25 N3         -7.7410   -2.8410   -2.9200 n1        1 27U     -0.301000
     26 N4         -7.7360   -0.4900   -3.1460 n3        1 27U     -0.331000
     27 C12        -5.4030   -1.4840   -0.9640 c1        1 27U     -0.118000
     28 C11        -4.0940   -1.4440   -0.5130 c1        1 27U     -0.125000
     29 H2          2.4260    0.0550    2.1060 ha        1 27U      0.113000
     30 H2A         1.5040    1.2060    1.4960 ha        1 27U      0.113000
     31 H1          3.7000    2.4880    2.1520 hc        1 27U      0.100000
     32 H1A         2.3520    2.5210    3.0070 hc        1 27U      0.100000
     33 H18         5.6320    1.8860    3.3130 ha        1 27U      0.158000
     34 H19         6.6930    0.8700    5.1630 ha        1 27U      0.129500
     35 H20         5.4280   -0.4020    6.6990 ha        1 27U      0.129500
     36 H21         3.1010   -0.6580    6.3850 ha        1 27U      0.127000
     37 H22         2.0400    0.3570    4.5350 ha        1 27U      0.125000
     38 H7          0.5600    1.6010   -0.4990 h1        1 27U      0.107000
     39 H6          0.6570    0.6000   -3.1660 hc        1 27U      0.095500
     40 H6A         0.2640    2.1010   -2.7410 hc        1 27U      0.095500
     41 H5          2.1360    2.7400   -2.8270 hc        1 27U      0.096000
     42 H5A         2.2430    1.5400   -3.8900 hc        1 27U      0.096000
     43 H4          3.2600    0.1200   -2.3470 h1        1 27U      0.100500
     44 H4A         3.9290    1.5270   -1.9600 h1        1 27U      0.100500
     45 HN2        -1.5370    0.3280   -1.1530 hn        1 27U      0.214000
     46 H9         -1.6260   -1.9890    0.0380 h1        1 27U      0.113000
     47 H9A        -1.1150   -2.3310   -1.4390 h1        1 27U      0.113000
     48 H15        -2.5760   -1.9630   -3.3780 ha        1 27U      0.161000
     49 H14        -4.8090   -2.0300   -4.1460 ha        1 27U      0.154000
     50 HN3        -7.3290   -3.6250   -2.7000 DU        1 27U      0.151000
     51 HN4        -8.5780   -0.5000   -3.5010 hn        1 27U      0.193500
     52 HN4A       -7.3060    0.3050   -3.0100 hn        1 27U      0.193500
     53 H12        -6.1400   -1.3590   -0.3360 ha        1 27U      0.139000
     54 H11        -3.9070   -1.2920    0.4320 ha        1 27U      0.134000
@<TRIPOS>BOND
     1    1    2 1   
     2    1   11 1   
     3    3    4 1   
     4    3   29 1   
     5    3   30 1   
     6    4    5 1   
     7    4   31 1   
     8    4   32 1   
     9    5    6 1   
    10    5   10 1   
    11    6   33 1   
    12    7    8 1   
    13    7   34 1   
    14    8   35 1   
    15    9   10 1   
    16    9   36 1   
    17   10   37 1   
    18   11   12 1   
    19   11   17 1   
    20   12   13 1   
    21   12   15 1   
    22   12   38 1   
    23   13   14 1   
    24   13   18 1   
    25   15   16 1   
    26   15   39 1   
    27   15   40 1   
    28   16   17 1   
    29   16   41 1   
    30   16   42 1   
    31   17   43 1   
    32   17   44 1   
    33   18   19 1   
    34   18   45 1   
    35   19   20 1   
    36   19   46 1   
    37   19   47 1   
    38   20   21 1   
    39   20   28 1   
    40   21   22 1   
    41   21   48 1   
    42   22   49 1   
    43   23   24 1   
    44   23   27 1   
    45   24   25 1   
    46   24   26 1   
    47   26   51 1   
    48   26   52 1   
    49   27   53 1   
    50   28   54 1   
@<TRIPOS>SUBSTRUCTURE
     1 27U         1 TEMP              0 ****  ****    0 ROOT
