@<TRIPOS>MOLECULE
27U
   56    58     1     0     0
SMALL
bcc


@<TRIPOS>ATOM
      1 C3         -0.2870    0.2940   -0.9680 c         1 27U      0.676100
      2 O1          0.8470    0.4460   -1.4780 o         1 27U     -0.662100
      3 C2         -0.5120    0.0600    0.5040 c3        1 27U     -0.143400
      4 C1          0.7580    0.3030    1.3020 c3        1 27U     -0.019100
      5 C17         0.5230    0.0370    2.7470 ca        1 27U     -0.118300
      6 C18         0.9260   -1.1750    3.3170 ca        1 27U     -0.123500
      7 C19         0.7170   -1.4140    4.6750 ca        1 27U     -0.118500
      8 C20         0.1050   -0.4460    5.4710 ca        1 27U     -0.107000
      9 C21        -0.2970    0.7660    4.9070 ca        1 27U     -0.118500
     10 C22        -0.0880    1.0080    3.5500 ca        1 27U     -0.123500
     11 N1         -1.3900    0.4190   -1.8230 n         1 27U     -0.491800
     12 C7         -1.2510    0.1660   -3.2430 c3        1 27U      0.042700
     13 C8         -0.8120    1.3850   -4.0710 c         1 27U      0.537100
     14 O2         -1.1150    1.6270   -5.2280 o         1 27U     -0.428100
     15 C6         -2.6130   -0.3540   -3.7680 c3        1 27U     -0.085400
     16 C5         -3.5860   -0.2510   -2.6000 c3        1 27U     -0.098400
     17 C4         -2.7540    0.1490   -1.3730 c3        1 27U      0.071000
     18 N2          0.1660    2.3270   -3.4050 n4        1 27U     -0.683800
     19 C9          0.7380    3.3860   -4.2870 c3        1 27U      0.152100
     20 C10         1.9340    2.9350   -5.0680 ca        1 27U     -0.113300
     21 C15         3.2070    2.9800   -4.4900 ca        1 27U     -0.088000
     22 C14         4.3310    2.6380   -5.2440 ca        1 27U     -0.088000
     23 C13         4.1770    2.2520   -6.5800 ca        1 27U     -0.224900
     24 C16         5.3690    1.8450   -7.3620 ce        1 27U      0.572800
     25 N3          6.0760    0.7840   -7.3240 n2        1 27U     -0.679100
     26 N4          5.7840    2.8920   -8.3610 n4        1 27U     -0.821600
     27 C12         2.9050    2.1980   -7.1610 ca        1 27U     -0.088000
     28 C11         1.7840    2.5350   -6.4020 ca        1 27U     -0.088000
     29 H2         -0.8460   -1.0060    0.6390 hc        1 27U      0.095200
     30 H2A        -1.3330    0.7260    0.8840 hc        1 27U      0.095200
     31 H1          1.0920    1.3650    1.1570 hc        1 27U      0.059200
     32 H1A         1.5770   -0.3580    0.9090 hc        1 27U      0.059200
     33 H18         1.4170   -1.9390    2.6970 ha        1 27U      0.127000
     34 H19         1.0390   -2.3680    5.1200 ha        1 27U      0.146000
     35 H20        -0.0580   -0.6350    6.5430 ha        1 27U      0.150000
     36 H21        -0.7750    1.5340    5.5350 ha        1 27U      0.146000
     37 H22        -0.3980    1.9680    3.1110 ha        1 27U      0.127000
     38 H7         -0.4270   -0.5920   -3.4350 h1        1 27U      0.116700
     39 H6         -2.4890   -1.4180   -4.0950 hc        1 27U      0.091700
     40 H6A        -2.9680    0.2350   -4.6500 hc        1 27U      0.091700
     41 H5         -4.3750    0.5160   -2.8020 hc        1 27U      0.087700
     42 H5A        -4.1020   -1.2280   -2.4210 hc        1 27U      0.087700
     43 H4         -3.1610    1.0810   -0.8930 h1        1 27U      0.077200
     44 H4A        -2.7600   -0.6750   -0.6060 h1        1 27U      0.077200
     45 HN2         0.9280    1.7500   -2.9960 hn        1 27U      0.483800
     46 H9         -0.0750    3.7360   -4.9910 hx        1 27U      0.123700
     47 H9A         1.0310    4.2550   -3.6230 hx        1 27U      0.123700
     48 H15         3.3370    3.2950   -3.4410 ha        1 27U      0.174500
     49 H14         5.3300    2.6730   -4.7770 ha        1 27U      0.167000
     50 HN3         5.8430    0.0550   -6.6810 hn        1 27U      0.497400
     51 HN4         6.5660    2.5700   -8.9510 hn        1 27U      0.477133
     52 HN4A        4.9780    3.1120   -8.9560 hn        1 27U      0.477133
     53 H12         2.7730    1.8740   -8.2060 ha        1 27U      0.167000
     54 H11         0.7780    2.4870   -6.8570 ha        1 27U      0.174500
     55 H221       -0.3290    2.7790   -2.6240 hn        1 27U      0.483800
     56 H43         6.0710    3.7350   -7.8520 hn        1 27U      0.477133
@<TRIPOS>BOND
     1    1    2 2   
     2    1    3 1   
     3    1   11 1   
     4    3    4 1   
     5    3   29 1   
     6    3   30 1   
     7    4    5 1   
     8    4   31 1   
     9    4   32 1   
    10    5    6 ar  
    11    5   10 ar  
    12    6    7 ar  
    13    6   33 1   
    14    7    8 ar  
    15    7   34 1   
    16    8    9 ar  
    17    8   35 1   
    18    9   10 ar  
    19    9   36 1   
    20   10   37 1   
    21   11   12 1   
    22   11   17 1   
    23   12   13 1   
    24   12   15 1   
    25   12   38 1   
    26   13   14 2   
    27   13   18 1   
    28   15   16 1   
    29   15   39 1   
    30   15   40 1   
    31   16   17 1   
    32   16   41 1   
    33   16   42 1   
    34   17   43 1   
    35   17   44 1   
    36   18   19 1   
    37   18   45 1   
    38   18   55 1   
    39   19   20 1   
    40   19   46 1   
    41   19   47 1   
    42   20   21 ar  
    43   20   28 ar  
    44   21   22 ar  
    45   21   48 1   
    46   22   23 ar  
    47   22   49 1   
    48   23   24 1   
    49   23   27 ar  
    50   24   25 2   
    51   24   26 1   
    52   25   50 1   
    53   26   51 1   
    54   26   52 1   
    55   26   56 1   
    56   27   28 ar  
    57   27   53 1   
    58   28   54 1   
@<TRIPOS>SUBSTRUCTURE
     1 27U         1 TEMP              0 ****  ****    0 ROOT
