@<TRIPOS>MOLECULE
27U
   54    56     1     0     0
SMALL
bcc


@<TRIPOS>ATOM
      1 C3         -1.9420    0.7150   -0.3840 c         1 27U      0.663100
      2 O1         -1.1780   -0.0760   -0.9770 o         1 27U     -0.625100
      3 C2         -3.4180    0.4220   -0.2050 c3        1 27U     -0.140400
      4 C1         -3.7200   -1.0350   -0.5060 c3        1 27U     -0.032100
      5 C17        -5.1810   -1.3050   -0.4270 ca        1 27U     -0.085300
      6 C18        -6.0220   -0.9460   -1.4880 ca        1 27U     -0.126500
      7 C19        -7.3890   -1.2060   -1.4210 ca        1 27U     -0.128000
      8 C20        -7.9290   -1.8290   -0.2950 ca        1 27U     -0.130000
      9 C21        -7.0970   -2.1910    0.7630 ca        1 27U     -0.128000
     10 C22        -5.7280   -1.9310    0.6990 ca        1 27U     -0.126500
     11 N1         -1.4370    1.8830    0.1650 n         1 27U     -0.463800
     12 C7         -0.0850    2.3500   -0.1170 c3        1 27U      0.033700
     13 C8          0.9670    1.7620    0.8540 c         1 27U      0.651100
     14 O2          1.6940    2.5030    1.5460 o         1 27U     -0.624100
     15 C6         -0.1150    3.8920   -0.0300 c3        1 27U     -0.088400
     16 C5         -1.4770    4.2690    0.5400 c3        1 27U     -0.090400
     17 C4         -2.2860    2.9650    0.6300 c3        1 27U      0.087000
     18 N2          1.0580    0.3900    0.9160 n         1 27U     -0.549900
     19 C9          2.0740   -0.2710    1.6900 c3        1 27U      0.131300
     20 C10         3.3570   -0.5410    0.9530 ca        1 27U     -0.109300
     21 C15         3.7030   -1.8420    0.5790 ca        1 27U     -0.124000
     22 C14         4.9090   -2.0870   -0.0760 ca        1 27U     -0.103500
     23 C13         5.7770   -1.0280   -0.3570 ca        1 27U     -0.139900
     24 C16         7.0750   -1.2960   -1.0560 ce        1 27U      0.651800
     25 N3          7.0590   -2.0080   -2.1430 n2        1 27U     -0.826100
     26 N4          8.1920   -0.6640   -0.4660 nh        1 27U     -0.959800
     27 C12         5.4280    0.2780    0.0040 ca        1 27U     -0.103500
     28 C11         4.2220    0.5180    0.6580 ca        1 27U     -0.124000
     29 H2         -3.7390    0.6690    0.8420 hc        1 27U      0.070200
     30 H2A        -3.9950    1.0820   -0.9070 hc        1 27U      0.070200
     31 H1         -3.3370   -1.2870   -1.5320 hc        1 27U      0.067700
     32 H1A        -3.1610   -1.6850    0.2180 hc        1 27U      0.067700
     33 H18        -5.5960   -0.4600   -2.3790 ha        1 27U      0.132000
     34 H19        -8.0430   -0.9230   -2.2590 ha        1 27U      0.132000
     35 H20        -9.0080   -2.0350   -0.2440 ha        1 27U      0.132000
     36 H21        -7.5190   -2.6850    1.6500 ha        1 27U      0.132000
     37 H22        -5.0750   -2.2230    1.5340 ha        1 27U      0.132000
     38 H7          0.2190    2.0190   -1.1550 h1        1 27U      0.084700
     39 H6          0.7140    4.2700    0.6200 hc        1 27U      0.074700
     40 H6A         0.0220    4.3210   -1.0530 hc        1 27U      0.074700
     41 H5         -1.3710    4.7250    1.5540 hc        1 27U      0.056700
     42 H5A        -1.9990    5.0060   -0.1170 hc        1 27U      0.056700
     43 H4         -3.2200    3.0330    0.0060 h1        1 27U      0.047200
     44 H4A        -2.5930    2.7590    1.6930 h1        1 27U      0.047200
     45 HN2         0.5920   -0.1530    0.2210 hn        1 27U      0.338500
     46 H9          2.3120    0.3710    2.5900 h1        1 27U      0.066200
     47 H9A         1.6400   -1.2470    2.0530 h1        1 27U      0.066200
     48 H15         3.0220   -2.6790    0.7960 ha        1 27U      0.146000
     49 H14         5.1710   -3.1120   -0.3820 ha        1 27U      0.146000
     50 HN3         7.9410   -2.1680   -2.5820 hn        1 27U      0.381400
     51 HN4         8.0740   -0.3840    0.4790 hn        1 27U      0.398800
     52 HN4A        9.0840   -1.0490   -0.6700 hn        1 27U      0.398800
     53 H12         6.0960    1.1190   -0.2360 ha        1 27U      0.146000
     54 H11         3.9370    1.5440    0.9470 ha        1 27U      0.146000
@<TRIPOS>BOND
     1    1    2 2   
     2    1    3 1   
     3    1   11 1   
     4    3    4 1   
     5    3   29 1   
     6    3   30 1   
     7    4    5 1   
     8    4   31 1   
     9    4   32 1   
    10    5    6 ar  
    11    5   10 ar  
    12    6    7 ar  
    13    6   33 1   
    14    7    8 ar  
    15    7   34 1   
    16    8    9 ar  
    17    8   35 1   
    18    9   10 ar  
    19    9   36 1   
    20   10   37 1   
    21   11   12 1   
    22   11   17 1   
    23   12   13 1   
    24   12   15 1   
    25   12   38 1   
    26   13   14 2   
    27   13   18 1   
    28   15   16 1   
    29   15   39 1   
    30   15   40 1   
    31   16   17 1   
    32   16   41 1   
    33   16   42 1   
    34   17   43 1   
    35   17   44 1   
    36   18   19 1   
    37   18   45 1   
    38   19   20 1   
    39   19   46 1   
    40   19   47 1   
    41   20   21 ar  
    42   20   28 ar  
    43   21   22 ar  
    44   21   48 1   
    45   22   23 ar  
    46   22   49 1   
    47   23   24 1   
    48   23   27 ar  
    49   24   25 2   
    50   24   26 1   
    51   25   50 1   
    52   26   51 1   
    53   26   52 1   
    54   27   28 ar  
    55   27   53 1   
    56   28   54 1   
@<TRIPOS>SUBSTRUCTURE
     1 27U         1 TEMP              0 ****  ****    0 ROOT
