@<TRIPOS>MOLECULE
27V
   48    49     1     0     0
SMALL
bcc


@<TRIPOS>ATOM
      1 OAG         0.3230   -0.4010    0.4660 o         1 27V     -0.610500
      2 CAT         1.4750   -0.0010    0.2380 c         1 27V      0.686500
      3 NAM         2.3170    0.4570    1.2450 n         1 27V     -0.540400
      4 CAS         3.6950    0.5740    0.9000 c2        1 27V      0.500800
      5 NAD         4.6860    0.9910    1.5940 n2        1 27V     -0.754100
      6 SAP         3.9350   -0.0520   -0.7390 ss        1 27V     -0.172300
      7 CAY         2.1610   -0.0800   -1.1330 c3        1 27V     -0.017700
      8 CAX         1.8230   -1.3900   -1.8630 c3        1 27V      0.147500
      9 NAN         1.9400   -2.5670   -0.9230 n4        1 27V     -0.680800
     10 CAQ         2.3300   -3.8440   -1.6310 c         1 27V      0.573100
     11 OAE         3.4540   -3.8700   -2.1110 o         1 27V     -0.426100
     12 CAC         1.3060   -4.9240   -1.6610 c3        1 27V     -0.188100
     13 CAI         1.8070    1.0990   -1.9610 c2        1 27V     -0.254200
     14 CAU         1.0610    1.0420   -3.0720 ce        1 27V     -0.092400
     15 CAR         0.6970    2.3150   -3.8680 c         1 27V      0.913800
     16 OAH        -0.2700    2.1990   -4.6640 o         1 27V     -0.785800
     17 OAF         1.3800    3.3410   -3.6430 o         1 27V     -0.785800
     18 CAL         0.4950   -0.2230   -3.5950 c3        1 27V     -0.088200
     19 CAW         0.4030   -1.2600   -2.4830 c3        1 27V      0.127100
     20 OAO         0.0380   -2.5550   -2.9580 os        1 27V     -0.482600
     21 CAV        -1.3520   -2.6750   -3.3220 c3        1 27V      0.141100
     22 CAK        -1.3860   -3.4800   -4.6200 c3        1 27V     -0.094900
     23 CAB        -1.0000   -2.6370   -5.8070 c3        1 27V     -0.099600
     24 CAJ        -2.1010   -3.4050   -2.2090 c3        1 27V     -0.094900
     25 CAA        -2.2840   -2.5670   -0.9710 c3        1 27V     -0.099600
     26 H1          1.9480    0.8240    2.0920 hn        1 27V      0.349500
     27 H2          4.5210    1.3300    2.5180 hn        1 27V      0.416400
     28 H3          2.5750   -1.5520   -2.6950 hx        1 27V      0.137700
     29 H4          2.6730   -2.3370   -0.2340 hn        1 27V      0.461800
     30 H5          1.8080   -5.8860   -1.9400 hc        1 27V      0.111033
     31 H6          0.5400   -4.6700   -2.4470 hc        1 27V      0.111033
     32 H7          0.7900   -5.0470   -0.6780 hc        1 27V      0.111033
     33 H8          2.2180    2.0690   -1.6270 ha        1 27V      0.191000
     34 H10         1.1290   -0.6030   -4.4410 hc        1 27V      0.101700
     35 H11        -0.5260   -0.0120   -4.0260 hc        1 27V      0.101700
     36 H12        -0.3270   -0.9220   -1.6920 h1        1 27V      0.094700
     37 H13        -1.8040   -1.6580   -3.4860 h1        1 27V      0.082700
     38 H14        -2.4230   -3.8840   -4.7610 hc        1 27V      0.045700
     39 H15        -0.6890   -4.3530   -4.5270 hc        1 27V      0.045700
     40 H16        -0.9630   -3.2640   -6.7300 hc        1 27V      0.043700
     41 H17         0.0050   -2.1740   -5.6460 hc        1 27V      0.043700
     42 H18        -1.7380   -1.8140   -5.9680 hc        1 27V      0.043700
     43 H19        -1.5540   -4.3500   -1.9520 hc        1 27V      0.045700
     44 H20        -3.1090   -3.6980   -2.6070 hc        1 27V      0.045700
     45 H21        -1.3020   -2.3580   -0.4770 hc        1 27V      0.043700
     46 H22        -2.9370   -3.0990   -0.2380 hc        1 27V      0.043700
     47 H23        -2.7600   -1.5870   -1.2200 hc        1 27V      0.043700
     48 HAN2        1.0360   -2.6820   -0.4490 hn        1 27V      0.461800
@<TRIPOS>BOND
     1    1    2 2   
     2    2    3 1   
     3    2    7 1   
     4    3    4 1   
     5    3   26 1   
     6    4    5 2   
     7    4    6 1   
     8    5   27 1   
     9    6    7 1   
    10    7    8 1   
    11    7   13 1   
    12    8    9 1   
    13    8   19 1   
    14    8   28 1   
    15    9   10 1   
    16    9   29 1   
    17    9   48 1   
    18   10   11 2   
    19   10   12 1   
    20   12   30 1   
    21   12   31 1   
    22   12   32 1   
    23   13   14 2   
    24   13   33 1   
    25   14   15 1   
    26   14   18 1   
    27   15   16 1   
    28   15   17 1   
    29   18   19 1   
    30   18   34 1   
    31   18   35 1   
    32   19   20 1   
    33   19   36 1   
    34   20   21 1   
    35   21   22 1   
    36   21   24 1   
    37   21   37 1   
    38   22   23 1   
    39   22   38 1   
    40   22   39 1   
    41   23   40 1   
    42   23   41 1   
    43   23   42 1   
    44   24   25 1   
    45   24   43 1   
    46   24   44 1   
    47   25   45 1   
    48   25   46 1   
    49   25   47 1   
@<TRIPOS>SUBSTRUCTURE
     1 27V         1 TEMP              0 ****  ****    0 ROOT
