@<TRIPOS>MOLECULE
27V
   47    44     1     0     0
SMALL
bcc


@<TRIPOS>ATOM
      1 OAG        -0.9160    1.5410    2.5420 o         1 27V     -0.342000
      2 CAT         0.2570    1.8610    2.4730 c1        1 27V      0.329000
      3 NAM         1.2320    2.2340    3.7460 n2        1 27V     -0.394000
      4 CAS         2.6760    2.3320    3.2330 c2        1 27V     -0.010000
      5 NAD         3.7560    2.4300    3.9750 n1        1 27V     -0.288000
      6 SAP         2.6310    2.2920    1.6090 ss        1 27V      0.262000
      7 CAY         1.0730    2.0460    1.1710 c3        1 27V     -0.126000
      8 CAX         0.9950    0.5750    0.2620 c3        1 27V      0.038000
      9 NAN         1.3480   -0.6040    1.2170 n3        1 27V     -0.357000
     10 CAQ         2.6790   -1.1540    1.2190 c1        1 27V      0.305000
     11 OAE         3.5280   -0.6960    0.4730 o         1 27V     -0.360000
     12 CAC         3.0230   -2.3210    2.1470 c2        1 27V     -0.244000
     13 CAI         0.6000    3.2410    0.4990 c2        1 27V     -0.230000
     14 CAU        -0.6330    2.9900   -0.6260 c1        1 27V     -0.075000
     15 CAR        -1.2730    4.1780   -1.3340 c2        1 27V      0.356000
     16 OAH        -2.4260    4.5650   -0.9990 o         1 27V     -0.552500
     17 OAF        -0.6300    4.8040   -2.2220 o         1 27V     -0.552500
     18 CAL        -0.6580    1.5730   -1.2940 c2        1 27V     -0.161000
     19 CAW        -0.0550    0.3460   -0.2340 c3        1 27V      0.003000
     20 OAO         0.0730   -0.9680   -1.0430 os        1 27V     -0.290000
     21 CAV        -1.1860   -1.5010   -1.4950 c3        1 27V      0.031000
     22 CAK        -1.4980   -2.8050   -0.7290 c3        1 27V     -0.173000
     23 CAB        -3.0160   -2.9370   -0.5380 c3        1 27V     -0.210500
     24 CAJ        -1.1060   -1.8000   -3.0100 c3        1 27V     -0.173000
     25 CAA        -2.4560   -1.4730   -3.6700 c3        1 27V     -0.210500
     26 H1          0.9590    2.3650    4.6120 hn        1 27V      0.237000
     27 H2          3.6840    2.4460    4.8880 DU        1 27V      0.137000
     28 H3          1.6730    0.6140   -0.4500 h1        1 27V      0.155000
     29 H4          0.7200   -0.9220    1.8040 hn        1 27V      0.216000
     30 H5          2.3770   -3.0490    2.0120 ha        1 27V      0.098333
     31 H6          2.9860   -2.0190    3.0810 ha        1 27V      0.098333
     32 H7          3.9290   -2.6460    1.9430 ha        1 27V      0.098333
     33 H8          0.7010    4.1190    0.9270 ha        1 27V      0.166000
     34 H10        -0.2360    1.6380   -2.1800 ha        1 27V      0.119500
     35 H11        -1.5700    1.3100   -1.5490 ha        1 27V      0.119500
     36 H12        -0.7120    0.2070    0.4830 h1        1 27V      0.103000
     37 H13        -1.8980   -0.8460   -1.3280 h1        1 27V      0.101000
     38 H14        -1.1640   -3.5750   -1.2430 hc        1 27V      0.085750
     39 H15        -1.0580   -2.7820    0.1480 hc        1 27V      0.085750
     40 H16        -3.2100   -3.7370    0.0020 hc        1 27V      0.072167
     41 H17        -3.3580   -2.1400   -0.0770 hc        1 27V      0.072167
     42 H18        -3.4500   -3.0210   -1.4150 hc        1 27V      0.072167
     43 H19        -0.4010   -1.2470   -3.4160 hc        1 27V      0.085750
     44 H20        -0.8960   -2.7510   -3.1460 hc        1 27V      0.085750
     45 H21        -2.7530   -1.5140   -4.6110 hc        1 27V      0.072167
     46 H22        -1.9080   -0.7490   -4.0480 hc        1 27V      0.072167
     47 H23        -2.4360   -2.4470   -3.8080 hc        1 27V      0.072167
@<TRIPOS>BOND
     1    1    2 1   
     2    2    7 1   
     3    3    4 1   
     4    3   26 1   
     5    4    5 1   
     6    4    6 1   
     7    6    7 1   
     8    7    8 1   
     9    7   13 1   
    10    8    9 1   
    11    8   19 1   
    12    8   28 1   
    13    9   10 1   
    14    9   29 1   
    15   10   11 1   
    16   12   30 1   
    17   12   31 1   
    18   12   32 1   
    19   13   14 1   
    20   13   33 1   
    21   14   15 1   
    22   15   16 1   
    23   15   17 1   
    24   18   19 1   
    25   18   34 1   
    26   18   35 1   
    27   19   20 1   
    28   19   36 1   
    29   20   21 1   
    30   21   22 1   
    31   21   24 1   
    32   21   37 1   
    33   22   23 1   
    34   22   38 1   
    35   22   39 1   
    36   23   40 1   
    37   23   41 1   
    38   23   42 1   
    39   24   25 1   
    40   24   43 1   
    41   24   44 1   
    42   25   45 1   
    43   25   46 1   
    44   25   47 1   
@<TRIPOS>SUBSTRUCTURE
     1 27V         1 TEMP              0 ****  ****    0 ROOT
