@<TRIPOS>MOLECULE
27V
   47    48     1     0     0
SMALL
bcc


@<TRIPOS>ATOM
      1 OAG        -1.3590    0.5460    2.1840 o         1 27V     -0.615500
      2 CAT        -2.0020    0.3940    1.1340 c         1 27V      0.720500
      3 NAM        -3.3300    0.8170    1.0480 n         1 27V     -0.507400
      4 CAS        -3.9280    0.7570   -0.2290 c2        1 27V      0.530800
      5 NAD        -5.1420    1.1430   -0.4510 n2        1 27V     -0.834100
      6 SAP        -2.7750    0.1110   -1.3920 ss        1 27V     -0.278300
      7 CAY        -1.4520   -0.1930   -0.1680 c3        1 27V      0.040300
      8 CAX        -0.1580    0.5440   -0.5980 c3        1 27V      0.113700
      9 NAN        -0.2410    1.9620   -0.3300 n         1 27V     -0.546900
     10 CAQ         0.0180    2.9130   -1.3070 c         1 27V      0.661100
     11 OAE         0.0590    2.6340   -2.5210 o         1 27V     -0.601100
     12 CAC         0.1830    4.3400   -0.8330 c3        1 27V     -0.176100
     13 CAI        -1.2920   -1.6620   -0.0610 c2        1 27V     -0.235200
     14 CAU        -0.1210   -2.3080   -0.1620 ce        1 27V     -0.097400
     15 CAR        -0.0270   -3.8290   -0.0370 c         1 27V      0.905800
     16 OAH        -1.0840   -4.5010   -0.1780 o         1 27V     -0.817800
     17 OAF         1.1120   -4.3150    0.2090 o         1 27V     -0.817800
     18 CAL         1.1550   -1.5820   -0.3670 c3        1 27V     -0.080200
     19 CAW         1.0320   -0.1490    0.1330 c3        1 27V      0.113100
     20 OAO         2.2100    0.6040   -0.1690 os        1 27V     -0.429600
     21 CAV         3.2820    0.3950    0.7580 c3        1 27V      0.141100
     22 CAK         4.5590    0.2590   -0.0720 c3        1 27V     -0.091400
     23 CAB         4.6340   -1.0820   -0.7540 c3        1 27V     -0.097600
     24 CAJ         3.3740    1.6010    1.6940 c3        1 27V     -0.091400
     25 CAA         2.3470    1.5560    2.7940 c3        1 27V     -0.097600
     26 H1         -3.8230    1.1540    1.8410 hn        1 27V      0.341500
     27 H2         -5.4370    1.0440   -1.3970 hn        1 27V      0.407400
     28 H3         -0.0260    0.3950   -1.7130 h1        1 27V      0.116700
     29 H4         -0.0480    2.2170    0.6140 hn        1 27V      0.304500
     30 H5         -0.7110    4.6690   -0.2510 hc        1 27V      0.059367
     31 H6          1.0910    4.4280   -0.1900 hc        1 27V      0.059367
     32 H7          0.3010    5.0030   -1.7240 hc        1 27V      0.059367
     33 H8         -2.2210   -2.2390    0.0890 ha        1 27V      0.167000
     34 H10         1.9800   -2.1190    0.1770 hc        1 27V      0.080200
     35 H11         1.4220   -1.5890   -1.4580 hc        1 27V      0.080200
     36 H12         0.8380   -0.1390    1.2430 h1        1 27V      0.067700
     37 H13         3.1180   -0.5440    1.3560 h1        1 27V      0.061700
     38 H14         4.5800    1.0780   -0.8380 hc        1 27V      0.038700
     39 H15         5.4440    0.3950    0.6020 hc        1 27V      0.038700
     40 H16         5.5330   -1.1330   -1.4130 hc        1 27V      0.038533
     41 H17         4.6950   -1.9070   -0.0030 hc        1 27V      0.038533
     42 H18         3.7190   -1.2480   -1.3760 hc        1 27V      0.038533
     43 H19         4.4000    1.6270    2.1460 hc        1 27V      0.038700
     44 H20         3.2450    2.5360    1.0890 hc        1 27V      0.038700
     45 H21         1.3110    1.6000    2.3750 hc        1 27V      0.038533
     46 H22         2.4390    0.6140    3.3860 hc        1 27V      0.038533
     47 H23         2.4830    2.4220    3.4860 hc        1 27V      0.038533
@<TRIPOS>BOND
     1    1    2 2   
     2    2    3 1   
     3    2    7 1   
     4    3    4 1   
     5    3   26 1   
     6    4    5 2   
     7    4    6 1   
     8    5   27 1   
     9    6    7 1   
    10    7    8 1   
    11    7   13 1   
    12    8    9 1   
    13    8   19 1   
    14    8   28 1   
    15    9   10 1   
    16    9   29 1   
    17   10   11 2   
    18   10   12 1   
    19   12   30 1   
    20   12   31 1   
    21   12   32 1   
    22   13   14 2   
    23   13   33 1   
    24   14   15 1   
    25   14   18 1   
    26   15   16 1   
    27   15   17 1   
    28   18   19 1   
    29   18   34 1   
    30   18   35 1   
    31   19   20 1   
    32   19   36 1   
    33   20   21 1   
    34   21   22 1   
    35   21   24 1   
    36   21   37 1   
    37   22   23 1   
    38   22   38 1   
    39   22   39 1   
    40   23   40 1   
    41   23   41 1   
    42   23   42 1   
    43   24   25 1   
    44   24   43 1   
    45   24   44 1   
    46   25   45 1   
    47   25   46 1   
    48   25   47 1   
@<TRIPOS>SUBSTRUCTURE
     1 27V         1 TEMP              0 ****  ****    0 ROOT
