@<TRIPOS>MOLECULE
27V
   48    49     1     0     0
SMALL
bcc


@<TRIPOS>ATOM
      1 OAG         0.3120   -0.4530    0.4870 o         1 27V     -0.610500
      2 CAT         1.4580   -0.0300    0.2640 c         1 27V      0.686500
      3 NAM         2.2950    0.4220    1.2770 ns        1 27V     -0.540400
      4 CAS         3.6700    0.5670    0.9300 c2        1 27V      0.500800
      5 NAD         4.6570    0.9870    1.6290 n2        1 27V     -0.754100
      6 SAP         3.9150   -0.0240   -0.7200 ss        1 27V     -0.172300
      7 CAY         2.1400   -0.0730   -1.1110 c3        1 27V     -0.017700
      8 CAX         1.8210   -1.3750   -1.8630 c3        1 27V      0.147500
      9 NAN         1.9590   -2.5670   -0.9460 ny        1 27V     -0.680800
     10 CAQ         2.3680   -3.8240   -1.6790 c         1 27V      0.573100
     11 OAE         3.4900   -3.8240   -2.1620 o         1 27V     -0.426100
     12 CAC         1.3600   -4.9200   -1.7260 c3        1 27V     -0.188100
     13 CAI         1.7660    1.1150   -1.9150 c2        1 27V     -0.254200
     14 CAU         1.0170    1.0670   -3.0260 ce        1 27V     -0.092400
     15 CAR         0.6310    2.3480   -3.7970 c         1 27V      0.913800
     16 OAH        -0.3370    2.2320   -4.5920 o         1 27V     -0.785800
     17 OAF         1.2990    3.3810   -3.5550 o         1 27V     -0.785800
     18 CAL         0.4690   -0.1970   -3.5700 c3        1 27V     -0.088200
     19 CAW         0.3970   -1.2560   -2.4770 c3        1 27V      0.127100
     20 OAO         0.0510   -2.5470   -2.9750 os        1 27V     -0.482600
     21 CAV        -1.3380   -2.6830   -3.3360 c3        1 27V      0.141100
     22 CAK        -1.3650   -3.4630   -4.6490 c3        1 27V     -0.094900
     23 CAB        -0.9950   -2.5930   -5.8220 c3        1 27V     -0.099600
     24 CAJ        -2.0720   -3.4440   -2.2340 c3        1 27V     -0.094900
     25 CAA        -2.2640   -2.6320   -0.9810 c3        1 27V     -0.099600
     26 H1          1.9230    0.7680    2.1310 hn        1 27V      0.349500
     27 H2          4.4890    1.3060    2.5590 hn        1 27V      0.416400
     28 H3          2.5730   -1.5090   -2.7000 hx        1 27V      0.137700
     29 H4          1.0590   -2.7050   -0.4710 hn        1 27V      0.461800
     30 H5          0.8490   -5.0690   -0.7440 hc        1 27V      0.111033
     31 H6          1.8770   -5.8680   -2.0240 hc        1 27V      0.111033
     32 H7          0.5870   -4.6630   -2.5040 hc        1 27V      0.111033
     33 H8          2.1620    2.0850   -1.5650 ha        1 27V      0.191000
     34 H10         1.1070   -0.5520   -4.4240 hc        1 27V      0.101700
     35 H11        -0.5560    0.0050   -3.9940 hc        1 27V      0.101700
     36 H12        -0.3360   -0.9440   -1.6780 h1        1 27V      0.094700
     37 H13        -1.8060   -1.6700   -3.4800 h1        1 27V      0.082700
     38 H14        -0.6540   -4.3280   -4.5740 hc        1 27V      0.045700
     39 H15        -2.3960   -3.8800   -4.7950 hc        1 27V      0.045700
     40 H16         0.0030   -2.1190   -5.6550 hc        1 27V      0.043700
     41 H17        -0.9520   -3.2020   -6.7560 hc        1 27V      0.043700
     42 H18        -1.7460   -1.7780   -5.9640 hc        1 27V      0.043700
     43 H19        -1.5090   -4.3850   -1.9970 hc        1 27V      0.045700
     44 H20        -3.0770   -3.7460   -2.6340 hc        1 27V      0.045700
     45 H21        -2.7570   -1.6550   -1.2110 hc        1 27V      0.043700
     46 H22        -1.2840   -2.4160   -0.4860 hc        1 27V      0.043700
     47 H23        -2.9060   -3.1870   -0.2550 hc        1 27V      0.043700
     48 HAN2        2.6910   -2.3380   -0.2540 hn        1 27V      0.461800
@<TRIPOS>BOND
     1    1    2 2   
     2    2    3 1   
     3    2    7 1   
     4    3    4 1   
     5    3   26 1   
     6    4    5 2   
     7    4    6 1   
     8    5   27 1   
     9    6    7 1   
    10    7    8 1   
    11    7   13 1   
    12    8    9 1   
    13    8   19 1   
    14    8   28 1   
    15    9   10 1   
    16    9   29 1   
    17    9   48 1   
    18   10   11 2   
    19   10   12 1   
    20   12   30 1   
    21   12   31 1   
    22   12   32 1   
    23   13   14 2   
    24   13   33 1   
    25   14   15 1   
    26   14   18 1   
    27   15   16 1   
    28   15   17 1   
    29   18   19 1   
    30   18   34 1   
    31   18   35 1   
    32   19   20 1   
    33   19   36 1   
    34   20   21 1   
    35   21   22 1   
    36   21   24 1   
    37   21   37 1   
    38   22   23 1   
    39   22   38 1   
    40   22   39 1   
    41   23   40 1   
    42   23   41 1   
    43   23   42 1   
    44   24   25 1   
    45   24   43 1   
    46   24   44 1   
    47   25   45 1   
    48   25   46 1   
    49   25   47 1   
@<TRIPOS>SUBSTRUCTURE
     1 27V         1 TEMP              0 ****  ****    0 ROOT
