@<TRIPOS>MOLECULE
27V
   48    49     1     0     0
SMALL
bcc


@<TRIPOS>ATOM
      1 OAG         0.3600   -0.4430    0.4840 o         1 27V     -0.610500
      2 CAT         1.5010   -0.0210    0.2370 c         1 27V      0.686500
      3 NAM         2.3570    0.4360    1.2320 n         1 27V     -0.540400
      4 CAS         3.7250    0.5810    0.8580 c2        1 27V      0.500800
      5 NAD         4.7260    1.0040    1.5360 n2        1 27V     -0.754100
      6 SAP         3.9390   -0.0170   -0.7940 ss        1 27V     -0.172300
      7 CAY         2.1570   -0.0680   -1.1500 c3        1 27V     -0.017700
      8 CAX         1.8240   -1.3740   -1.8910 c3        1 27V      0.147500
      9 NAN         1.9820   -2.5610   -0.9720 n4        1 27V     -0.680800
     10 CAQ         2.3760   -3.8210   -1.7070 c         1 27V      0.573100
     11 OAE         3.4890   -3.8220   -2.2130 o         1 27V     -0.426100
     12 CAC         1.3690   -4.9180   -1.7290 c3        1 27V     -0.188100
     13 CAI         1.7670    1.1160   -1.9520 c2        1 27V     -0.254200
     14 CAU         0.9960    1.0630   -3.0480 ce        1 27V     -0.092400
     15 CAR         0.5950    2.3410   -3.8160 c         1 27V      0.913800
     16 OAH        -0.3880    2.2200   -4.5930 o         1 27V     -0.785800
     17 OAF         1.2660    3.3750   -3.5920 o         1 27V     -0.785800
     18 CAL         0.4400   -0.2040   -3.5770 c3        1 27V     -0.088200
     19 CAW         0.3890   -1.2580   -2.4780 c3        1 27V      0.127100
     20 OAO         0.0340   -2.5510   -2.9640 os        1 27V     -0.482600
     21 CAV        -1.3610   -2.6900   -3.2970 c3        1 27V      0.141100
     22 CAK        -1.4120   -3.4760   -4.6070 c3        1 27V     -0.094900
     23 CAB        -1.0660   -2.6100   -5.7900 c3        1 27V     -0.099600
     24 CAJ        -2.0740   -3.4470   -2.1790 c3        1 27V     -0.094900
     25 CAA        -2.2420   -2.6290   -0.9260 c3        1 27V     -0.099600
     26 H1          2.0020    0.7860    2.0920 hn        1 27V      0.349500
     27 H2          4.5750    1.3270    2.4680 hn        1 27V      0.416400
     28 H3          2.5610   -1.5110   -2.7420 hx        1 27V      0.137700
     29 H4          1.0900   -2.6980   -0.4790 hn        1 27V      0.461800
     30 H5          0.8780   -5.0640   -0.7370 hc        1 27V      0.111033
     31 H6          1.8800   -5.8670   -2.0350 hc        1 27V      0.111033
     32 H7          0.5810   -4.6650   -2.4940 hc        1 27V      0.111033
     33 H8          2.1690    2.0870   -1.6140 ha        1 27V      0.191000
     34 H10        -0.5940   -0.0040   -3.9810 hc        1 27V      0.101700
     35 H11         1.0610   -0.5610   -4.4410 hc        1 27V      0.101700
     36 H12        -0.3290   -0.9430   -1.6660 h1        1 27V      0.094700
     37 H13        -1.8330   -1.6780   -3.4370 h1        1 27V      0.082700
     38 H14        -0.6990   -4.3390   -4.5410 hc        1 27V      0.045700
     39 H15        -2.4450   -3.8940   -4.7310 hc        1 27V      0.045700
     40 H16        -0.0650   -2.1340   -5.6450 hc        1 27V      0.043700
     41 H17        -1.8200   -1.7960   -5.9210 hc        1 27V      0.043700
     42 H18        -1.0400   -3.2230   -6.7220 hc        1 27V      0.043700
     43 H19        -1.5060   -4.3860   -1.9490 hc        1 27V      0.045700
     44 H20        -3.0860   -3.7510   -2.5580 hc        1 27V      0.045700
     45 H21        -2.7400   -1.6540   -1.1500 hc        1 27V      0.043700
     46 H22        -1.2530   -2.4120   -0.4510 hc        1 27V      0.043700
     47 H23        -2.8700   -3.1820   -0.1860 hc        1 27V      0.043700
     48 HAN2        2.7260   -2.3290   -0.2950 hn        1 27V      0.461800
@<TRIPOS>BOND
     1    1    2 2   
     2    2    3 1   
     3    2    7 1   
     4    3    4 1   
     5    3   26 1   
     6    4    5 2   
     7    4    6 1   
     8    5   27 1   
     9    6    7 1   
    10    7    8 1   
    11    7   13 1   
    12    8    9 1   
    13    8   19 1   
    14    8   28 1   
    15    9   10 1   
    16    9   29 1   
    17    9   48 1   
    18   10   11 2   
    19   10   12 1   
    20   12   30 1   
    21   12   31 1   
    22   12   32 1   
    23   13   14 2   
    24   13   33 1   
    25   14   15 1   
    26   14   18 1   
    27   15   16 1   
    28   15   17 1   
    29   18   19 1   
    30   18   34 1   
    31   18   35 1   
    32   19   20 1   
    33   19   36 1   
    34   20   21 1   
    35   21   22 1   
    36   21   24 1   
    37   21   37 1   
    38   22   23 1   
    39   22   38 1   
    40   22   39 1   
    41   23   40 1   
    42   23   41 1   
    43   23   42 1   
    44   24   25 1   
    45   24   43 1   
    46   24   44 1   
    47   25   45 1   
    48   25   46 1   
    49   25   47 1   
@<TRIPOS>SUBSTRUCTURE
     1 27V         1 TEMP              0 ****  ****    0 ROOT
