@<TRIPOS>MOLECULE
27W
   36    35     1     0     0
SMALL
bcc


@<TRIPOS>ATOM
      1 N3         -0.2010    0.3190    0.0270 n4        1 27W     -0.832600
      2 C11         1.2820    0.0710    0.0430 c3        1 27W      0.124500
      3 C12         2.0340    1.1350   -0.7570 c3        1 27W     -0.114400
      4 C13         1.5640    1.3070   -2.1930 c3        1 27W     -0.078700
      5 C15         2.4810    2.2930   -2.8950 c3        1 27W     -0.101100
      6 C14         1.5360   -0.0040   -2.9490 c3        1 27W     -0.101100
      7 C16         1.8220    0.0330    1.5010 c3        1 27W      0.123100
      8 O6          1.2240    1.1400    2.1620 oh        1 27W     -0.636800
      9 C17         1.5120   -1.2980    2.2000 c3        1 27W     -0.098700
     10 C23         1.6300   -1.1460    3.7040 c3        1 27W     -0.106100
     11 C18         2.4580   -2.3850    1.7000 c3        1 27W     -0.084400
     12 C44         1.8890   -3.7670    1.9000 c3        1 27W     -0.099100
     13 H33        -0.5410    0.3230   -0.9390 hn        1 27W      0.463467
     14 H34         1.4440   -0.9460   -0.4290 hx        1 27W      0.115700
     15 H35         1.9720    2.1190   -0.2180 hc        1 27W      0.090700
     16 H36         3.1160    0.8260   -0.7650 hc        1 27W      0.090700
     17 H37         0.5280    1.7520   -2.1970 hc        1 27W      0.030700
     18 H38         2.5190    3.2590   -2.3360 hc        1 27W      0.050367
     19 H39         2.1070    2.4940   -3.9280 hc        1 27W      0.050367
     20 H40         3.5170    1.8820   -2.9690 hc        1 27W      0.050367
     21 H41         2.5220   -0.5240   -2.8760 hc        1 27W      0.050367
     22 H42         0.7440   -0.6850   -2.5530 hc        1 27W      0.050367
     23 H43         1.3210    0.1820   -4.0310 hc        1 27W      0.050367
     24 H44         2.9400    0.1740    1.4510 h1        1 27W      0.087700
     25 H45         1.6790    1.2600    3.0070 ho        1 27W      0.454000
     26 H46         0.4530   -1.6020    1.9650 hc        1 27W      0.035700
     27 H47         0.8270   -0.4770    4.0980 hc        1 27W      0.056033
     28 H48         1.5260   -2.1430    4.1970 hc        1 27W      0.056033
     29 H49         2.6250   -0.7210    3.9810 hc        1 27W      0.056033
     30 H50         2.6780   -2.2340    0.6100 hc        1 27W      0.048200
     31 H51         3.4360   -2.2990    2.2440 hc        1 27W      0.048200
     32 H52         1.6820   -3.9620    2.9810 hc        1 27W      0.047367
     33 H53         0.9360   -3.8930    1.3320 hc        1 27W      0.047367
     34 H54         2.6180   -4.5340    1.5400 hc        1 27W      0.047367
     35 H2         -0.6790   -0.4070    0.5680 hn        1 27W      0.463467
     36 H331       -0.3870    1.2310    0.4640 hn        1 27W      0.463467
@<TRIPOS>BOND
     1    1    2 1   
     2    1   13 1   
     3    1   35 1   
     4    1   36 1   
     5    2    3 1   
     6    2    7 1   
     7    2   14 1   
     8    3    4 1   
     9    3   15 1   
    10    3   16 1   
    11    4    5 1   
    12    4    6 1   
    13    4   17 1   
    14    5   18 1   
    15    5   19 1   
    16    5   20 1   
    17    6   21 1   
    18    6   22 1   
    19    6   23 1   
    20    7    8 1   
    21    7    9 1   
    22    7   24 1   
    23    8   25 1   
    24    9   10 1   
    25    9   11 1   
    26    9   26 1   
    27   10   27 1   
    28   10   28 1   
    29   10   29 1   
    30   11   12 1   
    31   11   30 1   
    32   11   31 1   
    33   12   32 1   
    34   12   33 1   
    35   12   34 1   
@<TRIPOS>SUBSTRUCTURE
     1 27W         1 TEMP              0 ****  ****    0 ROOT
