@<TRIPOS>MOLECULE
27W
   36    35     1     0     0
SMALL
bcc


@<TRIPOS>ATOM
      1 N3         -0.0850   -0.1020   -0.2090 n4        1 27W     -0.834600
      2 C11         1.4040    0.0040   -0.0310 c3        1 27W      0.124500
      3 C12         1.9660    1.2450   -0.7260 c3        1 27W     -0.113400
      4 C13         1.6420    1.3470   -2.2090 c3        1 27W     -0.078700
      5 C15         2.3770    2.5420   -2.7910 c3        1 27W     -0.101100
      6 C14         2.0130    0.0900   -2.9670 c3        1 27W     -0.101100
      7 C16         1.7600    0.0450    1.4780 c3        1 27W      0.121100
      8 O6          1.0290    1.1520    1.9940 oh        1 27W     -0.632800
      9 C17         1.4040   -1.2320    2.2540 c3        1 27W     -0.109700
     10 C23         2.0620   -1.1720    3.6200 c3        1 27W     -0.100100
     11 C18         1.8230   -2.4900    1.5080 c3        1 27W     -0.075400
     12 C44         1.5980   -3.7460    2.3120 c3        1 27W     -0.101100
     13 H33        -0.3150   -0.1090   -1.2070 hn        1 27W      0.463467
     14 H34         1.8640   -0.9200   -0.4950 hx        1 27W      0.117700
     15 H35         1.6050    2.1680   -0.1960 hc        1 27W      0.092700
     16 H36         3.0830    1.2050   -0.5990 hc        1 27W      0.092700
     17 H37         0.5380    1.5370   -2.3380 hc        1 27W      0.030700
     18 H38         3.4810    2.3860   -2.7410 hc        1 27W      0.050200
     19 H39         2.1200    3.4710   -2.2280 hc        1 27W      0.050200
     20 H40         2.0880    2.6830   -3.8610 hc        1 27W      0.050200
     21 H41         1.3580   -0.7670   -2.6780 hc        1 27W      0.050200
     22 H42         1.8970    0.2580   -4.0660 hc        1 27W      0.050200
     23 H43         3.0760   -0.1920   -2.7700 hc        1 27W      0.050200
     24 H44         2.8690    0.2350    1.5500 h1        1 27W      0.089700
     25 H45         1.3660    1.3430    2.8800 ho        1 27W      0.450000
     26 H46         0.2880   -1.2540    2.4090 hc        1 27W      0.050700
     27 H47         1.6920   -2.0100    4.2610 hc        1 27W      0.055367
     28 H48         3.1720   -1.2610    3.5290 hc        1 27W      0.055367
     29 H49         1.8190   -0.2130    4.1380 hc        1 27W      0.055367
     30 H50         1.2320   -2.5740    0.5560 hc        1 27W      0.031700
     31 H51         2.9070   -2.4150    1.2280 hc        1 27W      0.031700
     32 H52         0.5650   -3.7710    2.7360 hc        1 27W      0.052367
     33 H53         2.3280   -3.8160    3.1550 hc        1 27W      0.052367
     34 H54         1.7360   -4.6440    1.6600 hc        1 27W      0.052367
     35 H2         -0.4220   -0.9590    0.2380 hn        1 27W      0.463467
     36 H331       -0.5270    0.7090    0.2430 hn        1 27W      0.463467
@<TRIPOS>BOND
     1    1    2 1   
     2    1   13 1   
     3    1   35 1   
     4    1   36 1   
     5    2    3 1   
     6    2    7 1   
     7    2   14 1   
     8    3    4 1   
     9    3   15 1   
    10    3   16 1   
    11    4    5 1   
    12    4    6 1   
    13    4   17 1   
    14    5   18 1   
    15    5   19 1   
    16    5   20 1   
    17    6   21 1   
    18    6   22 1   
    19    6   23 1   
    20    7    8 1   
    21    7    9 1   
    22    7   24 1   
    23    8   25 1   
    24    9   10 1   
    25    9   11 1   
    26    9   26 1   
    27   10   27 1   
    28   10   28 1   
    29   10   29 1   
    30   11   12 1   
    31   11   30 1   
    32   11   31 1   
    33   12   32 1   
    34   12   33 1   
    35   12   34 1   
@<TRIPOS>SUBSTRUCTURE
     1 27W         1 TEMP              0 ****  ****    0 ROOT
