@<TRIPOS>MOLECULE
27W
   36    35     1     0     0
SMALL
bcc


@<TRIPOS>ATOM
      1 N3         -0.0850   -0.0940   -0.2050 nz        1 27W     -0.834600
      2 C11         1.4050    0.0050   -0.0300 c3        1 27W      0.124500
      3 C12         1.9700    1.2460   -0.7250 c3        1 27W     -0.113400
      4 C13         1.6430    1.3510   -2.2070 c3        1 27W     -0.078700
      5 C15         2.3820    2.5430   -2.7880 c3        1 27W     -0.101100
      6 C14         2.0070    0.0930   -2.9670 c3        1 27W     -0.101100
      7 C16         1.7640    0.0430    1.4780 c3        1 27W      0.121100
      8 O6          1.0390    1.1520    1.9980 oh        1 27W     -0.632800
      9 C17         1.4050   -1.2340    2.2530 c3        1 27W     -0.109700
     10 C23         2.0650   -1.1790    3.6180 c3        1 27W     -0.100100
     11 C18         1.8170   -2.4930    1.5040 c3        1 27W     -0.075400
     12 C44         1.5890   -3.7490    2.3070 c3        1 27W     -0.101100
     13 H33        -0.3180   -0.0980   -1.2020 hn        1 27W      0.463467
     14 H34         1.8590   -0.9200   -0.4970 hx        1 27W      0.117700
     15 H35         1.6140    2.1690   -0.1920 hc        1 27W      0.092700
     16 H36         3.0870    1.2000   -0.6000 hc        1 27W      0.092700
     17 H37         0.5400    1.5450   -2.3330 hc        1 27W      0.030700
     18 H38         2.1310    3.4730   -2.2230 hc        1 27W      0.050200
     19 H39         2.0920    2.6880   -3.8570 hc        1 27W      0.050200
     20 H40         3.4860    2.3830   -2.7410 hc        1 27W      0.050200
     21 H41         3.0690   -0.1940   -2.7720 hc        1 27W      0.050200
     22 H42         1.3490   -0.7610   -2.6780 hc        1 27W      0.050200
     23 H43         1.8890    0.2630   -4.0660 hc        1 27W      0.050200
     24 H44         2.8730    0.2280    1.5480 h1        1 27W      0.089700
     25 H45         1.3790    1.3400    2.8830 ho        1 27W      0.450000
     26 H46         0.2890   -1.2520    2.4100 hc        1 27W      0.050700
     27 H47         1.8270   -0.2200    4.1380 hc        1 27W      0.055367
     28 H48         1.6930   -2.0160    4.2580 hc        1 27W      0.055367
     29 H49         3.1740   -1.2720    3.5250 hc        1 27W      0.055367
     30 H50         1.2230   -2.5730    0.5540 hc        1 27W      0.032200
     31 H51         2.9010   -2.4210    1.2220 hc        1 27W      0.032200
     32 H52         2.3210   -3.8230    3.1480 hc        1 27W      0.052367
     33 H53         0.5570   -3.7710    2.7330 hc        1 27W      0.052367
     34 H54         1.7230   -4.6460    1.6540 hc        1 27W      0.052367
     35 H2         -0.4250   -0.9500    0.2410 hn        1 27W      0.463467
     36 H331       -0.5230    0.7180    0.2490 hn        1 27W      0.463467
@<TRIPOS>BOND
     1    1    2 1   
     2    1   13 1   
     3    1   35 1   
     4    1   36 1   
     5    2    3 1   
     6    2    7 1   
     7    2   14 1   
     8    3    4 1   
     9    3   15 1   
    10    3   16 1   
    11    4    5 1   
    12    4    6 1   
    13    4   17 1   
    14    5   18 1   
    15    5   19 1   
    16    5   20 1   
    17    6   21 1   
    18    6   22 1   
    19    6   23 1   
    20    7    8 1   
    21    7    9 1   
    22    7   24 1   
    23    8   25 1   
    24    9   10 1   
    25    9   11 1   
    26    9   26 1   
    27   10   27 1   
    28   10   28 1   
    29   10   29 1   
    30   11   12 1   
    31   11   30 1   
    32   11   31 1   
    33   12   32 1   
    34   12   33 1   
    35   12   34 1   
@<TRIPOS>SUBSTRUCTURE
     1 27W         1 TEMP              0 ****  ****    0 ROOT
