@<TRIPOS>MOLECULE
27X
   34    36     1     0     0
SMALL
bcc


@<TRIPOS>ATOM
      1 C01         0.0690    0.1360   -0.0170 ca        1 27X     -0.123700
      2 C02         1.4500    0.0480   -0.0470 ca        1 27X      0.001000
      3 C03         2.2490   -0.0310    1.1370 ca        1 27X     -0.172400
      4 C04         1.6220   -0.0210    2.3970 ca        1 27X      0.180800
      5 C05         0.1750    0.0680    2.3720 ca        1 27X     -0.209300
      6 C06        -0.6390    0.1500    1.2500 ca        1 27X      0.466600
      7 N07         2.0300   -0.0770    3.7050 n         1 27X     -0.155300
      8 C08         0.8480   -0.0240    4.6020 c         1 27X      0.317800
      9 C09        -0.3490    0.0710    3.7040 ca        1 27X     -0.064000
     10 O10         0.9490   -0.0610    5.8140 o         1 27X     -0.139000
     11 C11        -1.7040    0.1590    3.8630 ca        1 27X     -0.079300
     12 N12        -2.0080    0.2360    1.3970 nb        1 27X     -0.638000
     13 C13         3.3680   -0.1480    4.2050 c3        1 27X     -0.016400
     14 C14        -2.4920    0.2340    2.6400 ca        1 27X      0.482800
     15 N15        -0.7360    0.2170   -1.2300 n4        1 27X     -0.691000
     16 N16         3.6960   -0.1340    1.0120 n4        1 27X     -0.685000
     17 C17        -3.9780    0.3560    2.8580 c         1 27X      0.518600
     18 O18        -4.4920    1.1240    3.6640 o         1 27X     -0.458000
     19 O19        -4.7120   -0.4920    2.1020 os        1 27X     -0.407900
     20 C20        -6.1390   -0.4540    2.3060 c3        1 27X      0.119700
     21 H02         1.9740    0.0380   -1.0230 ha        1 27X      0.166000
     22 H151       -1.4030   -0.5710   -1.2480 hn        1 27X      0.482133
     23 H152       -1.2780    1.0960   -1.2200 hn        1 27X      0.482133
     24 H161        4.1540    0.2770    1.8380 hn        1 27X      0.473467
     25 H162        3.9700   -1.1240    0.9360 hn        1 27X      0.473467
     26 H131        3.9330    0.7960    3.9690 h1        1 27X      0.086367
     27 H132        3.9020   -1.0430    3.7840 h1        1 27X      0.086367
     28 H133        3.3280   -0.2580    5.3290 h1        1 27X      0.086367
     29 H11        -2.2190    0.1890    4.8420 ha        1 27X      0.227000
     30 H201       -6.5100   -1.2380    1.6000 h1        1 27X      0.078367
     31 H202       -6.3720   -0.7060    3.3680 h1        1 27X      0.078367
     32 H203       -6.5260    0.5600    2.0470 h1        1 27X      0.078367
     33 H153       -0.1510    0.1870   -2.0720 hn        1 27X      0.482133
     34 H163        4.0170    0.3670    0.1740 hn        1 27X      0.473467
@<TRIPOS>BOND
     1    1    2 ar  
     2    1    6 ar  
     3    1   15 1   
     4    2    3 ar  
     5    2   21 1   
     6    3    4 ar  
     7    3   16 1   
     8    4    5 ar  
     9    4    7 1   
    10    5    6 ar  
    11    5    9 ar  
    12    6   12 ar  
    13    7    8 1   
    14    7   13 1   
    15    8    9 1   
    16    8   10 2   
    17    9   11 ar  
    18   11   14 ar  
    19   11   29 1   
    20   12   14 ar  
    21   13   26 1   
    22   13   27 1   
    23   13   28 1   
    24   14   17 1   
    25   15   22 1   
    26   15   23 1   
    27   15   33 1   
    28   16   24 1   
    29   16   25 1   
    30   16   34 1   
    31   17   18 2   
    32   17   19 1   
    33   19   20 1   
    34   20   30 1   
    35   20   31 1   
    36   20   32 1   
@<TRIPOS>SUBSTRUCTURE
     1 27X         1 TEMP              0 ****  ****    0 ROOT
