@<TRIPOS>MOLECULE
27X
   32    34     1     0     0
SMALL
bcc


@<TRIPOS>ATOM
      1 C01         0.0450   -0.2360   -0.0070 ca        1 27X      0.194300
      2 C02         1.4400   -0.0930   -0.0210 ca        1 27X     -0.288000
      3 C03         2.2570    0.0810    1.1440 ca        1 27X      0.232600
      4 C04         1.6050    0.1180    2.3840 ca        1 27X     -0.143200
      5 C05         0.1900   -0.0040    2.3860 ca        1 27X     -0.099300
      6 C06        -0.6460   -0.1680    1.2750 ca        1 27X      0.320600
      7 N07         2.0380    0.3410    3.7270 n         1 27X     -0.134300
      8 C08         0.8930    0.2370    4.5950 c         1 27X      0.299800
      9 C09        -0.3210    0.0810    3.7260 ca        1 27X     -0.117000
     10 O10         0.9490    0.3130    5.8250 o         1 27X     -0.307000
     11 C11        -1.6710   -0.0070    3.9030 ca        1 27X     -0.098300
     12 N12        -2.0060   -0.2440    1.4550 nb        1 27X     -0.573000
     13 C13         3.3370   -0.0480    4.1820 c3        1 27X      0.012600
     14 C14        -2.4720   -0.1620    2.7040 ca        1 27X      0.351800
     15 N15        -0.6610   -0.4800   -1.1610 nv        1 27X     -0.845200
     16 N16         3.6390    0.1350    1.0280 nv        1 27X     -0.827200
     17 C17        -3.9390   -0.2510    2.9530 c         1 27X      0.541600
     18 O18        -4.4800   -0.7650    3.9340 o         1 27X     -0.534000
     19 O19        -4.7260    0.3360    2.0050 os        1 27X     -0.411900
     20 C20        -6.1380    0.2680    2.2230 c3        1 27X      0.122700
     21 H02         1.9570   -0.1320   -0.9940 ha        1 27X      0.137000
     22 H151       -0.2100   -0.3220   -2.0280 hn        1 27X      0.431300
     23 H152       -1.6500   -0.4040   -1.1390 hn        1 27X      0.431300
     24 H161        4.1180    0.5850    1.7750 hn        1 27X      0.406800
     25 H162        3.9860    0.3550    0.1220 hn        1 27X      0.406800
     26 H131        3.6830   -1.0030    3.7040 h1        1 27X      0.049700
     27 H132        4.0690    0.7690    3.9360 h1        1 27X      0.049700
     28 H133        3.3160   -0.1800    5.2990 h1        1 27X      0.049700
     29 H11        -2.1680    0.0240    4.8850 ha        1 27X      0.180000
     30 H201       -6.4010    0.7870    3.1750 h1        1 27X      0.053367
     31 H202       -6.5630    0.7960    1.3340 h1        1 27X      0.053367
     32 H203       -6.4660   -0.7990    2.2640 h1        1 27X      0.053367
@<TRIPOS>BOND
     1    1    2 ar  
     2    1    6 ar  
     3    1   15 1   
     4    2    3 ar  
     5    2   21 1   
     6    3    4 ar  
     7    3   16 1   
     8    4    5 ar  
     9    4    7 1   
    10    5    6 ar  
    11    5    9 ar  
    12    6   12 ar  
    13    7    8 1   
    14    7   13 1   
    15    8    9 1   
    16    8   10 2   
    17    9   11 ar  
    18   11   14 ar  
    19   11   29 1   
    20   12   14 ar  
    21   13   26 1   
    22   13   27 1   
    23   13   28 1   
    24   14   17 1   
    25   15   22 1   
    26   15   23 1   
    27   16   24 1   
    28   16   25 1   
    29   17   18 2   
    30   17   19 1   
    31   19   20 1   
    32   20   30 1   
    33   20   31 1   
    34   20   32 1   
@<TRIPOS>SUBSTRUCTURE
     1 27X         1 TEMP              0 ****  ****    0 ROOT
