@<TRIPOS>MOLECULE
27X
   32    34     1     0     0
SMALL
bcc


@<TRIPOS>ATOM
      1 C01         0.0290    0.0520   -0.0050 ca        1 27X      0.188300
      2 C02         1.4310    0.0300   -0.0200 ca        1 27X     -0.283000
      3 C03         2.2610   -0.0540    1.1460 ca        1 27X      0.227600
      4 C04         1.6170   -0.1000    2.3890 ca        1 27X     -0.138200
      5 C05         0.1970   -0.0700    2.3950 ca        1 27X     -0.102300
      6 C06        -0.6520    0.0030    1.2830 ca        1 27X      0.322600
      7 N07         2.0660   -0.2520    3.7370 n         1 27X     -0.136300
      8 C08         0.9200   -0.1950    4.6060 c         1 27X      0.300800
      9 C09        -0.3040   -0.1410    3.7390 ca        1 27X     -0.116000
     10 O10         0.9860   -0.2260    5.8390 o         1 27X     -0.308000
     11 C11        -1.6560   -0.1270    3.9200 ca        1 27X     -0.099300
     12 N12        -2.0120    0.0220    1.4700 nb        1 27X     -0.573000
     13 C13         3.3440    0.2180    4.1750 c3        1 27X      0.014600
     14 C14        -2.4730   -0.0410    2.7230 ca        1 27X      0.352800
     15 N15        -0.6990    0.0580   -1.1710 nh        1 27X     -0.841200
     16 N16         3.6430   -0.0110    1.0240 nh        1 27X     -0.825200
     17 C17        -3.9380   -0.0240    2.9900 c         1 27X      0.541600
     18 O18        -4.4630   -0.0280    4.1080 o         1 27X     -0.534000
     19 O19        -4.7550   -0.0060    1.8970 os        1 27X     -0.410900
     20 C20        -6.1610    0.0060    2.1580 c3        1 27X      0.122700
     21 H02         1.9420    0.0770   -0.9960 ha        1 27X      0.137000
     22 H151       -0.2340    0.3040   -2.0100 hn        1 27X      0.428800
     23 H152       -1.6750    0.2260   -1.1230 hn        1 27X      0.428800
     24 H161        4.1550   -0.4010    1.7830 hn        1 27X      0.405300
     25 H162        4.0010   -0.2430    0.1250 hn        1 27X      0.405300
     26 H131        3.6330    1.1810    3.6740 h1        1 27X      0.049700
     27 H132        4.1190   -0.5610    3.9440 h1        1 27X      0.049700
     28 H133        3.3190    0.3750    5.2880 h1        1 27X      0.049700
     29 H11        -2.1480   -0.1750    4.9050 ha        1 27X      0.180000
     30 H201       -6.4330    0.9190    2.7400 h1        1 27X      0.053700
     31 H202       -6.4510   -0.9110    2.7250 h1        1 27X      0.053700
     32 H203       -6.6130    0.0180    1.1360 h1        1 27X      0.053700
@<TRIPOS>BOND
     1    1    2 ar  
     2    1    6 ar  
     3    1   15 1   
     4    2    3 ar  
     5    2   21 1   
     6    3    4 ar  
     7    3   16 1   
     8    4    5 ar  
     9    4    7 1   
    10    5    6 ar  
    11    5    9 ar  
    12    6   12 ar  
    13    7    8 1   
    14    7   13 1   
    15    8    9 1   
    16    8   10 2   
    17    9   11 ar  
    18   11   14 ar  
    19   11   29 1   
    20   12   14 ar  
    21   13   26 1   
    22   13   27 1   
    23   13   28 1   
    24   14   17 1   
    25   15   22 1   
    26   15   23 1   
    27   16   24 1   
    28   16   25 1   
    29   17   18 2   
    30   17   19 1   
    31   19   20 1   
    32   20   30 1   
    33   20   31 1   
    34   20   32 1   
@<TRIPOS>SUBSTRUCTURE
     1 27X         1 TEMP              0 ****  ****    0 ROOT
