@<TRIPOS>MOLECULE
27X
   32    34     1     0     0
SMALL
bcc


@<TRIPOS>ATOM
      1 C01        -0.5960   -2.4550   -0.1210 ca        1 27X      0.192300
      2 C02        -1.9940   -2.4740   -0.0260 ca        1 27X     -0.285000
      3 C03        -2.8230   -1.3110    0.1040 ca        1 27X      0.229600
      4 C04        -2.1810   -0.0660    0.1200 ca        1 27X     -0.140200
      5 C05        -0.7640   -0.0550    0.0180 ca        1 27X     -0.101300
      6 C06         0.0830   -1.1650   -0.1040 ca        1 27X      0.321600
      7 N07        -2.6270    1.2800    0.2940 n         1 27X     -0.136300
      8 C08        -1.4880    2.1540    0.1770 c         1 27X      0.300800
      9 C09        -0.2660    1.2900    0.0590 ca        1 27X     -0.117000
     10 O10        -1.5560    3.3860    0.2120 o         1 27X     -0.308000
     11 C11         1.0830    1.4780   -0.0320 ca        1 27X     -0.099300
     12 N12         1.4410   -0.9730   -0.1930 nb        1 27X     -0.573000
     13 C13        -3.9290    1.7140   -0.1070 c3        1 27X      0.013600
     14 C14         1.8950    0.2820   -0.1530 ca        1 27X      0.351800
     15 N15         0.1340   -3.6190   -0.1660 nh        1 27X     -0.845200
     16 N16        -4.2060   -1.4380    0.1320 nh        1 27X     -0.825200
     17 C17         3.3580    0.5420   -0.2600 c         1 27X      0.541600
     18 O18         3.8850    1.5150   -0.8060 o         1 27X     -0.535000
     19 O19         4.1600   -0.3810    0.3440 os        1 27X     -0.409900
     20 C20         5.5680   -0.1470    0.2640 c3        1 27X      0.122700
     21 H02        -2.5040   -3.4520   -0.0480 ha        1 27X      0.137000
     22 H151       -0.3410   -4.4580   -0.3950 hn        1 27X      0.430800
     23 H152        1.0990   -3.5670   -0.3860 hn        1 27X      0.430800
     24 H161       -4.5460   -2.3390    0.3810 hn        1 27X      0.405300
     25 H162       -4.6970   -0.6820    0.5540 hn        1 27X      0.405300
     26 H131       -4.6610    1.4790    0.7130 h1        1 27X      0.049700
     27 H132       -3.9170    2.8270   -0.2650 h1        1 27X      0.049700
     28 H133       -4.2670    1.2110   -1.0530 h1        1 27X      0.049700
     29 H11         1.5710    2.4640   -0.0290 ha        1 27X      0.180000
     30 H201        5.8220    0.8220    0.7560 h1        1 27X      0.053367
     31 H202        6.0070   -1.0160    0.8130 h1        1 27X      0.053367
     32 H203        5.8910   -0.1310   -0.8050 h1        1 27X      0.053367
@<TRIPOS>BOND
     1    1    2 ar  
     2    1    6 ar  
     3    1   15 1   
     4    2    3 ar  
     5    2   21 1   
     6    3    4 ar  
     7    3   16 1   
     8    4    5 ar  
     9    4    7 1   
    10    5    6 ar  
    11    5    9 ar  
    12    6   12 ar  
    13    7    8 1   
    14    7   13 1   
    15    8    9 1   
    16    8   10 2   
    17    9   11 ar  
    18   11   14 ar  
    19   11   29 1   
    20   12   14 ar  
    21   13   26 1   
    22   13   27 1   
    23   13   28 1   
    24   14   17 1   
    25   15   22 1   
    26   15   23 1   
    27   16   24 1   
    28   16   25 1   
    29   17   18 2   
    30   17   19 1   
    31   19   20 1   
    32   20   30 1   
    33   20   31 1   
    34   20   32 1   
@<TRIPOS>SUBSTRUCTURE
     1 27X         1 TEMP              0 ****  ****    0 ROOT
