@<TRIPOS>MOLECULE
27X
   32    30     1     0     0
SMALL
bcc


@<TRIPOS>ATOM
      1 C01         0.4680    0.3760   -2.1730 c1        1 27X      0.172000
      2 C02         1.7670    0.9400   -2.0690 c1        1 27X     -0.283000
      3 C03         2.5520    0.6820   -0.9320 c1        1 27X      0.146000
      4 C04         2.0520   -0.1310    0.0910 c1        1 27X     -0.093000
      5 C05         0.7650   -0.7770   -0.0570 c1        1 27X     -0.037000
      6 C06        -0.0380   -0.4580   -1.1150 c1        1 27X     -0.071000
      7 N07         2.3550   -0.0350    1.5300 n         1 27X     -0.246000
      8 C08         1.2420   -0.4500    2.2230 c2        1 27X      0.346000
      9 C09         0.2150   -0.9300    1.2080 c2        1 27X     -0.116000
     10 O10         1.0920   -0.4050    3.4290 o         1 27X     -0.308000
     11 C11        -1.1340   -0.9970    1.3510 c1        1 27X     -0.034000
     12 N12        -1.4110   -0.5230   -0.9800 n2        1 27X     -0.047000
     13 C13         3.6330    0.2680    2.0960 c3        1 27X     -0.084000
     14 C14        -1.9630   -0.7900    0.2400 c1        1 27X     -0.065000
     15 N15        -0.3120    0.5870   -3.3490 n3        1 27X     -0.350000
     16 N16         3.9480    1.1000   -0.9040 n3        1 27X     -0.334000
     17 C17        -3.4250   -0.9660    0.3690 c2        1 27X      0.352000
     18 O18        -3.8880   -2.0740    0.5490 o         1 27X     -0.345000
     19 O19        -4.2660    0.1740    0.4500 os        1 27X     -0.249000
     20 C20        -5.6710   -0.1200    0.3190 c3        1 27X     -0.067000
     21 H02         2.1560    1.4160   -2.8340 ha        1 27X      0.137000
     22 H151       -1.2540    0.4630   -3.3210 hn        1 27X      0.224000
     23 H152        0.1170    0.8970   -4.1740 hn        1 27X      0.224000
     24 H161        4.2660    1.6040   -1.5420 hn        1 27X      0.200500
     25 H162        4.4480    0.9020   -0.2160 hn        1 27X      0.200500
     26 H131        3.6100    0.1040    3.0770 h1        1 27X      0.089000
     27 H132        4.3300   -0.3150    1.6760 h1        1 27X      0.089000
     28 H133        3.8550    1.2350    1.9230 h1        1 27X      0.089000
     29 H11        -1.5310   -1.1920    2.2420 ha        1 27X      0.180000
     30 H201       -6.1940    0.6800    0.5320 h1        1 27X      0.093000
     31 H202       -5.8610   -0.3980   -0.5960 h1        1 27X      0.093000
     32 H203       -5.9220   -0.8660    0.9570 h1        1 27X      0.093000
@<TRIPOS>BOND
     1    1    6 1   
     2    1   15 1   
     3    2    3 1   
     4    2   21 1   
     5    3   16 1   
     6    4    5 1   
     7    4    7 1   
     8    5    9 1   
     9    6   12 1   
    10    7    8 1   
    11    7   13 1   
    12    8    9 1   
    13    8   10 1   
    14    9   11 1   
    15   11   29 1   
    16   12   14 1   
    17   13   26 1   
    18   13   27 1   
    19   13   28 1   
    20   14   17 1   
    21   15   22 1   
    22   15   23 1   
    23   16   24 1   
    24   16   25 1   
    25   17   18 1   
    26   17   19 1   
    27   19   20 1   
    28   20   30 1   
    29   20   31 1   
    30   20   32 1   
@<TRIPOS>SUBSTRUCTURE
     1 27X         1 TEMP              0 ****  ****    0 ROOT
