@<TRIPOS>MOLECULE
27Y
   13    13     1     0     0
SMALL
bcc


@<TRIPOS>ATOM
      1 O01        -2.6570   -1.9140    0.0000 oh        1 27Y     -0.483100
      2 C02        -1.8130   -0.8330    0.0010 cc        1 27Y      0.008900
      3 C03        -0.4610   -1.0250    0.0010 cd        1 27Y     -0.087000
      4 C04         0.3980    0.1210    0.0010 cd        1 27Y     -0.122300
      5 BR          2.2440   -0.1140    0.0010 br        1 27Y     -0.040700
      6 C06        -0.1460    1.3840    0.0010 cc        1 27Y      0.004600
      7 N07        -1.5080    1.5880    0.0010 n         1 27Y     -0.419100
      8 C08        -2.4070    0.5170    0.0010 c         1 27Y      0.653700
      9 O09        -3.6380    0.7250    0.0010 o         1 27Y     -0.645500
     10 H1         -3.5700   -1.5750    0.0000 ho        1 27Y      0.447000
     11 H2         -0.0350   -2.0400    0.0010 ha        1 27Y      0.172000
     12 H4          0.4740    2.3000    0.0010 h4        1 27Y      0.169000
     13 H3         -1.8720    2.5160    0.0010 hn        1 27Y      0.343500
@<TRIPOS>BOND
     1    1    2 1   
     2    1   10 1   
     3    2    3 2   
     4    2    8 1   
     5    3    4 1   
     6    3   11 1   
     7    4    5 1   
     8    4    6 2   
     9    6    7 1   
    10    6   12 1   
    11    7    8 1   
    12    7   13 1   
    13    8    9 2   
@<TRIPOS>SUBSTRUCTURE
     1 27Y         1 TEMP              0 ****  ****    0 ROOT
