@<TRIPOS>MOLECULE
27Y
   13    13     1     0     0
SMALL
bcc


@<TRIPOS>ATOM
      1 O01        -0.0080    0.1970    0.2440 oh        1 27Y     -0.483100
      2 C02         1.3590    0.1160    0.1720 cc        1 27Y      0.008900
      3 C03         2.0960    0.0000    1.3160 cd        1 27Y     -0.087000
      4 C04         3.5220   -0.0820    1.2120 cd        1 27Y     -0.122300
      5 BR          4.5480   -0.2410    2.7570 br        1 27Y     -0.040700
      6 C06         4.1210   -0.0440   -0.0250 cc        1 27Y      0.004600
      7 N07         3.3870    0.0730   -1.1840 n         1 27Y     -0.419100
      8 C08         1.9920    0.1590   -1.1590 c         1 27Y      0.653700
      9 O09         1.3450    0.2640   -2.2230 o         1 27Y     -0.645500
     10 H1         -0.3480    0.2740   -0.6650 ho        1 27Y      0.447000
     11 H2          1.6070   -0.0300    2.3020 ha        1 27Y      0.172000
     12 H4          5.2180   -0.1040   -0.1580 h4        1 27Y      0.169000
     13 H3          3.8500    0.0980   -2.0660 hn        1 27Y      0.343500
@<TRIPOS>BOND
     1    1    2 1   
     2    1   10 1   
     3    2    3 2   
     4    2    8 1   
     5    3    4 1   
     6    3   11 1   
     7    4    5 1   
     8    4    6 2   
     9    6    7 1   
    10    6   12 1   
    11    7    8 1   
    12    7   13 1   
    13    8    9 2   
@<TRIPOS>SUBSTRUCTURE
     1 27Y         1 TEMP              0 ****  ****    0 ROOT
