@<TRIPOS>MOLECULE
27Y
   13     9     1     0     0
SMALL
bcc


@<TRIPOS>ATOM
      1 O01        -2.6300   -0.0310   -0.0410 oh        1 27Y     -0.467600
      2 C02        -1.2230   -0.0310   -0.0410 c1        1 27Y      0.012600
      3 C03        -0.4870   -0.0310    1.2330 c1        1 27Y     -0.029500
      4 C04         0.9810    0.0600    1.2280 c1        1 27Y     -0.248000
      5 BR          1.9370    0.1870    2.8790 br        1 27Y      0.085000
      6 C06         1.7250    0.1570   -0.0860 c1        1 27Y      0.059500
      7 N07         0.9940    0.0680   -1.3470 n2        1 27Y     -0.727800
      8 C08        -0.4670    0.0680   -1.3470 c1        1 27Y      0.745900
      9 O09        -1.0740    0.1120   -2.3990 o         1 27Y     -0.603500
     10 H1         -2.9260   -0.8610    0.0660 ho        1 27Y      0.447000
     11 H2         -0.9750   -0.0110    2.0790 ha        1 27Y      0.114500
     12 H4          2.7000    0.1870   -0.0890 ha        1 27Y      0.111500
     13 H3          1.4460    0.1270   -2.1370 hn        1 27Y      0.501400
@<TRIPOS>BOND
     1    1    2 1   
     2    1   10 1   
     3    2    3 3   
     4    3   11 1   
     5    4    6 3   
     6    6   12 1   
     7    7    8 2   
     8    7   13 1   
     9    8    9 2   
@<TRIPOS>SUBSTRUCTURE
     1 27Y         1 TEMP              0 ****  ****    0 ROOT
