@<TRIPOS>MOLECULE
27Y
   13    13     1     0     0
SMALL
bcc


@<TRIPOS>ATOM
      1 O01        -0.0140    0.1630    0.1800 oh        1 27Y     -0.483100
      2 C02         1.3550    0.1010    0.1430 cc        1 27Y      0.008900
      3 C03         2.0640    0.0050    1.3060 cd        1 27Y     -0.087000
      4 C04         3.4940   -0.0580    1.2380 cd        1 27Y     -0.122300
      5 Br          4.4830   -0.1890    2.8090 br        1 27Y     -0.040700
      6 C06         4.1230   -0.0210    0.0160 cc        1 27Y      0.004600
      7 N07         3.4170    0.0750   -1.1620 ns        1 27Y     -0.419100
      8 C08         2.0210    0.1410   -1.1730 c         1 27Y      0.653700
      9 O09         1.4000    0.2280   -2.2530 o         1 27Y     -0.645500
     10 H1         -0.3320    0.2270   -0.7380 ho        1 27Y      0.447000
     11 H2          1.5510   -0.0230    2.2790 ha        1 27Y      0.172000
     12 H4          5.2240   -0.0670   -0.0890 h4        1 27Y      0.169000
     13 H3          3.9020    0.1000   -2.0320 hn        1 27Y      0.343500
@<TRIPOS>BOND
     1    1    2 1   
     2    1   10 1   
     3    2    3 2   
     4    2    8 1   
     5    3    4 1   
     6    3   11 1   
     7    4    5 1   
     8    4    6 2   
     9    6    7 1   
    10    6   12 1   
    11    7    8 1   
    12    7   13 1   
    13    8    9 2   
@<TRIPOS>SUBSTRUCTURE
     1 27Y         1 TEMP              0 ****  ****    0 ROOT
