@<TRIPOS>MOLECULE
27Z
   35    36     1     0     0
SMALL
bcc


@<TRIPOS>ATOM
      1 C1          0.0160    0.0190   -0.1380 c         1 27Z      0.588700
      2 N1          3.4050    0.9810    1.1070 nc        1 27Z     -0.545000
      3 O1         10.3490   -0.2340    0.7540 o         1 27Z     -0.506800
      4 S1          1.7560   -0.8270    1.9310 ss        1 27Z      0.415700
      5 N2          2.2120    2.0170   -0.7760 n4        1 27Z     -0.812300
      6 O2          9.9250   -2.6510    0.9590 o         1 27Z     -0.506800
      7 S2          9.8580   -1.3490    1.3870 sy        1 27Z      1.435200
      8 N3          4.2390   -0.2190    3.0920 n4        1 27Z     -0.604100
      9 N4         10.8640   -1.3940    2.9400 n4        1 27Z     -0.816500
     10 C12         1.2610    0.0830    0.6400 cd        1 27Z     -0.335000
     11 C13         2.2880    1.0340    0.3040 cc        1 27Z      0.516200
     12 C14         3.2320    0.0060    2.0470 cd        1 27Z      0.421300
     13 C15         5.6200   -0.4980    2.6270 ca        1 27Z      0.015600
     14 C16         6.4940    0.5700    2.3640 ca        1 27Z     -0.110000
     15 C17         7.8270    0.2910    2.0450 ca        1 27Z      0.029500
     16 C18         8.3050   -1.0260    1.9750 ca        1 27Z     -0.389500
     17 C19         7.4080   -2.0740    2.2360 ca        1 27Z      0.029500
     18 C20         6.0710   -1.8280    2.5580 ca        1 27Z     -0.110000
     19 O21        -0.1710    0.6670   -1.1620 o         1 27Z     -0.372100
     20 N22        -1.1230   -0.8490    0.2860 n4        1 27Z     -0.741400
     21 HN2         1.6050    2.8080   -0.4870 hn        1 27Z      0.519133
     22 HN2A        1.8080    1.5790   -1.6270 hn        1 27Z      0.519133
     23 HN3         3.9330   -1.0130    3.6830 hn        1 27Z      0.506800
     24 HN4        10.3510   -1.2300    3.8050 hn        1 27Z      0.488800
     25 HN4A       11.6170   -0.6910    2.9060 hn        1 27Z      0.488800
     26 H16         6.1670    1.6260    2.4090 ha        1 27Z      0.192000
     27 H17         8.5050    1.1460    1.8230 ha        1 27Z      0.219000
     28 H19         7.7480   -3.1320    2.1660 ha        1 27Z      0.219000
     29 H20         5.4120   -2.6920    2.7640 ha        1 27Z      0.192000
     30 HN22       -0.8700   -1.8490    0.2760 hn        1 27Z      0.513800
     31 HN2B       -1.4770   -0.5880    1.2200 hn        1 27Z      0.513800
     32 H23         3.1520    2.3940   -1.0100 hn        1 27Z      0.519133
     33 H32         4.2810    0.6380    3.6870 hn        1 27Z      0.506800
     34 H43        11.3320   -2.3060    3.0430 hn        1 27Z      0.488800
     35 H223       -1.9100   -0.7190   -0.3940 hn        1 27Z      0.513800
@<TRIPOS>BOND
     1    1   10 1   
     2    1   19 2   
     3    1   20 1   
     4    2   11 1   
     5    2   12 2   
     6    3    7 2   
     7    4   10 1   
     8    4   12 1   
     9    5   11 1   
    10    5   21 1   
    11    5   22 1   
    12    5   32 1   
    13    6    7 2   
    14    7    9 1   
    15    7   16 1   
    16    8   12 1   
    17    8   13 1   
    18    8   23 1   
    19    8   33 1   
    20    9   24 1   
    21    9   25 1   
    22    9   34 1   
    23   10   11 2   
    24   13   14 ar  
    25   13   18 ar  
    26   14   15 ar  
    27   14   26 1   
    28   15   16 ar  
    29   15   27 1   
    30   16   17 ar  
    31   17   18 ar  
    32   17   28 1   
    33   18   29 1   
    34   20   30 1   
    35   20   31 1   
    36   20   35 1   
@<TRIPOS>SUBSTRUCTURE
     1 27Z         1 TEMP              0 ****  ****    0 ROOT
