@<TRIPOS>MOLECULE
27Z
   33    34     1     0     0
SMALL
bcc


@<TRIPOS>ATOM
      1 C1         -0.2120    0.0260    0.0690 c         1 27Z      0.615700
      2 N1          3.4910   -0.2110    0.3360 nc        1 27Z     -0.750000
      3 O1         10.7430    0.5940    2.9620 o         1 27Z     -0.557800
      4 S1          1.6300    0.0540    2.1630 ss        1 27Z     -0.143300
      5 N2          2.1670   -0.2820   -1.6720 nv        1 27Z     -0.874500
      6 O2         10.5330   -0.4060    0.7660 o         1 27Z     -0.557800
      7 S2         10.1000   -0.2260    2.0610 sy        1 27Z      1.491200
      8 N3          4.2890   -0.0710    2.6300 nu        1 27Z     -0.709300
      9 N4         10.5640   -1.9330    2.7960 nz        1 27Z     -0.790500
     10 C12         1.1110   -0.0340    0.5520 cd        1 27Z     -0.456000
     11 C13         2.2480   -0.1820   -0.3340 cc        1 27Z      0.796200
     12 C14         3.3060   -0.0920    1.6630 cd        1 27Z      0.786300
     13 C15         5.6690   -0.1710    2.4530 ca        1 27Z      0.277600
     14 C16         6.5060    0.2610    3.5240 ca        1 27Z     -0.185500
     15 C17         7.8790    0.1990    3.4090 ca        1 27Z      0.044500
     16 C18         8.5100   -0.3010    2.2460 ca        1 27Z     -0.574500
     17 C19         7.6670   -0.7550    1.2070 ca        1 27Z      0.044500
     18 C20         6.2880   -0.7020    1.2940 ca        1 27Z     -0.185500
     19 O21        -0.6430   -0.0370   -1.0830 o         1 27Z     -0.486100
     20 N22        -1.3140    0.1990    1.1060 nz        1 27Z     -0.752400
     21 HN2         1.2760   -0.2520   -2.1230 hn        1 27Z      0.486800
     22 HN2A        2.9860   -0.3710   -2.2340 hn        1 27Z      0.486800
     23 HN3         3.9790    0.1750    3.5530 hn        1 27Z      0.479800
     24 HN4        11.0530   -2.4960    2.0990 hn        1 27Z      0.460133
     25 HN4A       11.1950   -1.8160    3.5900 hn        1 27Z      0.460133
     26 H16         6.0680    0.6670    4.4520 ha        1 27Z      0.185000
     27 H17         8.5050    0.5800    4.2400 ha        1 27Z      0.178500
     28 H19         8.1260   -1.1500    0.2770 ha        1 27Z      0.178500
     29 H20         5.6970   -1.0820    0.4440 ha        1 27Z      0.185000
     30 HN22       -1.3130   -0.5890    1.7590 hn        1 27Z      0.469133
     31 HN2B       -1.1790    1.0690    1.6270 hn        1 27Z      0.469133
     32 H43         9.7600   -2.4630    3.1140 hn        1 27Z      0.460133
     33 H223       -2.2230    0.2340    0.6230 hn        1 27Z      0.469133
@<TRIPOS>BOND
     1    1   10 1   
     2    1   19 2   
     3    1   20 1   
     4    2   11 1   
     5    2   12 2   
     6    3    7 2   
     7    4   10 1   
     8    4   12 1   
     9    5   11 1   
    10    5   21 1   
    11    5   22 1   
    12    6    7 2   
    13    7    9 1   
    14    7   16 1   
    15    8   12 1   
    16    8   13 1   
    17    8   23 1   
    18    9   24 1   
    19    9   25 1   
    20    9   32 1   
    21   10   11 2   
    22   13   14 ar  
    23   13   18 ar  
    24   14   15 ar  
    25   14   26 1   
    26   15   16 ar  
    27   15   27 1   
    28   16   17 ar  
    29   17   18 ar  
    30   17   28 1   
    31   18   29 1   
    32   20   30 1   
    33   20   31 1   
    34   20   33 1   
@<TRIPOS>SUBSTRUCTURE
     1 27Z         1 TEMP              0 ****  ****    0 ROOT
