@<TRIPOS>MOLECULE
27Z
   31    32     1     0     0
SMALL
bcc


@<TRIPOS>ATOM
      1 C1          5.5140    0.4120   -0.0210 c         1 27Z      0.733700
      2 N1          1.7730    0.7100   -0.2950 nc        1 27Z     -0.736000
      3 O1         -5.6490   -0.3240   -1.0790 o         1 27Z     -0.659300
      4 S1          3.3370   -1.3050    0.2630 ss        1 27Z     -0.144300
      5 N2          3.3840    2.5100   -0.4670 nh        1 27Z     -0.931500
      6 O2         -5.0600    1.7330    0.0470 o         1 27Z     -0.659300
      7 S2         -5.0140    0.3240    0.0040 sy        1 27Z      1.531200
      8 N3          0.6420   -1.4180    0.1190 nh        1 27Z     -0.710300
      9 N4         -5.6020   -0.2590    1.3770 n3        1 27Z     -1.026700
     10 C12         4.0770    0.1860   -0.0190 cd        1 27Z     -0.397000
     11 C13         3.1060    1.1870   -0.2800 cc        1 27Z      0.717200
     12 C14         1.7640   -0.6030   -0.0130 cd        1 27Z      0.693300
     13 C15        -0.6810   -0.9450    0.0510 ca        1 27Z      0.204600
     14 C16        -1.6690   -1.7600   -0.5570 ca        1 27Z     -0.183500
     15 C17        -2.9970   -1.3630   -0.5550 ca        1 27Z      0.006500
     16 C18        -3.4000   -0.1600    0.0370 ca        1 27Z     -0.411500
     17 C19        -2.4180    0.6440    0.6270 ca        1 27Z      0.006500
     18 C20        -1.0800    0.2710    0.6470 ca        1 27Z     -0.183500
     19 O21         6.0350    1.5120   -0.3300 o         1 27Z     -0.653100
     20 N22         6.3410   -0.6370    0.3180 n         1 27Z     -0.676000
     21 HN2         2.6780    3.1190   -0.8000 hn        1 27Z      0.457300
     22 HN2A        4.3430    2.7640   -0.5780 hn        1 27Z      0.457300
     23 HN3         0.7760   -2.3420   -0.2420 hn        1 27Z      0.437800
     24 HN4        -6.0140   -1.1530    1.4600 hn        1 27Z      0.446800
     25 HN4A       -5.6160    0.2490    2.2250 hn        1 27Z      0.446800
     26 H16        -1.3920   -2.7100   -1.0390 ha        1 27Z      0.151500
     27 H17        -3.7540   -1.9970   -1.0530 ha        1 27Z      0.155500
     28 H19        -2.7130    1.6110    1.0760 ha        1 27Z      0.155500
     29 H20        -0.3460    0.9340    1.1310 ha        1 27Z      0.151500
     30 HN22        5.9790   -1.4990    0.6330 hn        1 27Z      0.311500
     31 HN2B        7.3180   -0.4870    0.3460 hn        1 27Z      0.311500
@<TRIPOS>BOND
     1    1   10 1   
     2    1   19 2   
     3    1   20 1   
     4    2   11 1   
     5    2   12 2   
     6    3    7 2   
     7    4   10 1   
     8    4   12 1   
     9    5   11 1   
    10    5   21 1   
    11    5   22 1   
    12    6    7 2   
    13    7    9 1   
    14    7   16 1   
    15    8   12 1   
    16    8   13 1   
    17    8   23 1   
    18    9   24 1   
    19    9   25 1   
    20   10   11 2   
    21   13   14 ar  
    22   13   18 ar  
    23   14   15 ar  
    24   14   26 1   
    25   15   16 ar  
    26   15   27 1   
    27   16   17 ar  
    28   17   18 ar  
    29   17   28 1   
    30   18   29 1   
    31   20   30 1   
    32   20   31 1   
@<TRIPOS>SUBSTRUCTURE
     1 27Z         1 TEMP              0 ****  ****    0 ROOT
