@<TRIPOS>MOLECULE
27Z
   31    27     1     0     0
SMALL
bcc


@<TRIPOS>ATOM
      1 C1          4.3980    2.4060   -1.9250 c1        1 27Z      0.379000
      2 N1          2.0640    0.3500    0.4590 n2        1 27Z     -0.164000
      3 O1         -5.3880   -3.1070    0.5450 o         1 27Z     -0.939500
      4 S1          1.9550    1.2460   -1.7690 ss        1 27Z      0.689000
      5 N2          4.4850    1.2930    1.0390 n3        1 27Z     -0.297000
      6 O2         -5.9660   -1.0160    1.0180 o         1 27Z     -0.939500
      7 S2         -4.8990   -1.9510    1.2440 ss        1 27Z      2.871000
      8 N3          0.0690    0.0000   -1.4030 n3        1 27Z     -0.206000
      9 N4         -4.7080   -2.2600    2.8450 n2        1 27Z     -0.953000
     10 C12         3.3020    1.6620   -1.1880 c1        1 27Z     -0.550000
     11 C13         3.3890    1.1330    0.1520 c2        1 27Z      0.075000
     12 C14         1.2180    0.4240   -0.6900 c2        1 27Z     -0.219000
     13 C15        -1.0710   -0.4630   -0.6990 c2        1 27Z      0.113000
     14 C16        -1.9920    0.4440   -0.2010 c2        1 27Z     -0.203000
     15 C17        -3.1440   -0.0100    0.4210 c1        1 27Z      0.012000
     16 C18        -3.3760   -1.3710    0.5450 c1        1 27Z     -0.865000
     17 C19        -2.4550   -2.2780    0.0470 c1        1 27Z      0.013000
     18 C20        -1.3020   -1.8240   -0.5750 c1        1 27Z     -0.185000
     19 O21         4.2400    2.7250   -3.0890 o         1 27Z     -0.368000
     20 N22         5.6200    2.7020   -1.2680 n3        1 27Z     -0.424000
     21 HN2         4.3690    1.7290    1.8350 hn        1 27Z      0.202500
     22 HN2A        5.2940    0.9220    0.8360 hn        1 27Z      0.202500
     23 HN3         0.0600    0.0340   -2.3140 hn        1 27Z      0.215000
     24 HN4        -5.1880   -1.7860    3.4630 hn        1 27Z      0.241000
     25 HN4A       -4.1250   -2.9070    3.1190 hn        1 27Z      0.241000
     26 H16        -1.8290    1.4020   -0.2880 ha        1 27Z      0.142000
     27 H17        -3.7930    0.6290    0.7720 ha        1 27Z      0.154000
     28 H19        -2.6170   -3.2360    0.1340 ha        1 27Z      0.154000
     29 H20        -0.6540   -2.4630   -0.9260 ha        1 27Z      0.148000
     30 HN22        5.9260    2.1540   -0.6070 hn        1 27Z      0.231000
     31 HN2B        6.1170    3.4210   -1.5330 hn        1 27Z      0.231000
@<TRIPOS>BOND
     1    1   19 1   
     2    1   20 1   
     3    2   11 1   
     4    2   12 1   
     5    3    7 1   
     6    4   10 1   
     7    4   12 1   
     8    5   11 1   
     9    5   21 1   
    10    5   22 1   
    11    6    7 1   
    12    8   12 1   
    13    8   13 1   
    14    8   23 1   
    15    9   24 1   
    16    9   25 1   
    17   10   11 1   
    18   13   14 1   
    19   13   18 1   
    20   14   15 1   
    21   14   26 1   
    22   15   27 1   
    23   16   17 1   
    24   17   28 1   
    25   18   29 1   
    26   20   30 1   
    27   20   31 1   
@<TRIPOS>SUBSTRUCTURE
     1 27Z         1 TEMP              0 ****  ****    0 ROOT
