@<TRIPOS>MOLECULE
27Z
   33    34     1     0     0
SMALL
bcc


@<TRIPOS>ATOM
      1 C1         -0.2160    0.0270    0.0800 c         1 27Z      0.615700
      2 N1          3.4850   -0.2400    0.3360 nc        1 27Z     -0.750000
      3 O1         10.7600    0.5930    2.8900 o         1 27Z     -0.557800
      4 S1          1.6380    0.1210    2.1620 ss        1 27Z     -0.143300
      5 N2          2.1490   -0.3780   -1.6590 nh        1 27Z     -0.874500
      6 O2         10.5270   -0.4910    0.7370 o         1 27Z     -0.557800
      7 S2         10.1040   -0.2550    2.0260 sy        1 27Z      1.491200
      8 N3          4.2980   -0.0140    2.6190 nh        1 27Z     -0.709300
      9 N4         10.5540   -1.9360    2.8260 n4        1 27Z     -0.790500
     10 C12         1.1080   -0.0270    0.5580 cd        1 27Z     -0.456000
     11 C13         2.2390   -0.2240   -0.3280 cc        1 27Z      0.796200
     12 C14         3.3090   -0.0640    1.6580 cd        1 27Z      0.786300
     13 C15         5.6760   -0.1360    2.4390 ca        1 27Z      0.277600
     14 C16         6.5230    0.3300    3.4870 ca        1 27Z     -0.185000
     15 C17         7.8950    0.2480    3.3670 ca        1 27Z      0.044500
     16 C18         8.5140   -0.3050    2.2220 ca        1 27Z     -0.574500
     17 C19         7.6610   -0.7920    1.2070 ca        1 27Z      0.044500
     18 C20         6.2820   -0.7200    1.3000 ca        1 27Z     -0.185000
     19 O21        -0.6550   -0.0790   -1.0660 o         1 27Z     -0.486100
     20 N22        -1.3100    0.2540    1.1150 n4        1 27Z     -0.752400
     21 HN2         1.2560   -0.3570   -2.1060 hn        1 27Z      0.486800
     22 HN2A        2.9640   -0.4990   -2.2220 hn        1 27Z      0.486800
     23 HN3         3.9960    0.2730    3.5320 hn        1 27Z      0.479800
     24 HN4        11.0330   -2.5310    2.1500 hn        1 27Z      0.460133
     25 HN4A       11.1900   -1.7940    3.6120 hn        1 27Z      0.460133
     26 H16         6.0940    0.7780    4.4010 ha        1 27Z      0.185000
     27 H17         8.5290    0.6560    4.1800 ha        1 27Z      0.178500
     28 H19         8.1090   -1.2290    0.2920 ha        1 27Z      0.178500
     29 H20         5.6820   -1.1270    0.4680 ha        1 27Z      0.185000
     30 HN22       -1.3150   -0.5070    1.8000 hn        1 27Z      0.469133
     31 HN2B       -1.1630    1.1440    1.5980 hn        1 27Z      0.469133
     32 H43         9.7460   -2.4450    3.1700 hn        1 27Z      0.460133
     33 H223       -2.2220    0.2790    0.6350 hn        1 27Z      0.469133
@<TRIPOS>BOND
     1    1   10 1   
     2    1   19 2   
     3    1   20 1   
     4    2   11 1   
     5    2   12 2   
     6    3    7 2   
     7    4   10 1   
     8    4   12 1   
     9    5   11 1   
    10    5   21 1   
    11    5   22 1   
    12    6    7 2   
    13    7    9 1   
    14    7   16 1   
    15    8   12 1   
    16    8   13 1   
    17    8   23 1   
    18    9   24 1   
    19    9   25 1   
    20    9   32 1   
    21   10   11 2   
    22   13   14 ar  
    23   13   18 ar  
    24   14   15 ar  
    25   14   26 1   
    26   15   16 ar  
    27   15   27 1   
    28   16   17 ar  
    29   17   18 ar  
    30   17   28 1   
    31   18   29 1   
    32   20   30 1   
    33   20   31 1   
    34   20   33 1   
@<TRIPOS>SUBSTRUCTURE
     1 27Z         1 TEMP              0 ****  ****    0 ROOT
