@<TRIPOS>MOLECULE
280
   14    11     1     0     0
SMALL
bcc


@<TRIPOS>ATOM
      1 C1         -1.6730   -0.0420    0.5430 c3        1 280     -0.080000
      2 N2         -0.2260    0.0570    0.5510 n3        1 280     -0.141000
      3 C3          0.5840    0.0290    1.6650 c1        1 280     -0.066000
      4 N4          1.8680    0.0290    1.2470 n2        1 280     -0.153000
      5 C5          1.8660    0.0570   -0.0980 c1        1 280     -0.077000
      6 C6          0.5550    0.0740   -0.5230 c1        1 280     -0.231000
      7 C7          0.0810    0.0010   -1.9630 c1        1 280      0.254000
      8 O8          0.8750    0.0250   -2.8600 o         1 280     -0.283000
      9 H11        -2.0410    0.6730    0.0100 h1        1 280      0.098000
     10 H12        -1.9410   -0.9080    0.1570 h1        1 280      0.098000
     11 H13        -2.0110    0.0250    1.4540 h1        1 280      0.098000
     12 H3          0.2710    0.0110    2.6310 DU        1 280      0.199000
     13 H5          2.6400    0.0640   -0.6620 DU        1 280      0.199000
     14 H7         -0.8470   -0.0950   -2.1520 ha        1 280      0.087000
@<TRIPOS>BOND
     1    1    2 1   
     2    1    9 1   
     3    1   10 1   
     4    1   11 1   
     5    2    3 1   
     6    2    6 1   
     7    3    4 1   
     8    4    5 1   
     9    5    6 1   
    10    7    8 1   
    11    7   14 1   
@<TRIPOS>SUBSTRUCTURE
     1 280         1 TEMP              0 ****  ****    0 ROOT
