@<TRIPOS>MOLECULE
280
   14    14     1     0     0
SMALL
bcc


@<TRIPOS>ATOM
      1 C1          0.0230    0.0000   -0.0190 c3        1 280      0.018600
      2 N2          1.4470   -0.0010   -0.0030 na        1 280     -0.185900
      3 C3          2.2760    0.0000    1.1190 cc        1 280      0.422400
      4 N4          3.5890   -0.0020    0.7760 nd        1 280     -0.679000
      5 C5          3.6170   -0.0060   -0.6090 cd        1 280      0.388200
      6 C6          2.2970   -0.0050   -1.1280 cc        1 280     -0.341200
      7 C7          1.8610   -0.0080   -2.5150 c         1 280      0.606500
      8 O8          2.6510   -0.0110   -3.4620 o         1 280     -0.522100
      9 H11        -0.3580   -0.9140   -0.5500 h1        1 280      0.058700
     10 H12        -0.3670    0.0030    1.0330 h1        1 280      0.058700
     11 H13        -0.3560    0.9130   -0.5540 h1        1 280      0.058700
     12 H3          1.8880    0.0030    2.1440 h5        1 280      0.065100
     13 H5          4.5490   -0.0080   -1.1780 h4        1 280      0.059100
     14 H7          0.7590   -0.0070   -2.6770 h4        1 280     -0.005800
@<TRIPOS>BOND
     1    1    2 1   
     2    1    9 1   
     3    1   10 1   
     4    1   11 1   
     5    2    3 1   
     6    2    6 1   
     7    3    4 2   
     8    3   12 1   
     9    4    5 1   
    10    5    6 2   
    11    5   13 1   
    12    6    7 1   
    13    7    8 2   
    14    7   14 1   
@<TRIPOS>SUBSTRUCTURE
     1 280         1 TEMP              0 ****  ****    0 ROOT
