@<TRIPOS>MOLECULE
280
   14    14     1     0     0
SMALL
bcc


@<TRIPOS>ATOM
      1 C1          1.0930    1.9980    0.0190 c3        1 280      0.018600
      2 N2          0.8670    0.5920    0.0270 na        1 280     -0.185900
      3 C3          1.8290   -0.4160    0.0920 cc        1 280      0.422400
      4 N4          1.2670   -1.6510    0.0800 nd        1 280     -0.679000
      5 C5         -0.1000   -1.4430    0.0060 cd        1 280      0.388200
      6 C6         -0.3850   -0.0550   -0.0280 cc        1 280     -0.341200
      7 C7         -1.6760    0.6110   -0.1050 c         1 280      0.606500
      8 O8         -2.7430   -0.0060   -0.1510 o         1 280     -0.522100
      9 H11         0.6810    2.4500   -0.9240 h1        1 280      0.058700
     10 H12         0.5870    2.4760    0.9010 h1        1 280      0.058700
     11 H13         2.1960    2.2030    0.0730 h1        1 280      0.058700
     12 H3          2.9040   -0.2070    0.1440 h5        1 280      0.065100
     13 H5         -0.8190   -2.2650   -0.0190 h4        1 280      0.059100
     14 H7         -1.6480    1.7250   -0.1190 h4        1 280     -0.005800
@<TRIPOS>BOND
     1    1    2 1   
     2    1    9 1   
     3    1   10 1   
     4    1   11 1   
     5    2    3 1   
     6    2    6 1   
     7    3    4 2   
     8    3   12 1   
     9    4    5 1   
    10    5    6 2   
    11    5   13 1   
    12    6    7 1   
    13    7    8 2   
    14    7   14 1   
@<TRIPOS>SUBSTRUCTURE
     1 280         1 TEMP              0 ****  ****    0 ROOT
