@<TRIPOS>MOLECULE
281
   57    59     1     0     0
SMALL
bcc


@<TRIPOS>ATOM
      1 C35        -3.5300    1.7640    0.6310 ca        1 281     -0.010000
      2 N42        -2.6620    1.4960    1.6160 nc        1 281     -0.276500
      3 S41        -2.3750    2.8960    2.4020 ss        1 281      0.587000
      4 N40        -3.3270    3.9180    1.5650 nc        1 281     -0.296500
      5 C36        -3.9250    3.2020    0.6010 ca        1 281     -0.097000
      6 C37        -4.8510    3.6370   -0.4000 ca        1 281     -0.033000
      7 C38        -5.3410    2.7300   -1.2920 ca        1 281     -0.160000
      8 C39        -4.9530    1.3570   -1.2570 ca        1 281      0.012000
      9 C34        -4.0760    0.8580   -0.3330 ca        1 281     -0.289500
     10 S32        -3.6550   -0.8100   -0.3050 sy        1 281      1.514200
     11 O33        -3.8890   -1.3160    0.9850 o         1 281     -0.656800
     12 O32        -4.4250   -1.4010   -1.3410 o         1 281     -0.656800
     13 N31        -2.1090   -0.7910   -0.7250 n3        1 281     -0.889100
     14 C27        -1.0220   -1.1230    0.1540 c3        1 281     -0.049700
     15 C28        -0.6180   -2.6140    0.1900 c3        1 281     -0.084700
     16 C30        -0.9310   -3.2100    1.5500 c3        1 281     -0.096100
     17 C29        -1.2420   -3.4620   -0.9000 c3        1 281     -0.096100
     18 P24         0.3240   -0.2120   -0.3080 p5        1 281      1.501100
     19 O25        -0.1570    1.3410   -0.1830 oh        1 281     -0.807400
     20 O26         0.6120   -0.3060   -1.7410 o         1 281     -0.886300
     21 C15         1.4470   -0.3310    0.8540 c3        1 281     -0.452600
     22 C1          2.6290   -1.1850    0.4220 c3        1 281     -0.156400
     23 C2          2.6160   -2.5580    1.1860 c         1 281      0.912600
     24 O14         2.2420   -2.5510    2.3930 o         1 281     -0.817300
     25 O13         2.9380   -3.5780    0.5280 o         1 281     -0.817300
     26 C3          3.9200   -0.4860    0.6830 ca        1 281     -0.026300
     27 C8          4.6740    0.0370   -0.3750 ca        1 281     -0.121000
     28 C4          4.3910   -0.3460    1.9960 ca        1 281     -0.111000
     29 C5          5.5890    0.3200    2.2430 ca        1 281     -0.143000
     30 C6          6.3310    0.8480    1.1870 ca        1 281     -0.150000
     31 C7          5.8760    0.7040   -0.1270 ca        1 281     -0.147300
     32 C9          6.6890    1.2560   -1.2630 c3        1 281      0.194100
     33 N10         6.8310    2.6930   -1.3020 n3        1 281     -0.903800
     34 H37        -5.1430    4.6980   -0.4240 ha        1 281      0.149000
     35 H38        -6.0540    3.0450   -2.0700 ha        1 281      0.140000
     36 H39        -5.3890    0.6760   -2.0140 ha        1 281      0.168000
     37 HN31       -1.8230   -0.7800   -1.6820 hn        1 281      0.467800
     38 H27        -1.3480   -0.8510    1.2060 h1        1 281      0.121700
     39 H28         0.5060   -2.6730    0.0500 hc        1 281      0.089700
     40 H301       -1.9880   -2.9990    1.8420 hc        1 281      0.043867
     41 H302       -0.7770   -4.3150    1.5260 hc        1 281      0.043867
     42 H303       -0.2340   -2.7880    2.3190 hc        1 281      0.043867
     43 H291       -1.0080   -3.0600   -1.9150 hc        1 281      0.043867
     44 H292       -0.8280   -4.4980   -0.8360 hc        1 281      0.043867
     45 H293       -2.3510   -3.5230   -0.7800 hc        1 281      0.043867
     46 HO25       -0.2230    1.7860   -1.0240 ho        1 281      0.456000
     47 H151        1.8170    0.6840    1.1650 hc        1 281      0.131700
     48 H152        1.0770   -0.7840    1.8250 hc        1 281      0.131700
     49 H1          2.5450   -1.4120   -0.6790 hc        1 281      0.071700
     50 H8          4.3180   -0.0900   -1.4100 ha        1 281      0.137000
     51 H4          3.8050   -0.8010    2.8150 ha        1 281      0.175000
     52 H5          5.9560    0.4210    3.2740 ha        1 281      0.117000
     53 H6          7.2800    1.3660    1.3850 ha        1 281      0.110000
     54 H91         7.7270    0.8160   -1.2040 h1        1 281      0.052700
     55 H92         6.2380    0.9270   -2.2430 h1        1 281      0.052700
     56 H101        5.9390    3.1260   -1.4520 hn        1 281      0.338800
     57 H102        7.1930    3.0290   -0.4290 hn        1 281      0.338800
@<TRIPOS>BOND
     1    1    2 2   
     2    1    5 ar  
     3    1    9 ar  
     4    2    3 1   
     5    3    4 1   
     6    4    5 2   
     7    5    6 ar  
     8    6    7 ar  
     9    6   34 1   
    10    7    8 ar  
    11    7   35 1   
    12    8    9 ar  
    13    8   36 1   
    14    9   10 1   
    15   10   11 2   
    16   10   12 2   
    17   10   13 1   
    18   13   14 1   
    19   13   37 1   
    20   14   15 1   
    21   14   18 1   
    22   14   38 1   
    23   15   16 1   
    24   15   17 1   
    25   15   39 1   
    26   16   40 1   
    27   16   41 1   
    28   16   42 1   
    29   17   43 1   
    30   17   44 1   
    31   17   45 1   
    32   18   19 1   
    33   18   20 2   
    34   18   21 1   
    35   19   46 1   
    36   21   22 1   
    37   21   47 1   
    38   21   48 1   
    39   22   23 1   
    40   22   26 1   
    41   22   49 1   
    42   23   24 1   
    43   23   25 1   
    44   26   27 ar  
    45   26   28 ar  
    46   27   31 ar  
    47   27   50 1   
    48   28   29 ar  
    49   28   51 1   
    50   29   30 ar  
    51   29   52 1   
    52   30   31 ar  
    53   30   53 1   
    54   31   32 1   
    55   32   33 1   
    56   32   54 1   
    57   32   55 1   
    58   33   56 1   
    59   33   57 1   
@<TRIPOS>SUBSTRUCTURE
     1 281         1 TEMP              0 ****  ****    0 ROOT
