@<TRIPOS>MOLECULE
281
   59    61     1     0     0
SMALL
bcc


@<TRIPOS>ATOM
      1 C35        -0.9270   -0.0520   -0.1920 ca        1 281     -0.021000
      2 N42         0.2120   -0.7680   -0.1830 nc        1 281     -0.367500
      3 S41         0.2150   -1.6500    1.1790 ss        1 281      0.774000
      4 N40        -1.1950   -1.2150    1.8250 nc        1 281     -0.288500
      5 C36        -1.7680   -0.3150    0.9990 ca        1 281     -0.106000
      6 C37        -3.0090    0.3730    1.1270 ca        1 281      0.058000
      7 C38        -3.3770    1.2710    0.1550 ca        1 281     -0.191000
      8 C39        -2.5620    1.5320   -0.9690 ca        1 281      0.103000
      9 C34        -1.3490    0.8910   -1.1810 ca        1 281     -0.472500
     10 S32        -0.4200    1.1430   -2.4940 sy        1 281      1.477200
     11 O33        -0.8860    2.1960   -3.2720 o         1 281     -0.580800
     12 O32         0.0380    0.0060   -3.1310 o         1 281     -0.580800
     13 N31         1.0410    1.8750   -1.6330 n4        1 281     -0.681900
     14 C27         2.3370    1.2660   -1.9660 c3        1 281     -0.152700
     15 C28         3.0300    1.7730   -3.2410 c3        1 281     -0.060700
     16 C30         2.9770    0.7150   -4.3300 c3        1 281     -0.121100
     17 C29         2.5010    3.0850   -3.7850 c3        1 281     -0.121100
     18 P24         3.3990    1.3600   -0.6330 p5        1 281      1.489100
     19 O25         4.6040    0.3790   -1.0110 oh        1 281     -0.797400
     20 O26         2.7030    0.8130    0.5330 o         1 281     -0.879300
     21 C15         4.0260    2.8640   -0.5630 c3        1 281     -0.438600
     22 C1          3.5430    3.6270    0.6530 c3        1 281     -0.137400
     23 C2          2.2900    4.5370    0.3730 c         1 281      0.952600
     24 O14         1.6650    4.4050   -0.7170 o         1 281     -0.854800
     25 O13         1.9210    5.3520    1.2680 o         1 281     -0.854800
     26 C3          4.5680    4.5190    1.2710 ca        1 281     -0.050300
     27 C8          4.1730    5.0990    2.4870 ca        1 281     -0.080000
     28 C4          5.7480    4.9700    0.6730 ca        1 281     -0.093000
     29 C5          6.4700    6.0240    1.2440 ca        1 281     -0.123000
     30 C6          5.9600    6.7240    2.3360 ca        1 281     -0.098000
     31 C7          4.7760    6.2780    2.9300 ca        1 281     -0.181300
     32 C9          3.9800    7.1070    3.8800 c3        1 281      0.185100
     33 N10         2.6750    7.4540    3.2130 n4        1 281     -0.860600
     34 H37        -3.6470    0.1740    2.0060 ha        1 281      0.179000
     35 H38        -4.3350    1.8130    0.2420 ha        1 281      0.171000
     36 H39        -2.9120    2.2820   -1.7090 ha        1 281      0.175000
     37 HN31        1.0800    2.8970   -1.8450 hn        1 281      0.490800
     38 H27         2.1280    0.1560   -2.1360 hx        1 281      0.159700
     39 H28         4.1190    1.9190   -2.9730 hc        1 281      0.061700
     40 H301        3.4690    1.1010   -5.2550 hc        1 281      0.061700
     41 H302        1.9200    0.4450   -4.5740 hc        1 281      0.061700
     42 H303        3.5130   -0.2100   -4.0050 hc        1 281      0.061700
     43 H291        2.4900    3.8980   -3.0150 hc        1 281      0.061700
     44 H292        3.1600    3.4210   -4.6250 hc        1 281      0.061700
     45 H293        1.4680    2.9650   -4.1960 hc        1 281      0.061700
     46 HO25        4.6820   -0.4310   -0.5100 ho        1 281      0.495000
     47 H151        3.7890    3.5110   -1.4560 hc        1 281      0.134200
     48 H152        5.1510    2.8070   -0.5470 hc        1 281      0.134200
     49 H1          3.1990    2.8800    1.4320 hc        1 281      0.094700
     50 H8          3.3080    4.6720    3.0230 ha        1 281      0.151000
     51 H4          6.1130    4.5290   -0.2670 ha        1 281      0.143000
     52 H5          7.4220    6.3390    0.7910 ha        1 281      0.151000
     53 H6          6.4760    7.6190    2.7140 ha        1 281      0.143000
     54 H91         4.5090    8.0630    4.1500 hx        1 281      0.099700
     55 H92         3.7380    6.5350    4.8210 hx        1 281      0.099700
     56 H101        2.0270    7.8680    3.8800 hn        1 281      0.469467
     57 H102        2.2540    6.5950    2.7920 hn        1 281      0.469467
     58 H312        0.9300    1.8170   -0.6100 hn        1 281      0.490800
     59 H103        2.8400    8.1080    2.4440 hn        1 281      0.469467
@<TRIPOS>BOND
     1    1    2 2   
     2    1    5 ar  
     3    1    9 ar  
     4    2    3 1   
     5    3    4 1   
     6    4    5 2   
     7    5    6 ar  
     8    6    7 ar  
     9    6   34 1   
    10    7    8 ar  
    11    7   35 1   
    12    8    9 ar  
    13    8   36 1   
    14    9   10 1   
    15   10   11 2   
    16   10   12 2   
    17   10   13 1   
    18   13   14 1   
    19   13   37 1   
    20   13   58 1   
    21   14   15 1   
    22   14   18 1   
    23   14   38 1   
    24   15   16 1   
    25   15   17 1   
    26   15   39 1   
    27   16   40 1   
    28   16   41 1   
    29   16   42 1   
    30   17   43 1   
    31   17   44 1   
    32   17   45 1   
    33   18   19 1   
    34   18   20 2   
    35   18   21 1   
    36   19   46 1   
    37   21   22 1   
    38   21   47 1   
    39   21   48 1   
    40   22   23 1   
    41   22   26 1   
    42   22   49 1   
    43   23   24 1   
    44   23   25 1   
    45   26   27 ar  
    46   26   28 ar  
    47   27   31 ar  
    48   27   50 1   
    49   28   29 ar  
    50   28   51 1   
    51   29   30 ar  
    52   29   52 1   
    53   30   31 ar  
    54   30   53 1   
    55   31   32 1   
    56   32   33 1   
    57   32   54 1   
    58   32   55 1   
    59   33   56 1   
    60   33   57 1   
    61   33   59 1   
@<TRIPOS>SUBSTRUCTURE
     1 281         1 TEMP              0 ****  ****    0 ROOT
