@<TRIPOS>MOLECULE
281
   57    52     1     0     0
SMALL
bcc


@<TRIPOS>ATOM
      1 C35        -4.3970   -4.6280    0.0430 c1        1 281     -0.011000
      2 N42        -4.4380   -4.6590    1.4560 n1        1 281     -0.322000
      3 S41        -5.6570   -5.3850    1.8580 ss        1 281      0.612000
      4 N40        -6.3580   -5.7970    0.6280 n2        1 281     -0.314000
      5 C36        -5.6020   -5.3430   -0.4760 c1        1 281     -0.092000
      6 C37        -5.7960   -5.4650   -1.8400 c1        1 281     -0.038000
      7 C38        -4.8500   -4.9120   -2.7430 c1        1 281     -0.104250
      8 C39        -3.6830   -4.2210   -2.2400 c1        1 281     -0.104250
      9 C34        -3.4790   -4.0920   -0.8410 c1        1 281     -0.744000
     10 S32        -1.8650   -3.6040   -0.2290 s4        1 281      2.063800
     11 O33        -1.7780   -3.7640    1.2000 o         1 281     -0.540900
     12 O32        -0.8400   -4.5130   -0.6740 o         1 281     -0.540900
     13 N31        -1.5240   -2.0390   -0.6840 n2        1 281     -0.853000
     14 C27        -0.2720   -1.4600   -0.3490 c3        1 281     -0.657000
     15 C28         0.6240   -1.4460   -1.5740 c3        1 281     -0.122000
     16 C30         1.6690   -2.5660   -1.4570 c3        1 281     -0.210500
     17 C29        -0.2250   -1.6690   -2.8310 c3        1 281     -0.210500
     18 P24        -0.5300    0.2530    0.2370 p5        1 281      2.818000
     19 O25        -1.2600    0.2240    1.6500 oh        1 281     -0.838000
     20 O26        -1.3720    0.9890   -0.7390 o         1 281     -1.154000
     21 C15         1.1000    1.0990    0.4050 c3        1 281     -0.937000
     22 C1          0.8770    2.5630    0.7770 c3        1 281     -0.151000
     23 C2          0.1680    3.2660   -0.3500 c2        1 281      0.330000
     24 O14         0.6300    3.2030   -1.5240 o         1 281     -0.554000
     25 O13        -0.8500    3.9750   -0.1110 o         1 281     -0.554000
     26 C3          2.2190    3.2330    1.0280 c2        1 281     -0.020000
     27 C8          2.3660    4.1180    2.0950 c2        1 281     -0.120000
     28 C4          3.2690    3.0420    0.1330 c1        1 281     -0.111000
     29 C5          4.4660    3.7350    0.3050 c1        1 281     -0.104250
     30 C6          4.6130    4.6190    1.3720 c1        1 281     -0.104250
     31 C7          3.5640    4.8110    2.2660 c1        1 281     -0.141000
     32 C9          3.7400    5.7560    3.4650 c3        1 281     -0.048000
     33 N10         4.2810    7.0060    3.0130 n3        1 281     -0.336000
     34 H37        -6.6020   -5.9180   -2.1710 ha        1 281      0.151000
     35 H38        -5.1830   -4.9510   -3.6670 ha        1 281      0.136000
     36 H39        -3.3010   -4.2030   -3.1440 ha        1 281      0.136000
     37 HN31       -2.1640   -1.5350   -1.1060 hn        1 281      0.272000
     38 H27         0.1530   -1.9880    0.3610 h1        1 281      0.158000
     39 H28         1.0790   -0.5800   -1.6360 hc        1 281      0.134000
     40 H301        2.4840   -2.3070   -1.9430 hc        1 281      0.079500
     41 H302        1.3070   -3.3940   -1.8430 hc        1 281      0.079500
     42 H303        1.8850   -2.7140   -0.5100 hc        1 281      0.079500
     43 H291       -0.8620   -0.9280   -2.9320 hc        1 281      0.079500
     44 H292        0.3610   -1.7070   -3.6200 hc        1 281      0.079500
     45 H293       -0.7170   -2.5140   -2.7480 hc        1 281      0.079500
     46 HO25       -2.0910    0.5320    1.5610 ho        1 281      0.261000
     47 H151        1.6270    0.6590    1.1080 hc        1 281      0.172000
     48 H152        1.5840    1.0480   -0.4470 hc        1 281      0.172000
     49 H1          0.3290    2.6140    1.5910 hc        1 281      0.110000
     50 H8          1.6210    4.2660    2.7170 ha        1 281      0.136000
     51 H4          3.1590    2.4370   -0.6300 ha        1 281      0.172000
     52 H5          5.2070    3.5990   -0.3260 ha        1 281      0.136000
     53 H6          5.4600    5.0990    1.4980 ha        1 281      0.136000
     54 H91         2.8670    5.9120    3.8910 h1        1 281      0.088500
     55 H92         4.3540    5.3490    4.1170 h1        1 281      0.088500
     56 H101        5.0000    7.2360    3.5370 hn        1 281      0.137000
     57 H102        3.6380    7.6580    3.0730 hn        1 281      0.137000
@<TRIPOS>BOND
     1    1    9 1   
     2    2    3 1   
     3    3    4 1   
     4    4    5 1   
     5    5    6 1   
     6    6   34 1   
     7    7    8 1   
     8    7   35 1   
     9    8   36 1   
    10    9   10 1   
    11   10   11 1   
    12   10   12 1   
    13   13   14 1   
    14   13   37 1   
    15   14   15 1   
    16   14   18 1   
    17   14   38 1   
    18   15   16 1   
    19   15   17 1   
    20   15   39 1   
    21   16   40 1   
    22   16   41 1   
    23   16   42 1   
    24   17   43 1   
    25   17   44 1   
    26   17   45 1   
    27   18   19 1   
    28   18   20 1   
    29   18   21 1   
    30   19   46 1   
    31   21   22 1   
    32   21   47 1   
    33   21   48 1   
    34   22   23 1   
    35   22   26 1   
    36   22   49 1   
    37   23   24 1   
    38   23   25 1   
    39   26   27 1   
    40   26   28 1   
    41   27   31 1   
    42   27   50 1   
    43   28   51 1   
    44   29   30 1   
    45   29   52 1   
    46   30   53 1   
    47   31   32 1   
    48   32   33 1   
    49   32   54 1   
    50   32   55 1   
    51   33   56 1   
    52   33   57 1   
@<TRIPOS>SUBSTRUCTURE
     1 281         1 TEMP              0 ****  ****    0 ROOT
