@<TRIPOS>MOLECULE
281
   58    60     1     0     0
SMALL
bcc


@<TRIPOS>ATOM
      1 C35         0.6550   -0.2190    0.7830 ca        1 281      0.149000
      2 N42         1.8060   -0.7090    0.3390 n2        1 281     -0.411900
      3 S41         3.0060    0.0620    1.2120 s4        1 281      0.886600
      4 N40         2.1420    0.7630    2.3580 n2        1 281     -0.567900
      5 C36         0.8020    0.5880    2.0580 ca        1 281     -0.034000
      6 C37        -0.3330    1.0120    2.6920 ca        1 281     -0.104000
      7 C38        -1.6070    0.7810    2.0860 ca        1 281     -0.144000
      8 C39        -1.7290    0.2320    0.8490 ca        1 281     -0.048000
      9 C34        -0.5880   -0.2200    0.0870 ca        1 281     -0.669500
     10 S32        -0.6350   -0.4610   -1.4070 s4        1 281      1.693300
     11 O33        -1.7310    0.0010   -2.0860 o         1 281     -0.460400
     12 O32         0.2230   -1.2640   -2.0840 o         1 281     -0.460400
     13 N31         0.6410    1.6730   -1.8990 n8        1 281     -0.952800
     14 C27         2.0470    1.9650   -2.1710 c3        1 281     -0.155700
     15 C28         2.2790    2.8640   -3.4030 c3        1 281     -0.123700
     16 C30         2.5510    2.0030   -4.6230 c3        1 281     -0.091100
     17 C29         1.1430    3.8200   -3.7240 c3        1 281     -0.091100
     18 P24         2.8350    2.5800   -0.8200 p5        1 281      1.602100
     19 O25         3.3250    1.3050    0.0550 os        1 281     -0.664200
     20 O26         1.8720    3.2290    0.1020 o         1 281     -0.944300
     21 C15         4.2370    3.3410   -1.1040 c3        1 281     -0.465600
     22 C1          4.1000    4.8670   -1.0940 c3        1 281     -0.143400
     23 C2          4.9760    5.4480   -2.2540 c         1 281      0.930600
     24 O14         5.8420    6.3170   -2.0010 o         1 281     -0.808300
     25 O13         4.7180    4.9620   -3.3920 o         1 281     -0.808300
     26 C3          4.3840    5.4070    0.2710 ca        1 281     -0.030300
     27 C8          3.3060    5.4650    1.1630 ca        1 281     -0.123000
     28 C4          5.6670    5.6970    0.7500 ca        1 281     -0.057000
     29 C5          5.8660    5.9020    2.1190 ca        1 281     -0.144000
     30 C6          4.8210    5.7300    3.0280 ca        1 281     -0.112000
     31 C7          3.5340    5.4840    2.5430 ca        1 281     -0.196300
     32 C9          2.3980    5.0710    3.4160 c3        1 281      0.187100
     33 N10         1.9250    3.7110    2.9930 nz        1 281     -0.854600
     34 H37        -0.2940    1.5270    3.6620 ha        1 281      0.125000
     35 H38        -2.5020    1.0900    2.6480 ha        1 281      0.140000
     36 H39        -2.7210    0.1210    0.3790 ha        1 281      0.141000
     37 HN31        0.2980    2.3550   -1.2340 hn        1 281      0.381800
     38 H27         2.5030    0.9550   -2.4300 h1        1 281      0.123700
     39 H28         3.2010    3.5110   -3.2390 hc        1 281      0.142700
     40 H301        1.6880    1.3280   -4.8330 hc        1 281      0.042033
     41 H302        3.4650    1.3790   -4.4690 hc        1 281      0.042033
     42 H303        2.7230    2.6570   -5.5130 hc        1 281      0.042033
     43 H291        0.7710    4.3570   -2.8190 hc        1 281      0.042033
     44 H292        0.2850    3.2950   -4.2100 hc        1 281      0.042033
     45 H293        1.5250    4.5890   -4.4430 hc        1 281      0.042033
     46 H151        5.0190    3.0570   -0.3450 hc        1 281      0.141200
     47 H152        4.7380    3.0740   -2.0830 hc        1 281      0.141200
     48 H1          3.0370    5.1220   -1.3700 hc        1 281      0.045700
     49 H8          2.2730    5.4170    0.7760 ha        1 281      0.153000
     50 H4          6.5010    5.7730    0.0260 ha        1 281      0.202000
     51 H5          6.8700    6.1620    2.4870 ha        1 281      0.140000
     52 H6          5.0100    5.7860    4.1090 ha        1 281      0.125000
     53 H91         2.7070    5.0180    4.4970 hx        1 281      0.085700
     54 H92         1.5270    5.7790    3.3110 hx        1 281      0.085700
     55 H101        2.6930    3.0360    3.0600 hn        1 281      0.470467
     56 H102        1.1520    3.3870    3.5690 hn        1 281      0.470467
     57 H312        0.1120    1.7850   -2.7520 hn        1 281      0.381800
     58 H103        1.6240    3.7280    1.9920 hn        1 281      0.470467
@<TRIPOS>BOND
     1    1    2 2   
     2    1    5 ar  
     3    1    9 ar  
     4    2    3 1   
     5    3    4 1   
     6    3   19 1   
     7    4    5 2   
     8    5    6 ar  
     9    6    7 ar  
    10    6   34 1   
    11    7    8 ar  
    12    7   35 1   
    13    8    9 ar  
    14    8   36 1   
    15    9   10 1   
    16   10   11 1   
    17   10   12 1   
    18   13   14 1   
    19   13   37 1   
    20   13   57 1   
    21   14   15 1   
    22   14   18 1   
    23   14   38 1   
    24   15   16 1   
    25   15   17 1   
    26   15   39 1   
    27   16   40 1   
    28   16   41 1   
    29   16   42 1   
    30   17   43 1   
    31   17   44 1   
    32   17   45 1   
    33   18   19 1   
    34   18   20 2   
    35   18   21 1   
    36   21   22 1   
    37   21   46 1   
    38   21   47 1   
    39   22   23 1   
    40   22   26 1   
    41   22   48 1   
    42   23   24 1   
    43   23   25 1   
    44   26   27 ar  
    45   26   28 ar  
    46   27   31 ar  
    47   27   49 1   
    48   28   29 ar  
    49   28   50 1   
    50   29   30 ar  
    51   29   51 1   
    52   30   31 ar  
    53   30   52 1   
    54   31   32 1   
    55   32   33 1   
    56   32   53 1   
    57   32   54 1   
    58   33   55 1   
    59   33   56 1   
    60   33   58 1   
@<TRIPOS>SUBSTRUCTURE
     1 281         1 TEMP              0 ****  ****    0 ROOT
