@<TRIPOS>MOLECULE
281
   58    60     1     0     0
SMALL
bcc


@<TRIPOS>ATOM
      1 C35         0.6500   -0.2280    0.7300 ca        1 281      0.149000
      2 N42         1.7920   -0.7150    0.2630 n2        1 281     -0.411900
      3 S41         3.0070    0.0320    1.1370 s4        1 281      0.886600
      4 N40         2.1600    0.7140    2.3080 n2        1 281     -0.567900
      5 C36         0.8160    0.5530    2.0200 ca        1 281     -0.034000
      6 C37        -0.3090    0.9690    2.6750 ca        1 281     -0.104000
      7 C38        -1.5910    0.7570    2.0790 ca        1 281     -0.144000
      8 C39        -1.7310    0.2340    0.8330 ca        1 281     -0.048000
      9 C34        -0.6020   -0.2080    0.0490 ca        1 281     -0.669500
     10 S32        -0.6670   -0.4180   -1.4500 s4        1 281      1.693300
     11 O33        -1.7680    0.0630   -2.1060 o         1 281     -0.460400
     12 O32         0.1790   -1.2120   -2.1530 o         1 281     -0.460400
     13 N31         0.6160    1.7180   -1.9120 n3        1 281     -0.952800
     14 C27         2.0200    2.0090   -2.1940 c3        1 281     -0.155700
     15 C28         2.2430    2.9310   -3.4110 c3        1 281     -0.123700
     16 C30         2.4960    2.0940   -4.6510 c3        1 281     -0.091100
     17 C29         1.1090    3.9000   -3.6990 c3        1 281     -0.091100
     18 P24         2.8260    2.5930   -0.8400 p5        1 281      1.602100
     19 O25         3.3200    1.2970    0.0030 os        1 281     -0.664200
     20 O26         1.8770    3.2270    0.1050 o         1 281     -0.944300
     21 C15         4.2290    3.3520   -1.1250 c3        1 281     -0.465600
     22 C1          4.1000    4.8780   -1.0830 c3        1 281     -0.143400
     23 C2          4.9650    5.4790   -2.2410 c         1 281      0.930600
     24 O14         5.8380    6.3380   -1.9800 o         1 281     -0.808300
     25 O13         4.6930    5.0160   -3.3850 o         1 281     -0.808300
     26 C3          4.4010    5.3890    0.2890 ca        1 281     -0.030300
     27 C8          3.3340    5.4330    1.1960 ca        1 281     -0.123000
     28 C4          5.6910    5.6630    0.7600 ca        1 281     -0.057000
     29 C5          5.9070    5.8400    2.1300 ca        1 281     -0.144000
     30 C6          4.8720    5.6540    3.0470 ca        1 281     -0.112000
     31 C7          3.5780    5.4240    2.5720 ca        1 281     -0.196300
     32 C9          2.4500    4.9980    3.4500 c3        1 281      0.187100
     33 N10         1.9650    3.6500    3.0040 n4        1 281     -0.854600
     34 H37        -0.2570    1.4640    3.6550 ha        1 281      0.125000
     35 H38        -2.4780    1.0590    2.6570 ha        1 281      0.140000
     36 H39        -2.7290    0.1390    0.3720 ha        1 281      0.141000
     37 HN31        0.0770    1.8510   -2.7570 hn        1 281      0.381800
     38 H27         2.4670    1.0020   -2.4790 h1        1 281      0.123700
     39 H28         3.1690    3.5710   -3.2450 hc        1 281      0.142700
     40 H301        3.4080    1.4630   -4.5200 hc        1 281      0.042033
     41 H302        2.6610    2.7650   -5.5300 hc        1 281      0.042033
     42 H303        1.6260    1.4280   -4.8650 hc        1 281      0.042033
     43 H291        0.7500    4.4200   -2.7800 hc        1 281      0.042033
     44 H292        0.2420    3.3900   -4.1860 hc        1 281      0.042033
     45 H293        1.4860    4.6810   -4.4070 hc        1 281      0.042033
     46 H151        5.0170    3.0480   -0.3800 hc        1 281      0.141200
     47 H152        4.7180    3.1020   -2.1150 hc        1 281      0.141200
     48 H1          3.0340    5.1430   -1.3410 hc        1 281      0.045700
     49 H8          2.2970    5.3990    0.8190 ha        1 281      0.153000
     50 H4          6.5170    5.7500    0.0280 ha        1 281      0.202000
     51 H5          6.9160    6.0880    2.4920 ha        1 281      0.140000
     52 H6          5.0730    5.6870    4.1270 ha        1 281      0.125000
     53 H91         2.7710    4.9220    4.5260 hx        1 281      0.085700
     54 H92         1.5820    5.7120    3.3700 hx        1 281      0.085700
     55 H101        1.6530    3.6880    2.0080 hn        1 281      0.470467
     56 H102        1.1970    3.3180    3.5830 hn        1 281      0.470467
     57 H312        0.2840    2.3880   -1.2300 hn        1 281      0.381800
     58 H103        2.7310    2.9690    3.0500 hn        1 281      0.470467
@<TRIPOS>BOND
     1    1    2 2   
     2    1    5 ar  
     3    1    9 ar  
     4    2    3 1   
     5    3    4 1   
     6    3   19 1   
     7    4    5 2   
     8    5    6 ar  
     9    6    7 ar  
    10    6   34 1   
    11    7    8 ar  
    12    7   35 1   
    13    8    9 ar  
    14    8   36 1   
    15    9   10 1   
    16   10   11 1   
    17   10   12 1   
    18   13   14 1   
    19   13   37 1   
    20   13   57 1   
    21   14   15 1   
    22   14   18 1   
    23   14   38 1   
    24   15   16 1   
    25   15   17 1   
    26   15   39 1   
    27   16   40 1   
    28   16   41 1   
    29   16   42 1   
    30   17   43 1   
    31   17   44 1   
    32   17   45 1   
    33   18   19 1   
    34   18   20 2   
    35   18   21 1   
    36   21   22 1   
    37   21   46 1   
    38   21   47 1   
    39   22   23 1   
    40   22   26 1   
    41   22   48 1   
    42   23   24 1   
    43   23   25 1   
    44   26   27 ar  
    45   26   28 ar  
    46   27   31 ar  
    47   27   49 1   
    48   28   29 ar  
    49   28   50 1   
    50   29   30 ar  
    51   29   51 1   
    52   30   31 ar  
    53   30   52 1   
    54   31   32 1   
    55   32   33 1   
    56   32   53 1   
    57   32   54 1   
    58   33   55 1   
    59   33   56 1   
    60   33   58 1   
@<TRIPOS>SUBSTRUCTURE
     1 281         1 TEMP              0 ****  ****    0 ROOT
