@<TRIPOS>MOLECULE
282
   15    15     1     0     0
SMALL
bcc


@<TRIPOS>ATOM
      1 C1         -2.7440    0.4020   -0.0000 c3        1 282      0.111700
      2 O2         -1.7860   -0.6520    0.0000 os        1 282     -0.319900
      3 C3         -0.4640   -0.2650   -0.0000 ca        1 282      0.007800
      4 C4          0.4820   -1.3080    0.0000 ca        1 282     -0.122000
      5 C5          1.8310   -0.9660   -0.0000 ca        1 282     -0.214300
      6 C6          2.1890    0.3970   -0.0010 ca        1 282      0.357200
      7 N7          1.2930    1.3990   -0.0010 nb        1 282     -0.636000
      8 C8         -0.0130    1.0730   -0.0010 ca        1 282      0.324200
      9 H11        -2.6390    1.0290   -0.9190 h1        1 282      0.047700
     10 H12        -3.7240   -0.1390    0.0000 h1        1 282      0.047700
     11 H13        -2.6390    1.0290    0.9180 h1        1 282      0.047700
     12 H4          0.1470   -2.3540    0.0000 ha        1 282      0.154000
     13 H5          2.6070   -1.7430   -0.0000 ha        1 282      0.145000
     14 H6          3.2500    0.7010   -0.0010 h4        1 282      0.024100
     15 H8         -0.7180    1.9220   -0.0010 h4        1 282      0.025100
@<TRIPOS>BOND
     1    1    2 1   
     2    1    9 1   
     3    1   10 1   
     4    1   11 1   
     5    2    3 1   
     6    3    4 ar  
     7    3    8 ar  
     8    4    5 ar  
     9    4   12 1   
    10    5    6 ar  
    11    5   13 1   
    12    6    7 ar  
    13    6   14 1   
    14    7    8 ar  
    15    8   15 1   
@<TRIPOS>SUBSTRUCTURE
     1 282         1 TEMP              0 ****  ****    0 ROOT
