@<TRIPOS>MOLECULE
282
   15    13     1     0     0
SMALL
bcc


@<TRIPOS>ATOM
      1 C1         -0.0610   -0.1360   -2.5280 c3        1 282     -0.078000
      2 O2         -1.0110    0.1480   -1.4600 os        1 282     -0.203000
      3 C3         -0.4240    0.1880   -0.1700 c2        1 282      0.028000
      4 C4         -0.4240   -0.9220    0.6040 c2        1 282     -0.122000
      5 C5          0.0620   -0.8670    1.8730 c1        1 282     -0.149000
      6 C6          0.5580    0.3260    2.3740 c1        1 282     -0.108000
      7 N7          0.5570    1.4440    1.5940 n1        1 282     -0.110000
      8 C8          0.0720    1.3860    0.3300 c1        1 282     -0.141000
      9 H11        -0.5500   -0.4430   -3.3440 h1        1 282      0.087000
     10 H12         0.5510   -0.8300   -2.2360 h1        1 282      0.087000
     11 H13         0.4300    0.6550   -2.7320 h1        1 282      0.087000
     12 H4         -0.7770   -1.7780    0.2430 ha        1 282      0.154000
     13 H5          0.0620   -1.7040    2.4520 ha        1 282      0.145000
     14 H6          0.8820    0.3640    3.2200 ha        1 282      0.161000
     15 H8          0.0740    2.1700   -0.2210 ha        1 282      0.162000
@<TRIPOS>BOND
     1    1    2 1   
     2    1    9 1   
     3    1   10 1   
     4    1   11 1   
     5    2    3 1   
     6    3    4 1   
     7    3    8 1   
     8    4    5 1   
     9    4   12 1   
    10    5   13 1   
    11    6    7 1   
    12    6   14 1   
    13    8   15 1   
@<TRIPOS>SUBSTRUCTURE
     1 282         1 TEMP              0 ****  ****    0 ROOT
