@<TRIPOS>MOLECULE
282
   15    15     1     0     0
SMALL
bcc


@<TRIPOS>ATOM
      1 C1          0.0060    0.0010   -0.0400 c3        1 282      0.111700
      2 O2          1.4300   -0.0000   -0.0060 os        1 282     -0.319900
      3 C3          2.0020   -0.0000    1.2470 ca        1 282      0.007800
      4 C4          3.4100   -0.0020    1.2800 ca        1 282     -0.122000
      5 C5          4.0340   -0.0020    2.5230 ca        1 282     -0.214300
      6 C6          3.2390    0.0000    3.6860 ca        1 282      0.357200
      7 N7          1.8940    0.0020    3.6650 nb        1 282     -0.636000
      8 C8          1.2850    0.0020    2.4640 ca        1 282      0.324200
      9 H11        -0.4010   -0.9160    0.4510 h1        1 282      0.047700
     10 H12        -0.2270    0.0000   -1.1350 h1        1 282      0.047700
     11 H13        -0.3990    0.9200    0.4490 h1        1 282      0.047700
     12 H4          3.9820   -0.0040    0.3420 ha        1 282      0.154000
     13 H5          5.1300   -0.0040    2.6020 ha        1 282      0.145000
     14 H6          3.7030    0.0000    4.6880 h4        1 282      0.024100
     15 H8          0.1820    0.0040    2.4860 h4        1 282      0.025100
@<TRIPOS>BOND
     1    1    2 1   
     2    1    9 1   
     3    1   10 1   
     4    1   11 1   
     5    2    3 1   
     6    3    4 ar  
     7    3    8 ar  
     8    4    5 ar  
     9    4   12 1   
    10    5    6 ar  
    11    5   13 1   
    12    6    7 ar  
    13    6   14 1   
    14    7    8 ar  
    15    8   15 1   
@<TRIPOS>SUBSTRUCTURE
     1 282         1 TEMP              0 ****  ****    0 ROOT
