@<TRIPOS>MOLECULE
283
   37    38     1     0     0
SMALL
bcc


@<TRIPOS>ATOM
      1 C           0.0850    0.0470    0.1310 ca        1 283     -0.212500
      2 C1          1.4690    0.0270    0.1380 ca        1 283      0.020500
      3 C2          1.4870   -0.0740    2.5430 ca        1 283      0.020500
      4 C3          0.0970   -0.0560    2.5710 ca        1 283     -0.212500
      5 C4         -0.6080    0.0070    1.3600 ca        1 283      0.194100
      6 O          -1.9750    0.0360    1.2470 os        1 283     -0.314900
      7 C5         -2.7110   -0.0250    2.4880 c3        1 283      0.220500
      8 C6         -6.6720    0.0540    1.6170 c3        1 283     -0.027000
      9 C7         -5.2770    0.0280    1.9080 c1        1 283     -0.078100
     10 C8         -4.1080    0.0040    2.1630 c1        1 283     -0.168100
     11 C9          2.1960   -0.0290    1.3380 ca        1 283     -0.425500
     12 O1          4.3180   -0.6170    2.5540 o         1 283     -0.655800
     13 O2          4.2940   -0.7540    0.1500 o         1 283     -0.655800
     14 S           3.8750   -0.0850    1.3220 sy        1 283      1.529200
     15 C10         4.5830    2.3250    2.3640 c3        1 283      0.234800
     16 N           4.3110    1.4760    1.2250 n3        1 283     -0.830500
     17 C11         4.5220    2.1920   -0.0140 c3        1 283      0.245800
     18 C12         5.1460    3.5590    0.3240 c3        1 283      0.017400
     19 S1          4.1350    4.7850   -0.4630 sh        1 283     -0.364900
     20 C13         5.1650    3.6520    1.8460 c3        1 283     -0.086400
     21 H          -0.4850    0.0890   -0.8090 ha        1 283      0.152000
     22 H1          2.0180    0.0390   -0.8210 ha        1 283      0.154500
     23 H2          2.0480   -0.1410    3.4940 ha        1 283      0.154500
     24 H3         -0.4270   -0.0970    3.5360 ha        1 283      0.152000
     25 H51        -2.4460   -0.9800    3.0230 h1        1 283      0.061700
     26 H52        -2.4310    0.8630    3.1220 h1        1 283      0.061700
     27 H61        -7.1380    0.9980    2.0040 hc        1 283      0.061367
     28 H62        -7.1900   -0.8190    2.0940 hc        1 283      0.061367
     29 H63        -6.8390    0.0040    0.5100 hc        1 283      0.061367
     30 H101        5.3090    1.8110    3.0550 h1        1 283      0.050700
     31 H102        3.6330    2.5190    2.9360 h1        1 283      0.050700
     32 H111        5.2070    1.6000   -0.6850 h1        1 283      0.063200
     33 H112        3.5400    2.3350   -0.5510 h1        1 283      0.063200
     34 H12         6.1840    3.6190   -0.0830 h1        1 283      0.078700
     35 HS1         4.8920    5.8490   -0.2620 hs        1 283      0.200800
     36 H131        4.5470    4.5110    2.2050 hc        1 283      0.062200
     37 H132        6.2090    3.7900    2.2230 hc        1 283      0.062200
@<TRIPOS>BOND
     1    1    2 ar  
     2    1    5 ar  
     3    1   21 1   
     4    2   11 ar  
     5    2   22 1   
     6    3    4 ar  
     7    3   11 ar  
     8    3   23 1   
     9    4    5 ar  
    10    4   24 1   
    11    5    6 1   
    12    6    7 1   
    13    7   10 1   
    14    7   25 1   
    15    7   26 1   
    16    8    9 1   
    17    8   27 1   
    18    8   28 1   
    19    8   29 1   
    20    9   10 3   
    21   11   14 1   
    22   12   14 2   
    23   13   14 2   
    24   14   16 1   
    25   15   16 1   
    26   15   20 1   
    27   15   30 1   
    28   15   31 1   
    29   16   17 1   
    30   17   18 1   
    31   17   32 1   
    32   17   33 1   
    33   18   19 1   
    34   18   20 1   
    35   18   34 1   
    36   19   35 1   
    37   20   36 1   
    38   20   37 1   
@<TRIPOS>SUBSTRUCTURE
     1 283         1 TEMP              0 ****  ****    0 ROOT
