@<TRIPOS>MOLECULE
283
   37    38     1     0     0
SMALL
bcc


@<TRIPOS>ATOM
      1 C           0.0530    0.1180    0.1850 ca        1 283     -0.212500
      2 C1          1.4370    0.0830    0.1380 ca        1 283      0.020500
      3 C2          1.5480   -0.0230    2.5410 ca        1 283      0.020500
      4 C3          0.1610    0.0100    2.6240 ca        1 283     -0.212500
      5 C4         -0.5910    0.0840    1.4410 ca        1 283      0.194100
      6 O          -1.9610    0.1290    1.3810 os        1 283     -0.314900
      7 C5         -2.6480    0.0720    2.6510 c3        1 283      0.220500
      8 C6         -6.6390    0.1970    1.9370 c3        1 283     -0.027000
      9 C7         -5.2340    0.1540    2.1720 c1        1 283     -0.077100
     10 C8         -4.0560    0.1180    2.3800 c1        1 283     -0.168100
     11 C9          2.2100    0.0170    1.3090 ca        1 283     -0.425500
     12 O1          4.3670   -0.6460    2.4170 o         1 283     -0.656300
     13 O2          4.2530   -0.6780    0.0110 o         1 283     -0.656300
     14 S           3.8870   -0.0560    1.2260 sy        1 283      1.528200
     15 C10         4.6140    2.3160    2.3430 c3        1 283      0.231800
     16 N           4.3390    1.5020    1.1790 n3        1 283     -0.828500
     17 C11         4.5780    2.2490   -0.0360 c3        1 283      0.230800
     18 C12         5.2750    3.5690    0.3450 c3        1 283      0.015400
     19 S1          4.4460    5.0080   -0.2720 sh        1 283     -0.361900
     20 C13         5.2380    3.6400    1.8690 c3        1 283     -0.069400
     21 H          -0.5520    0.1670   -0.7310 ha        1 283      0.152000
     22 H1          1.9480    0.0900   -0.8420 ha        1 283      0.154000
     23 H2          2.1450   -0.0990    3.4690 ha        1 283      0.154000
     24 H3         -0.3260   -0.0270    3.6080 ha        1 283      0.152000
     25 H51        -2.3730   -0.8870    3.1720 h1        1 283      0.061700
     26 H52        -2.3330    0.9550    3.2750 h1        1 283      0.061700
     27 H61        -7.0950    1.0950    2.4300 hc        1 283      0.061367
     28 H62        -6.8480    0.2530    0.8360 hc        1 283      0.061367
     29 H63        -7.1350   -0.7220    2.3450 hc        1 283      0.061367
     30 H101        5.3150    1.7670    3.0330 h1        1 283      0.050200
     31 H102        3.6580    2.5200    2.9040 h1        1 283      0.050200
     32 H111        3.6010    2.4670   -0.5550 h1        1 283      0.057700
     33 H112        5.2230    1.6430   -0.7330 h1        1 283      0.057700
     34 H12         6.3280    3.5570   -0.0270 h1        1 283      0.078700
     35 HS1         4.7020    4.8740   -1.5610 hs        1 283      0.199800
     36 H131        6.2690    3.7590    2.2850 hc        1 283      0.068200
     37 H132        4.6220    4.5080    2.2170 hc        1 283      0.068200
@<TRIPOS>BOND
     1    1    2 ar  
     2    1    5 ar  
     3    1   21 1   
     4    2   11 ar  
     5    2   22 1   
     6    3    4 ar  
     7    3   11 ar  
     8    3   23 1   
     9    4    5 ar  
    10    4   24 1   
    11    5    6 1   
    12    6    7 1   
    13    7   10 1   
    14    7   25 1   
    15    7   26 1   
    16    8    9 1   
    17    8   27 1   
    18    8   28 1   
    19    8   29 1   
    20    9   10 3   
    21   11   14 1   
    22   12   14 2   
    23   13   14 2   
    24   14   16 1   
    25   15   16 1   
    26   15   20 1   
    27   15   30 1   
    28   15   31 1   
    29   16   17 1   
    30   17   18 1   
    31   17   32 1   
    32   17   33 1   
    33   18   19 1   
    34   18   20 1   
    35   18   34 1   
    36   19   35 1   
    37   20   36 1   
    38   20   37 1   
@<TRIPOS>SUBSTRUCTURE
     1 283         1 TEMP              0 ****  ****    0 ROOT
