@<TRIPOS>MOLECULE
283
   37    34     1     0     0
SMALL
bcc


@<TRIPOS>ATOM
      1 C          -1.3370   -0.3400   -1.1360 c1        1 283     -0.241000
      2 C1          0.0460   -0.2940   -1.0020 c1        1 283      0.026000
      3 C2         -0.1650   -0.6410    1.3700 c1        1 283     -0.084500
      4 C3         -1.5600   -0.6870    1.2350 c1        1 283     -0.084500
      5 C4         -2.1410   -0.5370   -0.0140 c1        1 283      0.149000
      6 O          -3.5140   -0.4830   -0.1330 os        1 283     -0.198000
      7 C5         -4.1080   -1.7340   -0.4360 c3        1 283      0.097000
      8 C6         -8.1800   -1.1750   -1.5390 c3        1 283     -0.118000
      9 C7         -6.7090   -1.3720   -1.1410 c1        1 283     -0.105000
     10 C8         -5.5600   -1.5290   -0.8300 c1        1 283     -0.195000
     11 C9          0.6310   -0.4450    0.2570 c1        1 283     -0.870000
     12 O1          0.9560    1.5960    2.0130 o         1 283     -0.543400
     13 O2          0.8350    2.2330   -0.1060 o         1 283     -0.543400
     14 S           1.3700    1.1780    0.7050 s4        1 283      2.084800
     15 C10         3.8740    1.6710   -0.6010 c3        1 283     -0.002000
     16 N           2.9990    1.1110    0.5930 n2        1 283     -0.850000
     17 C11         3.7730    0.3260    1.2680 c3        1 283      0.009000
     18 C12         5.2040    0.8570    1.0230 c3        1 283     -0.204000
     19 S1          6.2420   -0.4270    0.5840 sh        1 283     -0.011000
     20 C13         5.0830    1.8530   -0.1180 c3        1 283     -0.165000
     21 H          -1.7460   -0.2330   -2.0220 ha        1 283      0.144000
     22 H1          0.6200   -0.1540   -1.8030 ha        1 283      0.156000
     23 H2          0.2510   -0.7490    2.2650 ha        1 283      0.156500
     24 H3         -2.1070   -0.8220    1.9980 ha        1 283      0.156500
     25 H51        -3.6100   -2.1680   -1.2070 h1        1 283      0.101000
     26 H52        -4.0630   -2.3340    0.3720 h1        1 283      0.101000
     27 H61        -8.6350   -0.6810   -0.8520 hc        1 283      0.100667
     28 H62        -8.6060   -2.0440   -1.6510 hc        1 283      0.100667
     29 H63        -8.2260   -0.6830   -2.3770 hc        1 283      0.100667
     30 H101        3.8980    1.0280   -1.3280 h1        1 283      0.090000
     31 H102        3.4990    2.5380   -0.9230 h1        1 283      0.090000
     32 H111        3.5640    0.3700    2.1800 h1        1 283      0.102500
     33 H112        3.6910   -0.6060    0.9390 h1        1 283      0.102500
     34 H12         5.5380    1.3030    1.8260 h1        1 283      0.118000
     35 HS1         7.2430   -0.3490    1.1980 hs        1 283      0.029000
     36 H131        5.7730    1.6630   -0.8240 hc        1 283      0.101500
     37 H132        5.1780    2.7590    0.2140 hc        1 283      0.101500
@<TRIPOS>BOND
     1    1    5 1   
     2    1   21 1   
     3    2   11 1   
     4    2   22 1   
     5    3    4 1   
     6    3   23 1   
     7    4   24 1   
     8    5    6 1   
     9    6    7 1   
    10    7   10 1   
    11    7   25 1   
    12    7   26 1   
    13    8    9 1   
    14    8   27 1   
    15    8   28 1   
    16    8   29 1   
    17    9   10 1   
    18   11   14 1   
    19   12   14 1   
    20   13   14 1   
    21   15   16 1   
    22   15   20 1   
    23   15   30 1   
    24   15   31 1   
    25   16   17 1   
    26   17   18 1   
    27   17   32 1   
    28   17   33 1   
    29   18   19 1   
    30   18   20 1   
    31   18   34 1   
    32   19   35 1   
    33   20   36 1   
    34   20   37 1   
@<TRIPOS>SUBSTRUCTURE
     1 283         1 TEMP              0 ****  ****    0 ROOT
