@<TRIPOS>MOLECULE
283
   37    38     1     0     0
SMALL
bcc


@<TRIPOS>ATOM
      1 C           0.0940    0.0760    0.1220 ca        1 283     -0.212500
      2 C1          1.4770    0.0210    0.1310 ca        1 283      0.020500
      3 C2          1.4940    0.0650    2.5390 ca        1 283      0.020500
      4 C3          0.1050    0.1200    2.5650 ca        1 283     -0.212500
      5 C4         -0.5990    0.1290    1.3510 ca        1 283      0.194100
      6 O          -1.9650    0.1860    1.2350 os        1 283     -0.314900
      7 C5         -2.7010    0.2180    2.4770 c3        1 283      0.220500
      8 C6         -6.6600    0.3470    1.6000 c3        1 283     -0.027000
      9 C7         -5.2660    0.3020    1.8930 c1        1 283     -0.077100
     10 C8         -4.0970    0.2640    2.1490 c1        1 283     -0.168100
     11 C9          2.2030    0.0200    1.3330 ca        1 283     -0.425500
     12 O1          4.3060   -0.6020    2.5640 o         1 283     -0.656300
     13 O2          4.2850   -0.7770    0.1620 o         1 283     -0.656300
     14 S           3.8810   -0.0780    1.3220 sy        1 283      1.528200
     15 C10         4.5990    2.3470    2.3240 c3        1 283      0.231800
     16 N           4.3570    1.4680    1.2000 n3        1 283     -0.828500
     17 C11         4.6530    2.1380   -0.0470 c3        1 283      0.230800
     18 C12         5.3540    3.4700    0.2820 c3        1 283      0.015400
     19 S1          4.5710    4.8790   -0.4510 sh        1 283     -0.361900
     20 C13         5.2610    3.6320    1.7960 c3        1 283     -0.069400
     21 H          -0.4760    0.0750   -0.8180 ha        1 283      0.152000
     22 H1          2.0260   -0.0390   -0.8260 ha        1 283      0.154000
     23 H2          2.0530    0.0400    3.4920 ha        1 283      0.154000
     24 H3         -0.4200    0.1500    3.5290 ha        1 283      0.152000
     25 H51        -2.3980    1.1340    3.0570 h1        1 283      0.061700
     26 H52        -2.4610   -0.7110    3.0680 h1        1 283      0.061700
     27 H61        -7.1130    1.2960    1.9870 hc        1 283      0.061367
     28 H62        -7.1900   -0.5190    2.0740 hc        1 283      0.061367
     29 H63        -6.8260    0.3010    0.4920 hc        1 283      0.061367
     30 H101        3.6270    2.5960    2.8340 h1        1 283      0.050200
     31 H102        5.2660    1.8310    3.0710 h1        1 283      0.050200
     32 H111        5.3150    1.4840   -0.6820 h1        1 283      0.057700
     33 H112        3.6990    2.3370   -0.6150 h1        1 283      0.057700
     34 H12         6.4200    3.4220   -0.0480 h1        1 283      0.078700
     35 HS1         4.8740    4.6660   -1.7190 hs        1 283      0.199800
     36 H131        6.2770    3.7630    2.2430 hc        1 283      0.068200
     37 H132        4.6450    4.5270    2.0680 hc        1 283      0.068200
@<TRIPOS>BOND
     1    1    2 ar  
     2    1    5 ar  
     3    1   21 1   
     4    2   11 ar  
     5    2   22 1   
     6    3    4 ar  
     7    3   11 ar  
     8    3   23 1   
     9    4    5 ar  
    10    4   24 1   
    11    5    6 1   
    12    6    7 1   
    13    7   10 1   
    14    7   25 1   
    15    7   26 1   
    16    8    9 1   
    17    8   27 1   
    18    8   28 1   
    19    8   29 1   
    20    9   10 3   
    21   11   14 1   
    22   12   14 2   
    23   13   14 2   
    24   14   16 1   
    25   15   16 1   
    26   15   20 1   
    27   15   30 1   
    28   15   31 1   
    29   16   17 1   
    30   17   18 1   
    31   17   32 1   
    32   17   33 1   
    33   18   19 1   
    34   18   20 1   
    35   18   34 1   
    36   19   35 1   
    37   20   36 1   
    38   20   37 1   
@<TRIPOS>SUBSTRUCTURE
     1 283         1 TEMP              0 ****  ****    0 ROOT
