@<TRIPOS>MOLECULE
283
   37    38     1     0     0
SMALL
bcc


@<TRIPOS>ATOM
      1 C           1.6740    0.0450   -1.3650 ca        1 283     -0.212500
      2 C1          0.3810    0.5370   -1.3080 ca        1 283      0.020500
      3 C2          0.7360    1.2920    0.9510 ca        1 283      0.020500
      4 C3          2.0390    0.8090    0.9260 ca        1 283     -0.212500
      5 C4          2.5100    0.1790   -0.2360 ca        1 283      0.194100
      6 O           3.7690   -0.3450   -0.3910 os        1 283     -0.314900
      7 C5          4.6540   -0.2010    0.7410 c3        1 283      0.220500
      8 C6          8.2260   -1.8620   -0.2270 c3        1 283     -0.027000
      9 C7          6.9650   -1.2830    0.0990 c1        1 283     -0.078100
     10 C8          5.9110   -0.7930    0.3820 c1        1 283     -0.168100
     11 C9         -0.1140    1.1650   -0.1530 ca        1 283     -0.425500
     12 O1         -1.7510    2.7470    0.9150 o         1 283     -0.655800
     13 O2         -2.0220    2.2130   -1.4160 o         1 283     -0.655800
     14 S          -1.6750    1.7840   -0.1160 sy        1 283      1.529200
     15 C10        -2.9510    0.1380    1.6320 c3        1 283      0.234800
     16 N          -2.5890    0.5020    0.2800 n3        1 283     -0.830500
     17 C11        -3.1880   -0.4030   -0.6760 c3        1 283      0.245800
     18 C12        -4.1560   -1.3290    0.0830 c3        1 283      0.017400
     19 S1         -3.7030   -2.9910   -0.3400 sh        1 283     -0.364900
     20 C13        -3.9890   -0.9970    1.5620 c3        1 283     -0.086400
     21 H           2.0630   -0.4450   -2.2690 ha        1 283      0.152000
     22 H1         -0.2730    0.4520   -2.1940 ha        1 283      0.154500
     23 H2          0.3650    1.8040    1.8590 ha        1 283      0.154500
     24 H3          2.6800    0.9300    1.8100 ha        1 283      0.152000
     25 H51         4.7810    0.8950    0.9680 h1        1 283      0.061700
     26 H52         4.2030   -0.7300    1.6270 h1        1 283      0.061700
     27 H61         8.4640   -2.7070    0.4710 hc        1 283      0.061367
     28 H62         8.2110   -2.2610   -1.2750 hc        1 283      0.061367
     29 H63         9.0430   -1.0980   -0.1510 hc        1 283      0.061367
     30 H101       -2.0390   -0.2090    2.1950 h1        1 283      0.050700
     31 H102       -3.3730    1.0340    2.1670 h1        1 283      0.050700
     32 H111       -3.7390    0.1830   -1.4650 h1        1 283      0.063200
     33 H112       -2.3860   -1.0140   -1.1870 h1        1 283      0.063200
     34 H12        -5.2070   -1.1370   -0.2430 h1        1 283      0.078700
     35 HS1        -4.7200   -3.6360    0.2040 hs        1 283      0.200800
     36 H131       -3.6280   -1.8850    2.1370 hc        1 283      0.062200
     37 H132       -4.9590   -0.6620    2.0060 hc        1 283      0.062200
@<TRIPOS>BOND
     1    1    2 ar  
     2    1    5 ar  
     3    1   21 1   
     4    2   11 ar  
     5    2   22 1   
     6    3    4 ar  
     7    3   11 ar  
     8    3   23 1   
     9    4    5 ar  
    10    4   24 1   
    11    5    6 1   
    12    6    7 1   
    13    7   10 1   
    14    7   25 1   
    15    7   26 1   
    16    8    9 1   
    17    8   27 1   
    18    8   28 1   
    19    8   29 1   
    20    9   10 3   
    21   11   14 1   
    22   12   14 2   
    23   13   14 2   
    24   14   16 1   
    25   15   16 1   
    26   15   20 1   
    27   15   30 1   
    28   15   31 1   
    29   16   17 1   
    30   17   18 1   
    31   17   32 1   
    32   17   33 1   
    33   18   19 1   
    34   18   20 1   
    35   18   34 1   
    36   19   35 1   
    37   20   36 1   
    38   20   37 1   
@<TRIPOS>SUBSTRUCTURE
     1 283         1 TEMP              0 ****  ****    0 ROOT
