@<TRIPOS>MOLECULE
284
   21    21     1     0     0
SMALL
bcc


@<TRIPOS>ATOM
      1 N1         -0.0700   -0.1060   -0.0060 nu        1 284     -0.691000
      2 C2          1.3840   -0.0200    0.0020 c3        1 284      0.158800
      3 C3          1.9940    0.0810    1.3970 c3        1 284     -0.121400
      4 C4          1.4200    1.2620    2.1670 c3        1 284     -0.043500
      5 C7          1.6320    1.0890    3.6590 c3        1 284     -0.095100
      6 C5         -0.0200    1.5080    1.8690 c2        1 284     -0.089200
      7 C6         -0.6660    0.8320    0.8860 c2        1 284      0.055000
      8 N7         -2.0850    1.1460    0.5780 nz        1 284     -0.715400
      9 H1         -0.3860   -1.0410    0.1940 hn        1 284      0.394800
     10 H21         1.7800   -0.9340   -0.5250 h1        1 284      0.087200
     11 H22         1.6710    0.8860   -0.6030 h1        1 284      0.087200
     12 H31         1.8160   -0.8700    1.9660 hc        1 284      0.078700
     13 H32         3.1050    0.2050    1.3000 hc        1 284      0.078700
     14 H4          1.9650    2.2000    1.8380 hc        1 284      0.093700
     15 H71         2.7210    0.9430    3.8650 hc        1 284      0.057367
     16 H72         1.2830    1.9930    4.2130 hc        1 284      0.057367
     17 H73         1.0780    0.1980    4.0400 hc        1 284      0.057367
     18 H5         -0.4990    2.2960    2.4740 ha        1 284      0.158000
     19 H71A       -2.6680    0.3160    0.7300 hn        1 284      0.464800
     20 H72A       -2.1680    1.4320   -0.4070 hn        1 284      0.464800
     21 H731       -2.4090    1.9050    1.1830 hn        1 284      0.464800
@<TRIPOS>BOND
     1    1    2 1   
     2    1    7 1   
     3    1    9 1   
     4    2    3 1   
     5    2   10 1   
     6    2   11 1   
     7    3    4 1   
     8    3   12 1   
     9    3   13 1   
    10    4    5 1   
    11    4    6 1   
    12    4   14 1   
    13    5   15 1   
    14    5   16 1   
    15    5   17 1   
    16    6    7 2   
    17    6   18 1   
    18    7    8 1   
    19    8   19 1   
    20    8   20 1   
    21    8   21 1   
@<TRIPOS>SUBSTRUCTURE
     1 284         1 TEMP              0 ****  ****    0 ROOT
