@<TRIPOS>MOLECULE
284
   21    21     1     0     0
SMALL
bcc


@<TRIPOS>ATOM
      1 N1         -0.0750   -0.1110    0.0070 nh        1 284     -0.691000
      2 C2          1.3800   -0.0330    0.0130 c3        1 284      0.158800
      3 C3          1.9910    0.0740    1.4080 c3        1 284     -0.121400
      4 C4          1.4250    1.2640    2.1690 c3        1 284     -0.043500
      5 C7          1.6370    1.1000    3.6620 c3        1 284     -0.095100
      6 C5         -0.0140    1.5160    1.8710 c2        1 284     -0.089200
      7 C6         -0.6650    0.8370    0.8930 c2        1 284      0.055000
      8 N7         -2.0830    1.1570    0.5840 n4        1 284     -0.715400
      9 H1         -0.3960   -1.0420    0.2140 hn        1 284      0.394800
     10 H21         1.6720    0.8670   -0.5980 h1        1 284      0.087200
     11 H22         1.7700   -0.9530   -0.5080 h1        1 284      0.087200
     12 H31         3.1020    0.1910    1.3080 hc        1 284      0.078700
     13 H32         1.8080   -0.8720    1.9830 hc        1 284      0.078700
     14 H4          1.9750    2.1960    1.8330 hc        1 284      0.093700
     15 H71         1.0790    0.2140    4.0500 hc        1 284      0.057367
     16 H72         1.2940    2.0100    4.2100 hc        1 284      0.057367
     17 H73         2.7250    0.9490    3.8690 hc        1 284      0.057367
     18 H5         -0.4880    2.3110    2.4710 ha        1 284      0.158000
     19 H71A       -2.1640    1.4370   -0.4030 hn        1 284      0.464800
     20 H72A       -2.6700    0.3310    0.7420 hn        1 284      0.464800
     21 H731       -2.4010    1.9220    1.1850 hn        1 284      0.464800
@<TRIPOS>BOND
     1    1    2 1   
     2    1    7 1   
     3    1    9 1   
     4    2    3 1   
     5    2   10 1   
     6    2   11 1   
     7    3    4 1   
     8    3   12 1   
     9    3   13 1   
    10    4    5 1   
    11    4    6 1   
    12    4   14 1   
    13    5   15 1   
    14    5   16 1   
    15    5   17 1   
    16    6    7 2   
    17    6   18 1   
    18    7    8 1   
    19    8   19 1   
    20    8   20 1   
    21    8   21 1   
@<TRIPOS>SUBSTRUCTURE
     1 284         1 TEMP              0 ****  ****    0 ROOT
