@<TRIPOS>MOLECULE
284
   21    21     1     0     0
SMALL
bcc


@<TRIPOS>ATOM
      1 N1         -0.0790   -0.1160    0.0030 nh        1 284     -0.691000
      2 C2          1.3770   -0.0410    0.0080 c3        1 284      0.158800
      3 C3          1.9890    0.0690    1.4020 c3        1 284     -0.121400
      4 C4          1.4250    1.2620    2.1600 c3        1 284     -0.043500
      5 C7          1.6370    1.1010    3.6540 c3        1 284     -0.095100
      6 C5         -0.0130    1.5160    1.8610 c2        1 284     -0.089200
      7 C6         -0.6660    0.8360    0.8860 c2        1 284      0.055000
      8 N7         -2.0830    1.1580    0.5760 n4        1 284     -0.715400
      9 H1         -0.4010   -1.0460    0.2130 hn        1 284      0.394800
     10 H21         1.6700    0.8570   -0.6060 h1        1 284      0.087200
     11 H22         1.7640   -0.9630   -0.5100 h1        1 284      0.087200
     12 H31         3.1000    0.1840    1.3020 hc        1 284      0.078700
     13 H32         1.8040   -0.8750    1.9800 hc        1 284      0.078700
     14 H4          1.9770    2.1920    1.8220 hc        1 284      0.093700
     15 H71         1.0770    0.2180    4.0440 hc        1 284      0.057367
     16 H72         1.2960    2.0140    4.1990 hc        1 284      0.057367
     17 H73         2.7250    0.9500    3.8610 hc        1 284      0.057367
     18 H5         -0.4850    2.3150    2.4590 ha        1 284      0.158000
     19 H71A       -2.6720    0.3340    0.7390 hn        1 284      0.464800
     20 H72A       -2.1650    1.4330   -0.4110 hn        1 284      0.464800
     21 H731       -2.3990    1.9260    1.1740 hn        1 284      0.464800
@<TRIPOS>BOND
     1    1    2 1   
     2    1    7 1   
     3    1    9 1   
     4    2    3 1   
     5    2   10 1   
     6    2   11 1   
     7    3    4 1   
     8    3   12 1   
     9    3   13 1   
    10    4    5 1   
    11    4    6 1   
    12    4   14 1   
    13    5   15 1   
    14    5   16 1   
    15    5   17 1   
    16    6    7 2   
    17    6   18 1   
    18    7    8 1   
    19    8   19 1   
    20    8   20 1   
    21    8   21 1   
@<TRIPOS>SUBSTRUCTURE
     1 284         1 TEMP              0 ****  ****    0 ROOT
