@<TRIPOS>MOLECULE
284
   20    20     1     0     0
SMALL
bcc


@<TRIPOS>ATOM
      1 N1         -0.9470   -0.8020   -1.3350 nh        1 284     -0.727000
      2 C2          0.5970   -0.8020   -1.3350 c3        1 284      0.191800
      3 C3          1.1110   -0.8020   -0.2440 c3        1 284     -0.079400
      4 C4          0.6820    0.4320    0.7300 c3        1 284      0.000500
      5 C7          1.3300    0.2680    2.1440 c3        1 284     -0.084100
      6 C5         -0.7520    0.5800    0.8080 c2        1 284     -0.329200
      7 C6         -1.5720    0.1430   -0.5640 c2        1 284      0.261000
      8 N7         -2.4960    1.0420   -1.1550 nh        1 284     -0.814600
      9 H1         -1.4030   -1.2180   -2.0060 hn        1 284      0.385800
     10 H21         0.9020   -1.5930   -1.8170 h1        1 284      0.031200
     11 H22         0.9020   -0.0100   -1.8170 h1        1 284      0.031200
     12 H31         0.8800   -1.6380    0.2030 hc        1 284      0.051200
     13 H32         2.0800   -0.7740   -0.3630 hc        1 284      0.051200
     14 H4          1.0910    1.2680    0.4350 hc        1 284      0.038700
     15 H71         1.1050    1.0400    2.6970 hc        1 284      0.033033
     16 H72         0.9900   -0.5450    2.5650 hc        1 284      0.033033
     17 H73         2.3000    0.2050    2.0530 hc        1 284      0.033033
     18 H5         -1.1990    0.5500    1.6750 ha        1 284      0.130000
     19 H71A       -3.0820    0.7440   -1.7880 hn        1 284      0.380800
     20 H72A       -2.5220    1.9130   -0.8850 hn        1 284      0.380800
@<TRIPOS>BOND
     1    1    2 1   
     2    1    7 1   
     3    1    9 1   
     4    2    3 1   
     5    2   10 1   
     6    2   11 1   
     7    3    4 1   
     8    3   12 1   
     9    3   13 1   
    10    4    5 1   
    11    4    6 1   
    12    4   14 1   
    13    5   15 1   
    14    5   16 1   
    15    5   17 1   
    16    6    7 2   
    17    6   18 1   
    18    7    8 1   
    19    8   19 1   
    20    8   20 1   
@<TRIPOS>SUBSTRUCTURE
     1 284         1 TEMP              0 ****  ****    0 ROOT
