@<TRIPOS>MOLECULE
284
   20    20     1     0     0
SMALL
bcc


@<TRIPOS>ATOM
      1 N1          1.2900   -1.0720   -0.0700 nh        1 284     -0.715000
      2 C2          0.0590   -1.7720    0.2340 c3        1 284      0.172800
      3 C3         -1.2230   -1.0780   -0.2160 c3        1 284     -0.107400
      4 C4         -1.2760    0.3280    0.3660 c3        1 284     -0.004500
      5 C7         -2.3730    1.1350   -0.3010 c3        1 284     -0.084100
      6 C5          0.0350    1.0140    0.2470 c2        1 284     -0.309200
      7 C6          1.2040    0.3580   -0.0120 c2        1 284      0.238000
      8 N7          2.4060    1.0760   -0.2620 nh        1 284     -0.807600
      9 H1          1.6830   -1.3710   -0.9450 hn        1 284      0.381800
     10 H21         0.1120   -2.7990   -0.2250 h1        1 284      0.050700
     11 H22         0.0250   -1.8940    1.3550 h1        1 284      0.050700
     12 H31        -1.2660   -1.0300   -1.3340 hc        1 284      0.047200
     13 H32        -2.1050   -1.6710    0.1340 hc        1 284      0.047200
     14 H4         -1.5220    0.2430    1.4660 hc        1 284      0.045700
     15 H71        -3.3510    0.6070   -0.2040 hc        1 284      0.033700
     16 H72        -2.4600    2.1400    0.1790 hc        1 284      0.033700
     17 H73        -2.1520    1.2800   -1.3850 hc        1 284      0.033700
     18 H5          0.0130    2.1030    0.3860 ha        1 284      0.130000
     19 H71A        3.2320    0.5860    0.0120 hn        1 284      0.380800
     20 H72A        2.3750    1.9880    0.1440 hn        1 284      0.380800
@<TRIPOS>BOND
     1    1    2 1   
     2    1    7 1   
     3    1    9 1   
     4    2    3 1   
     5    2   10 1   
     6    2   11 1   
     7    3    4 1   
     8    3   12 1   
     9    3   13 1   
    10    4    5 1   
    11    4    6 1   
    12    4   14 1   
    13    5   15 1   
    14    5   16 1   
    15    5   17 1   
    16    6    7 2   
    17    6   18 1   
    18    7    8 1   
    19    8   19 1   
    20    8   20 1   
@<TRIPOS>SUBSTRUCTURE
     1 284         1 TEMP              0 ****  ****    0 ROOT
