@<TRIPOS>MOLECULE
285
   21    21     1     0     0
SMALL
bcc


@<TRIPOS>ATOM
      1 N1          0.4280   -0.9750    0.9970 n3        1 285     -0.812200
      2 C2         -0.8890   -0.6780    0.4160 c3        1 285      0.139500
      3 C2M        -1.2890   -1.6650   -0.6710 c3        1 285     -0.083100
      4 C3         -0.7920    0.7660   -0.1660 c3        1 285      0.117100
      5 C3M        -1.7220    1.7390    0.5220 c3        1 285     -0.103100
      6 O4          0.5620    1.1930    0.0450 os        1 285     -0.442600
      7 C5          1.3460    0.0760    0.5400 c3        1 285      0.355300
      8 C5M         2.2840   -0.3810   -0.5750 c3        1 285     -0.096100
      9 H1          0.3710   -0.9710    1.9970 hn        1 285      0.360800
     10 H2         -1.6800   -0.7080    1.2200 h1        1 285      0.050700
     11 H2M1       -1.3560   -2.6990   -0.2550 hc        1 285      0.042033
     12 H2M2       -2.2870   -1.3740   -1.0780 hc        1 285      0.042033
     13 H2M3       -0.5460   -1.6670   -1.5040 hc        1 285      0.042033
     14 H3         -0.9680    0.7660   -1.2750 h1        1 285      0.060700
     15 H3M1       -1.5460    1.7440    1.6240 hc        1 285      0.044033
     16 H3M2       -1.5440    2.7710    0.1350 hc        1 285      0.044033
     17 H3M3       -2.7810    1.4520    0.3220 hc        1 285      0.044033
     18 H5          1.9550    0.4960    1.3930 h2        1 285      0.055700
     19 H5M1        1.7090   -0.7800   -1.4420 hc        1 285      0.046367
     20 H5M2        2.8850    0.4960   -0.9150 hc        1 285      0.046367
     21 H5M3        2.9680   -1.1750   -0.1940 hc        1 285      0.046367
@<TRIPOS>BOND
     1    1    2 1   
     2    1    7 1   
     3    1    9 1   
     4    2    3 1   
     5    2    4 1   
     6    2   10 1   
     7    3   11 1   
     8    3   12 1   
     9    3   13 1   
    10    4    5 1   
    11    4    6 1   
    12    4   14 1   
    13    5   15 1   
    14    5   16 1   
    15    5   17 1   
    16    6    7 1   
    17    7    8 1   
    18    7   18 1   
    19    8   19 1   
    20    8   20 1   
    21    8   21 1   
@<TRIPOS>SUBSTRUCTURE
     1 285         1 TEMP              0 ****  ****    0 ROOT
