@<TRIPOS>MOLECULE
285
   21    21     1     0     0
SMALL
bcc


@<TRIPOS>ATOM
      1 N1          0.1970    0.7140   -0.2220 n3        1 285     -0.812200
      2 C2          1.5130    0.0860   -0.0390 c3        1 285      0.138500
      3 C2M         1.5250   -1.3810   -0.4450 c3        1 285     -0.083100
      4 C3          1.8620    0.2380    1.4730 c3        1 285      0.117100
      5 C3M         3.0850    1.0940    1.7100 c3        1 285     -0.103100
      6 O4          0.7280    0.8730    2.0840 os        1 285     -0.442600
      7 C5         -0.3520    0.9590    1.1180 c3        1 285      0.355300
      8 C5M        -1.4350   -0.0390    1.5210 c3        1 285     -0.096100
      9 H1          0.2950    1.5800   -0.7160 hn        1 285      0.360800
     10 H2          2.2860    0.6240   -0.6610 h1        1 285      0.050700
     11 H2M1        0.7850   -1.9690    0.1510 hc        1 285      0.042033
     12 H2M2        2.5450   -1.7990   -0.2670 hc        1 285      0.042033
     13 H2M3        1.2730   -1.4900   -1.5260 hc        1 285      0.042033
     14 H3          1.9790   -0.7660    1.9630 h1        1 285      0.060700
     15 H3M1        3.2330    1.2490    2.8050 hc        1 285      0.044033
     16 H3M2        2.9680    2.0940    1.2280 hc        1 285      0.044033
     17 H3M3        3.9850    0.5880    1.2880 hc        1 285      0.044033
     18 H5         -0.7550    2.0090    1.2170 h2        1 285      0.055700
     19 H5M1       -2.3210    0.0710    0.8530 hc        1 285      0.046367
     20 H5M2       -1.7350    0.1680    2.5760 hc        1 285      0.046367
     21 H5M3       -1.0570   -1.0870    1.4550 hc        1 285      0.046367
@<TRIPOS>BOND
     1    1    2 1   
     2    1    7 1   
     3    1    9 1   
     4    2    3 1   
     5    2    4 1   
     6    2   10 1   
     7    3   11 1   
     8    3   12 1   
     9    3   13 1   
    10    4    5 1   
    11    4    6 1   
    12    4   14 1   
    13    5   15 1   
    14    5   16 1   
    15    5   17 1   
    16    6    7 1   
    17    7    8 1   
    18    7   18 1   
    19    8   19 1   
    20    8   20 1   
    21    8   21 1   
@<TRIPOS>SUBSTRUCTURE
     1 285         1 TEMP              0 ****  ****    0 ROOT
