@<TRIPOS>MOLECULE
285
   21    21     1     0     0
SMALL
bcc


@<TRIPOS>ATOM
      1 N1          0.2040    0.7230   -0.2230 n7        1 285     -0.812200
      2 C2          1.5150    0.0860   -0.0380 c3        1 285      0.139500
      3 C2M         1.5200   -1.3800   -0.4480 c3        1 285     -0.083100
      4 C3          1.8600    0.2300    1.4760 c3        1 285      0.117100
      5 C3M         3.0870    1.0770    1.7200 c3        1 285     -0.103100
      6 O4          0.7280    0.8700    2.0850 os        1 285     -0.442600
      7 C5         -0.3480    0.9670    1.1160 c3        1 285      0.355300
      8 C5M        -1.4390   -0.0260    1.5120 c3        1 285     -0.096100
      9 H1          0.3100    1.5900   -0.7140 hn        1 285      0.360800
     10 H2          2.2940    0.6210   -0.6540 h1        1 285      0.050700
     11 H2M1        1.2710   -1.4840   -1.5310 hc        1 285      0.042033
     12 H2M2        0.7740   -1.9650    0.1430 hc        1 285      0.042033
     13 H2M3        2.5360   -1.8050   -0.2680 hc        1 285      0.042033
     14 H3          1.9680   -0.7770    1.9630 h1        1 285      0.060700
     15 H3M1        3.9860    0.5670    1.3000 hc        1 285      0.044033
     16 H3M2        3.2330    1.2270    2.8170 hc        1 285      0.044033
     17 H3M3        2.9790    2.0790    1.2420 hc        1 285      0.044033
     18 H5         -0.7450    2.0190    1.2170 h2        1 285      0.055700
     19 H5M1       -2.3220    0.0930    0.8410 hc        1 285      0.046367
     20 H5M2       -1.7410    0.1800    2.5660 hc        1 285      0.046367
     21 H5M3       -1.0680   -1.0750    1.4430 hc        1 285      0.046367
@<TRIPOS>BOND
     1    1    2 1   
     2    1    7 1   
     3    1    9 1   
     4    2    3 1   
     5    2    4 1   
     6    2   10 1   
     7    3   11 1   
     8    3   12 1   
     9    3   13 1   
    10    4    5 1   
    11    4    6 1   
    12    4   14 1   
    13    5   15 1   
    14    5   16 1   
    15    5   17 1   
    16    6    7 1   
    17    7    8 1   
    18    7   18 1   
    19    8   19 1   
    20    8   20 1   
    21    8   21 1   
@<TRIPOS>SUBSTRUCTURE
     1 285         1 TEMP              0 ****  ****    0 ROOT
