@<TRIPOS>MOLECULE
285
   21    21     1     0     0
SMALL
bcc


@<TRIPOS>ATOM
      1 N1         -0.7370   -0.1100   -0.8600 n3        1 285     -0.806200
      2 C2          0.5040   -0.1100   -0.8600 c3        1 285      0.130500
      3 C2M         1.0530   -1.3100   -1.7420 c3        1 285     -0.106100
      4 C3          0.9020   -0.1100    0.6240 c3        1 285      0.119100
      5 C3M         1.7370    0.9840    1.0510 c3        1 285     -0.106100
      6 O4         -0.3600   -0.1100    1.3740 os        1 285     -0.441600
      7 C5         -1.1680    0.5710    0.4740 c3        1 285      0.348300
      8 C5M        -2.6050    0.2570    0.7360 c3        1 285     -0.112100
      9 H1         -1.0410   -0.9690   -0.8750 hn        1 285      0.355800
     10 H2          0.8110    0.7260   -1.2590 h1        1 285      0.074700
     11 H2M1        0.6160   -1.3000   -2.6150 hc        1 285      0.044033
     12 H2M2        2.0170   -1.2130   -1.8600 hc        1 285      0.044033
     13 H2M3        0.8640   -2.1570   -1.2930 hc        1 285      0.044033
     14 H3          1.3720   -0.9440    0.8140 h1        1 285      0.059700
     15 H3M1        2.6490    0.8420    0.7310 hc        1 285      0.044367
     16 H3M2        1.7380    1.0320    2.0260 hc        1 285      0.044367
     17 H3M3        1.3910    1.8200    0.6850 hc        1 285      0.044367
     18 H5         -0.9900    1.5310    0.4720 h2        1 285      0.067700
     19 H5M1       -2.7100   -0.7040    0.8680 hc        1 285      0.049700
     20 H5M2       -2.9010    0.7290    1.5380 hc        1 285      0.049700
     21 H5M3       -3.1440    0.5420   -0.0260 hc        1 285      0.049700
@<TRIPOS>BOND
     1    1    2 1   
     2    1    7 1   
     3    1    9 1   
     4    2    3 1   
     5    2    4 1   
     6    2   10 1   
     7    3   11 1   
     8    3   12 1   
     9    3   13 1   
    10    4    5 1   
    11    4    6 1   
    12    4   14 1   
    13    5   15 1   
    14    5   16 1   
    15    5   17 1   
    16    6    7 1   
    17    7    8 1   
    18    7   18 1   
    19    8   19 1   
    20    8   20 1   
    21    8   21 1   
@<TRIPOS>SUBSTRUCTURE
     1 285         1 TEMP              0 ****  ****    0 ROOT
