@<TRIPOS>MOLECULE
285
   21    21     1     0     0
SMALL
bcc


@<TRIPOS>ATOM
      1 N1          0.2050    0.7000   -0.2360 n3        1 285     -0.812200
      2 C2          1.5110    0.0550   -0.0360 c3        1 285      0.139500
      3 C2M         1.5000   -1.4220   -0.4040 c3        1 285     -0.083100
      4 C3          1.8630    0.2390    1.4720 c3        1 285      0.117100
      5 C3M         3.0990    1.0820    1.6870 c3        1 285     -0.103100
      6 O4          0.7390    0.9080    2.0660 os        1 285     -0.442600
      7 C5         -0.3390    0.9870    1.0980 c3        1 285      0.355300
      8 C5M        -1.4380    0.0180    1.5260 c3        1 285     -0.096100
      9 H1          0.3180    1.5510   -0.7510 hn        1 285      0.360800
     10 H2          2.2930    0.5640   -0.6710 h1        1 285      0.050700
     11 H2M1        0.7500   -1.9820    0.2060 hc        1 285      0.042033
     12 H2M2        1.2460   -1.5540   -1.4830 hc        1 285      0.042033
     13 H2M3        2.5130   -1.8520   -0.2150 hc        1 285      0.042033
     14 H3          1.9640   -0.7530    1.9870 h1        1 285      0.060700
     15 H3M1        3.2500    1.2620    2.7780 hc        1 285      0.044033
     16 H3M2        3.9910    0.5500    1.2780 hc        1 285      0.044033
     17 H3M3        2.9990    2.0710    1.1790 hc        1 285      0.044033
     18 H5         -0.7250    2.0460    1.1700 h2        1 285      0.055700
     19 H5M1       -2.3220    0.1260    0.8550 hc        1 285      0.046367
     20 H5M2       -1.0780   -1.0370    1.4860 hc        1 285      0.046367
     21 H5M3       -1.7350    0.2570    2.5750 hc        1 285      0.046367
@<TRIPOS>BOND
     1    1    2 1   
     2    1    7 1   
     3    1    9 1   
     4    2    3 1   
     5    2    4 1   
     6    2   10 1   
     7    3   11 1   
     8    3   12 1   
     9    3   13 1   
    10    4    5 1   
    11    4    6 1   
    12    4   14 1   
    13    5   15 1   
    14    5   16 1   
    15    5   17 1   
    16    6    7 1   
    17    7    8 1   
    18    7   18 1   
    19    8   19 1   
    20    8   20 1   
    21    8   21 1   
@<TRIPOS>SUBSTRUCTURE
     1 285         1 TEMP              0 ****  ****    0 ROOT
