@<TRIPOS>MOLECULE
286
   19    19     1     0     0
SMALL
bcc


@<TRIPOS>ATOM
      1 C1N        -0.0070    0.0580    0.0230 c3        1 286     -0.031400
      2 N1          1.4470    0.0020    0.0090 na        1 286      0.026900
      3 C2          2.1480   -0.1170    1.1920 ca        1 286      0.075900
      4 C3          3.5600   -0.1690    1.1620 ca        1 286     -0.150000
      5 C21         1.4320   -0.2100    2.4660 ce        1 286     -0.210200
      6 C22         1.8760    0.3560    3.5920 c2        1 286     -0.086000
      7 C4          4.2460   -0.1040   -0.0480 ca        1 286     -0.007000
      8 C5          3.5150    0.0090   -1.2380 ca        1 286     -0.143000
      9 C6          2.1230    0.0590   -1.1830 ca        1 286     -0.028300
     10 H1N1       -0.3910    0.3640   -0.9870 h1        1 286      0.099033
     11 H1N2       -0.3450    0.8090    0.7890 h1        1 286      0.099033
     12 H1N3       -0.4150   -0.9570    0.2850 h1        1 286      0.099033
     13 H3          4.1020   -0.2730    2.1180 ha        1 286      0.194000
     14 H21         0.4990   -0.8030    2.4570 ha        1 286      0.165000
     15 H221        2.7930    0.9620    3.6490 ha        1 286      0.149000
     16 H222        1.3260    0.2490    4.5410 ha        1 286      0.149000
     17 H4          5.3500   -0.1460   -0.0710 ha        1 286      0.192000
     18 H5          4.0200    0.0590   -2.2180 ha        1 286      0.200000
     19 H6          1.5100    0.1480   -2.1040 h4        1 286      0.207000
@<TRIPOS>BOND
     1    1    2 1   
     2    1   10 1   
     3    1   11 1   
     4    1   12 1   
     5    2    3 1   
     6    2    9 2   
     7    3    4 ar  
     8    3    5 1   
     9    4    7 ar  
    10    4   13 1   
    11    5    6 2   
    12    5   14 1   
    13    6   15 1   
    14    6   16 1   
    15    7    8 ar  
    16    7   17 1   
    17    8    9 ar  
    18    8   18 1   
    19    9   19 1   
@<TRIPOS>SUBSTRUCTURE
     1 286         1 TEMP              0 ****  ****    0 ROOT
