@<TRIPOS>MOLECULE
286
   19    16     1     0     0
SMALL
bcc


@<TRIPOS>ATOM
      1 C1N        -1.9180    0.1690   -0.7100 c3        1 286     -0.130000
      2 N1         -0.4940    0.1690   -0.7100 n3        1 286     -0.041000
      3 C2          0.1860    0.1690    0.4710 c2        1 286      0.112000
      4 C3          1.5730    0.1690    0.4720 c1        1 286     -0.150000
      5 C21        -0.5710    0.1970    1.7800 c2        1 286     -0.222000
      6 C22        -0.6830   -0.9250    2.5180 c1        1 286     -0.086000
      7 C4          2.2560    0.1690   -0.7100 c1        1 286     -0.075000
      8 C5          1.5730    0.1690   -1.8910 c1        1 286     -0.075000
      9 C6          0.1860    0.1690   -1.8900 c1        1 286     -0.004000
     10 H1N1       -2.2440    0.9560   -0.2330 h1        1 286      0.138333
     11 H1N2       -2.2440    0.1880   -1.6300 h1        1 286      0.138333
     12 H1N3       -2.2440   -0.6380   -0.2660 h1        1 286      0.138333
     13 H3          2.0600    0.1690    1.3180 ha        1 286      0.194000
     14 H21        -0.9770    1.0290    2.0910 ha        1 286      0.165000
     15 H221       -0.2770   -1.7560    2.2080 DU        1 286      0.137000
     16 H222       -1.1720   -0.9060    3.3630 ha        1 286      0.161000
     17 H4          3.2320    0.1690   -0.7100 ha        1 286      0.196000
     18 H5          2.0600    0.1690   -2.7370 ha        1 286      0.196000
     19 H6         -0.3020    0.1690   -2.7350 ha        1 286      0.207000
@<TRIPOS>BOND
     1    1    2 1   
     2    1   10 1   
     3    1   11 1   
     4    1   12 1   
     5    2    3 1   
     6    2    9 1   
     7    3    4 1   
     8    3    5 1   
     9    4   13 1   
    10    5    6 1   
    11    5   14 1   
    12    6   16 1   
    13    7    8 1   
    14    7   17 1   
    15    8   18 1   
    16    9   19 1   
@<TRIPOS>SUBSTRUCTURE
     1 286         1 TEMP              0 ****  ****    0 ROOT
