@<TRIPOS>MOLECULE
286
   19    19     1     0     0
SMALL
bcc


@<TRIPOS>ATOM
      1 C1N         0.1710    2.2960   -0.0420 c3        1 286     -0.031400
      2 N1         -0.3540    0.9400    0.0130 na        1 286      0.026900
      3 C2          0.5070   -0.1340    0.1280 ca        1 286      0.075900
      4 C3         -0.0180   -1.4440    0.1790 ca        1 286     -0.150000
      5 C21         1.9510    0.0890    0.2170 ce        1 286     -0.210200
      6 C22         2.8470   -0.7220   -0.3530 c2        1 286     -0.086000
      7 C4         -1.3930   -1.6600    0.1180 ca        1 286     -0.007000
      8 C5         -2.2500   -0.5570    0.0080 ca        1 286     -0.143000
      9 C6         -1.7080    0.7270   -0.0400 ca        1 286     -0.028300
     10 H1N1        1.0050    2.3440   -0.7940 h1        1 286      0.099033
     11 H1N2       -0.6400    3.0120   -0.3440 h1        1 286      0.099033
     12 H1N3        0.5620    2.5840    0.9730 h1        1 286      0.099033
     13 H3          0.6850   -2.2880    0.2790 ha        1 286      0.194000
     14 H21         2.2730    0.9650    0.8110 ha        1 286      0.165000
     15 H221        3.9290   -0.5420   -0.2490 ha        1 286      0.149000
     16 H222        2.5760   -1.5990   -0.9600 ha        1 286      0.149000
     17 H4         -1.8020   -2.6860    0.1580 ha        1 286      0.192000
     18 H5         -3.3450   -0.6850   -0.0390 ha        1 286      0.200000
     19 H6         -2.3550    1.6250   -0.1260 h4        1 286      0.207000
@<TRIPOS>BOND
     1    1    2 1   
     2    1   10 1   
     3    1   11 1   
     4    1   12 1   
     5    2    3 1   
     6    2    9 2   
     7    3    4 ar  
     8    3    5 1   
     9    4    7 ar  
    10    4   13 1   
    11    5    6 2   
    12    5   14 1   
    13    6   15 1   
    14    6   16 1   
    15    7    8 ar  
    16    7   17 1   
    17    8    9 ar  
    18    8   18 1   
    19    9   19 1   
@<TRIPOS>SUBSTRUCTURE
     1 286         1 TEMP              0 ****  ****    0 ROOT
