@<TRIPOS>MOLECULE
287
   62    59     1     0     0
SMALL
bcc


@<TRIPOS>ATOM
      1 C1          0.0200    0.6640    0.3580 c2        1 287      0.211000
      2 C2          0.9870    0.0560   -0.4310 c1        1 287     -0.253000
      3 C3          0.0710    0.9350    1.7000 c2        1 287     -0.261000
      4 C4          2.4120    7.7370   13.3390 c2        1 287     -0.482000
      5 C5          1.7700   -0.4640   -1.1850 c1        1 287      0.001000
      6 C6          1.0990    0.6740    2.6200 c2        1 287      0.175000
      7 C7          3.0010    8.6270   14.1140 c1        1 287      0.269000
      8 C8          1.3090    5.5480   12.9440 c2        1 287     -0.055000
      9 C9         -1.2000    2.3390    7.3810 c1        1 287     -0.116000
     10 C10         1.5080    6.6630   13.6780 c2        1 287     -0.065000
     11 C11         0.2070    2.1870    7.4870 c2        1 287     -0.114000
     12 C12         2.3400    0.0750    2.3550 c2        1 287     -0.283000
     13 C13         3.3940    5.4160   11.6550 c2        1 287     -0.119000
     14 C14         0.9980    3.1300    8.0600 c2        1 287      0.078000
     15 C15         2.0630    5.1640   11.7470 c2        1 287     -0.029000
     16 C16         0.4130    4.3720    8.5260 c2        1 287     -0.287000
     17 C17        -0.8520    6.4270   10.9200 c1        1 287      0.027000
     18 C18         0.6480    4.9940    9.7260 c2        1 287      0.160000
     19 C20         0.7470    0.9210    6.8970 c2        1 287      0.376000
     20 C22         2.4670    2.9400    8.1540 c3        1 287     -0.224000
     21 C23         4.5600   -0.7500    3.1330 c3        1 287     -0.259000
     22 C24        -3.0270    7.1820   14.2470 c2        1 287      0.295000
     23 C25         3.2540   -0.1320    3.3560 c2        1 287      0.110000
     24 N26        -1.6130    6.5840   11.7930 n1        1 287     -0.166000
     25 N27         0.0930    6.3070    9.9450 n3        1 287     -0.183000
     26 N28        -2.3530    2.4650    7.2920 n1        1 287      0.000000
     27 N29         1.3520    4.3860   10.7830 n3        1 287     -0.239000
     28 N30         0.4450   -0.2450    7.5350 n         1 287     -0.400000
     29 N31         1.3360    7.1730   16.0820 n         1 287     -0.378000
     30 O32        -0.5540    6.6990   14.9280 o         1 287     -0.534000
     31 O33         1.4440    0.9160    5.8530 o         1 287     -0.445000
     32 O34        -2.8960    5.9100   14.3330 oh        1 287     -0.081000
     33 H1         -0.8280    1.4290    2.1300 ha        1 287      0.174000
     34 H2          2.4590   -0.9240   -1.8580 ha        1 287      0.260000
     35 H3         -0.9050    0.9570   -0.1950 ha        1 287      0.182000
     36 H4          2.6390    7.8340   12.2470 ha        1 287      0.217000
     37 H5          2.5820   -0.2350    1.3220 ha        1 287      0.167000
     38 H6          0.8990    0.9810    3.6770 ha        1 287      0.185000
     39 H7          3.9030    5.9200   12.4960 ha        1 287      0.156000
     40 H8          0.5360    4.8250   13.2690 ha        1 287      0.149000
     41 H9         -0.3110    4.8170    7.8180 ha        1 287      0.164000
     42 H17        -0.1670    6.7720    9.0890 hn        1 287      0.253000
     43 H211        4.2100    3.9250   10.3400 hc        1 287      0.101000
     44 H212        3.9360    5.5560    9.5870 hc        1 287      0.101000
     45 H213        5.3210    5.3010   10.7260 hc        1 287      0.101000
     46 H221        2.9900    3.9110    8.3420 hc        1 287      0.109333
     47 H222        2.7220    2.2260    8.9790 hc        1 287      0.109333
     48 H223        2.8600    2.5090    7.1960 hc        1 287      0.109333
     49 H231        4.6540   -1.6750    3.7660 hc        1 287      0.136667
     50 H232        5.3730   -0.0450    3.4570 hc        1 287      0.136667
     51 H233        4.7370   -1.0310    2.0650 hc        1 287      0.136667
     52 H241       -2.1760    7.8770   14.0770 h4        1 287      0.209500
     53 H242       -1.9630    5.5690   14.2190 ho        1 287      0.345000
     54 H243       -4.0780    7.5360   14.3710 h4        1 287      0.209500
     55 H25         0.7590   -1.1100    7.1670 hn        1 287      0.242500
     56 H29         1.8870    3.5960   10.4690 hn        1 287      0.222000
     57 H30         3.0170    0.1730    4.4000 ha        1 287      0.178000
     58 H31         2.3220    7.2760   16.1220 hn        1 287      0.253000
     59 C19         0.7020    6.8410   14.9290 c2        1 287      0.384000
     60 H302       -0.1390   -0.2560    8.3340 hn        1 287      0.242500
     61 H312        0.8150    7.2950   16.9200 hn        1 287      0.253000
     62 C21         4.2550    5.0300   10.5240 c3        1 287     -0.212000
@<TRIPOS>BOND
     1    1    2 1   
     2    1    3 1   
     3    1   35 1   
     4    2    5 1   
     5    3    6 1   
     6    3   33 1   
     7    4    7 1   
     8    4   10 1   
     9    4   36 1   
    10    5   34 1   
    11    6   12 1   
    12    6   38 1   
    13    8   10 1   
    14    8   15 1   
    15    8   40 1   
    16    9   11 1   
    17    9   26 1   
    18   10   59 1   
    19   11   14 1   
    20   11   19 1   
    21   12   23 1   
    22   12   37 1   
    23   13   15 1   
    24   13   39 1   
    25   13   62 1   
    26   14   16 1   
    27   14   20 1   
    28   15   27 1   
    29   16   18 1   
    30   16   41 1   
    31   17   24 1   
    32   17   25 1   
    33   18   25 1   
    34   18   27 1   
    35   19   28 1   
    36   19   31 1   
    37   20   46 1   
    38   20   47 1   
    39   20   48 1   
    40   21   23 1   
    41   21   49 1   
    42   21   50 1   
    43   21   51 1   
    44   22   32 1   
    45   22   52 1   
    46   22   54 1   
    47   23   57 1   
    48   25   42 1   
    49   27   56 1   
    50   28   55 1   
    51   28   60 1   
    52   29   58 1   
    53   29   59 1   
    54   29   61 1   
    55   30   59 1   
    56   32   53 1   
    57   43   62 1   
    58   44   62 1   
    59   45   62 1   
@<TRIPOS>SUBSTRUCTURE
     1 287         1 TEMP              0 ****  ****    0 ROOT
