@<TRIPOS>MOLECULE
287
   60    63     1     0     0
SMALL
bcc


@<TRIPOS>ATOM
      1 C1          8.8520   -1.4180   -1.3190 ca        1 287     -0.126000
      2 C2          8.6720   -0.0380   -1.3990 ca        1 287     -0.129500
      3 C3          8.0890   -2.1670   -0.4220 ca        1 287     -0.129500
      4 C4         -6.2150    1.6800   -0.5820 ca        1 287     -0.100000
      5 C5          7.7320    0.5950   -0.5860 ca        1 287     -0.120000
      6 C6          7.1510   -1.5370    0.3930 ca        1 287     -0.120000
      7 C7         -5.3070    2.6430   -1.0120 ca        1 287     -0.127000
      8 C8         -4.3750    0.3150    0.2140 ca        1 287     -0.059000
      9 C9          2.1570   -0.9870   -0.3480 cc        1 287     -0.081100
     10 C10        -5.7450    0.5140    0.0270 ca        1 287     -0.146600
     11 C11         2.3290    0.3330    0.1370 cd        1 287     -0.212200
     12 C12         6.9700   -0.1520    0.3180 ca        1 287     -0.105300
     13 C13        -3.9290    2.4610   -0.8630 ca        1 287     -0.080300
     14 C14         1.0460    0.9600    0.2170 cd        1 287     -0.018200
     15 C15        -3.4520    1.2780   -0.2400 ca        1 287      0.124600
     16 C16         0.0980    0.0080   -0.2210 cc        1 287     -0.283600
     17 C17        -1.1350   -2.2080   -1.1410 cc        1 287      0.642900
     18 C18        -1.3590   -0.0240   -0.3900 cc        1 287      0.755200
     19 C20         3.6200    0.9490    0.4790 c         1 287      0.709300
     20 C21        -2.9970    3.5070   -1.3460 c3        1 287     -0.064800
     21 C22         0.7850    2.3260    0.6760 c3        1 287     -0.059900
     22 C23         6.3630    0.3500    2.6700 c3        1 287     -0.103100
     23 C24        -9.4220   -1.9550    1.0000 c3        1 287      0.114700
     24 C25         5.9620    0.5460    1.2040 c3        1 287      0.145000
     25 N26         0.1940   -2.2980   -1.0270 nd        1 287     -0.549800
     26 N27        -1.9670   -1.1370   -0.8590 nd        1 287     -0.785000
     27 N28         0.8070   -1.1950   -0.5690 na        1 287      0.217200
     28 N29        -2.0670    1.1080   -0.0210 nh        1 287     -0.727300
     29 N30         4.6110    0.1000    0.9360 n         1 287     -0.567900
     30 N31        -7.8470   -0.7630   -0.2670 n         1 287     -0.355400
     31 O32        -6.4940   -1.1280    1.5990 o         1 287     -0.546100
     32 O33         3.8200    2.1800    0.3900 o         1 287     -0.618100
     33 O34        -8.4480   -1.9460   -0.0650 os        1 287     -0.267900
     34 H1          9.5930   -1.9160   -1.9620 ha        1 287      0.132000
     35 H2          9.2700    0.5550   -2.1070 ha        1 287      0.133000
     36 H3          8.2290   -3.2560   -0.3580 ha        1 287      0.133000
     37 H4         -7.2940    1.8530   -0.7100 ha        1 287      0.148000
     38 H5          7.5880    1.6840   -0.6590 ha        1 287      0.133000
     39 H6          6.5580   -2.1310    1.1040 ha        1 287      0.133000
     40 H7         -5.6790    3.5650   -1.4850 ha        1 287      0.141000
     41 H8         -4.0350   -0.6010    0.7260 ha        1 287      0.174000
     42 H9          2.8980   -1.7600   -0.5630 h4        1 287      0.190000
     43 H17        -1.6530   -3.1150   -1.5190 h5        1 287      0.067100
     44 H211       -2.4450    3.9700   -0.4890 hc        1 287      0.051367
     45 H212       -2.2500    3.0750   -2.0580 hc        1 287      0.051367
     46 H213       -3.5490    4.3220   -1.8780 hc        1 287      0.051367
     47 H221        0.3350    2.9410   -0.1450 hc        1 287      0.060367
     48 H222        0.0910    2.3270    1.5540 hc        1 287      0.060367
     49 H223        1.7420    2.8240    0.9840 hc        1 287      0.060367
     50 H231        6.3320   -0.7270    2.9580 hc        1 287      0.043700
     51 H232        7.4040    0.7270    2.8100 hc        1 287      0.043700
     52 H233        5.6790    0.9220    3.3410 hc        1 287      0.043700
     53 H241       -9.8110   -3.0020    0.9510 h1        1 287      0.051367
     54 H242       -8.9260   -1.7560    1.9800 h1        1 287      0.051367
     55 H243      -10.2340   -1.2160    0.8050 h1        1 287      0.051367
     56 H25         5.9960    1.6600    0.9850 h1        1 287      0.094700
     57 H29        -1.5340    1.9470    0.0760 hn        1 287      0.453800
     58 H30         4.4420   -0.8760    0.9710 hn        1 287      0.307500
     59 H31        -7.6600   -0.6870   -1.2610 hn        1 287      0.297500
     60 C19        -6.6740   -0.5400    0.5210 c         1 287      0.616700
@<TRIPOS>BOND
     1    1    2 ar  
     2    1    3 ar  
     3    1   34 1   
     4    2    5 ar  
     5    2   35 1   
     6    3    6 ar  
     7    3   36 1   
     8    4    7 ar  
     9    4   10 ar  
    10    4   37 1   
    11    5   12 ar  
    12    5   38 1   
    13    6   12 ar  
    14    6   39 1   
    15    7   13 ar  
    16    7   40 1   
    17    8   10 ar  
    18    8   15 ar  
    19    8   41 1   
    20    9   11 2   
    21    9   27 1   
    22    9   42 1   
    23   10   60 1   
    24   11   14 1   
    25   11   19 1   
    26   12   24 1   
    27   13   15 ar  
    28   13   20 1   
    29   14   16 2   
    30   14   21 1   
    31   15   28 1   
    32   16   18 1   
    33   16   27 1   
    34   17   25 2   
    35   17   26 1   
    36   17   43 1   
    37   18   26 2   
    38   18   28 1   
    39   19   29 1   
    40   19   32 2   
    41   20   44 1   
    42   20   45 1   
    43   20   46 1   
    44   21   47 1   
    45   21   48 1   
    46   21   49 1   
    47   22   24 1   
    48   22   50 1   
    49   22   51 1   
    50   22   52 1   
    51   23   33 1   
    52   23   53 1   
    53   23   54 1   
    54   23   55 1   
    55   24   29 1   
    56   24   56 1   
    57   25   27 1   
    58   28   57 1   
    59   29   58 1   
    60   30   33 1   
    61   30   59 1   
    62   30   60 1   
    63   31   60 2   
@<TRIPOS>SUBSTRUCTURE
     1 287         1 TEMP              0 ****  ****    0 ROOT
