@<TRIPOS>MOLECULE
287
   62    83     1     0     0
SMALL
bcc


@<TRIPOS>ATOM
      1 C1          0.0000    0.0000    0.0000 c3        1 287      0.064000
      2 C2          1.3820    0.0000    0.0000 c3        1 287     -0.051000
      3 C3         -0.6910    0.0060    1.1970 c3        1 287     -0.245000
      4 C4          2.0680    6.9860   13.7450 c2        1 287     -0.193000
      5 C5          2.0730    0.0000    1.1970 c3        1 287      0.188000
      6 C6         -0.0010    0.0070    2.3940 c2        1 287     -0.031000
      7 C7          3.2580    6.8590   13.0560 c3        1 287      0.166000
      8 C8          0.9610    5.6470   12.0690 c2        1 287     -0.048000
      9 C9          0.1450    2.6930    6.6080 c2        1 287     -0.192000
     10 C10         0.9110    6.3790   13.2550 c3        1 287     -0.262000
     11 C11         1.4840    2.3400    6.6180 c2        1 287     -0.390000
     12 C12         1.3820    0.0000    2.3950 c3        1 287     -0.320000
     13 C13         3.3080    6.1330   11.8810 DU        1 287      0.491000
     14 C14         2.0800    2.9930    7.7170 c2        1 287     -0.027000
     15 C15         2.1600    5.5260   11.3850 c3        1 287     -0.338000
     16 C16         1.0860    3.7190    8.3340 c3        1 287     -0.601000
     17 C17        -1.2010    4.9340    9.1440 c2        1 287     -0.219000
     18 C18         1.0640    4.5660    9.4700 c2        1 287      0.178000
     19 C20         2.1620    1.4470    5.6590 c3        1 287      0.323000
     20 C22         3.5260    2.9130    8.1350 c3        1 287      0.051000
     21 C23         2.1730   -1.4220    4.2660 c3        1 287     -0.113000
     22 C24        -1.5320    8.1140   17.0450 c3        1 287      0.601000
     23 C25         2.1350   -0.0000    3.7000 DU        1 287      0.044000
     24 N26        -1.2490    4.1720    8.0870 n2        1 287     -0.141000
     25 N27        -0.0750    5.1360    9.8270 n7        1 287     -0.111000
     26 N28        -0.0900    3.5240    7.6340 nx        1 287      0.545000
     27 N29         2.2160    4.7930   10.1960 n7        1 287     -0.369000
     28 N30         1.4640    0.8870    4.6520 ny        1 287      0.029000
     29 N31        -0.4110    7.2220   15.1360 ny        1 287     -0.020000
     30 O32        -1.3720    5.9850   13.5620 o         1 287     -0.174000
     31 O33         3.3490    1.2150    5.7790 o         1 287     -0.344000
     32 O34        -1.6320    7.3490   15.8420 os        1 287      0.577000
     33 H1         -0.0420    0.4560    0.9820 DU        1 287      0.137500
     34 H2          1.5750    0.5880    0.8890 DU        1 287     -0.021000
     35 H3         -0.6170   -0.0130    0.1170 DU        1 287      0.137500
     36 H4          2.0590    6.5210   12.7670 DU        1 287      0.285000
     37 H5          0.9900   -0.0040    1.1970 DU        1 287      0.062000
     38 H6          0.1510    0.5690    3.3080 ha        1 287      0.150000
     39 H7          3.2500    6.3160   12.1190 hc        1 287     -0.593000
     40 H8          0.8050    5.0660   11.1690 ha        1 287      0.198000
     41 H9          0.6200    3.2360    7.4160 DU        1 287      0.303000
     42 H17        -0.7200    5.0250   10.1110 DU        1 287      0.286000
     43 H211        3.9270    5.5210   10.4450 DU        1 287      0.127000
     44 H212        3.5630    5.9110   10.8760 DU        1 287      0.248000
     45 H213        4.0360    6.9030   11.3080 DU        1 287      0.045000
     46 H221        3.6070    3.8930    8.5890 hc        1 287      0.085333
     47 H222        3.7570    3.7600    8.7690 hc        1 287      0.085333
     48 H223        3.9980    3.8770    7.9900 hc        1 287      0.085333
     49 H231        2.4080   -0.7490    5.0820 hc        1 287      0.262333
     50 H232        2.5620   -0.6740    4.9470 hc        1 287      0.262333
     51 H233        2.0060   -2.1330    3.4670 hc        1 287      0.262333
     52 H241       -1.2250    7.4770   16.2250 h1        1 287     -0.263667
     53 H242       -1.3320    7.4540   16.2090 h1        1 287     -0.263667
     54 H243       -0.7570    7.6960   17.6760 h1        1 287     -0.263667
     55 H25         1.8360    0.5250    4.5990 DU        1 287     -0.134000
     56 H29         1.8100    5.2980   10.9580 DU        1 287      0.282000
     57 H30         2.2700    0.6310    4.1170 DU        1 287      0.077000
     58 H31         0.0950    6.8240   14.3700 DU        1 287      0.369000
     59 C19        -0.3660    6.5130   13.9910 c3        1 287      0.262000
     60 H302        1.3290    1.3270    5.5410 DU        1 287      0.227000
     61 H312        0.4530    6.9250   15.5460 hn        1 287      0.107000
     62 C21         4.6110    6.0010   11.1350 c3        1 287      0.121000
@<TRIPOS>BOND
     1    1    2 1   
     2    1    3 1   
     3    1   33 1   
     4    1   35 1   
     5    2    5 1   
     6    2   34 1   
     7    2   37 1   
     8    3    6 1   
     9    3   33 1   
    10    3   35 1   
    11    4    7 1   
    12    4   10 1   
    13    4   36 1   
    14    5   12 1   
    15    5   34 1   
    16    5   37 1   
    17    6   12 1   
    18    6   38 1   
    19    7   13 1   
    20    7   36 1   
    21    7   39 1   
    22    8   10 1   
    23    8   15 1   
    24    8   40 1   
    25    9   11 1   
    26    9   26 1   
    27    9   41 1   
    28   10   36 1   
    29   10   59 1   
    30   11   14 1   
    31   11   19 1   
    32   12   23 1   
    33   12   37 1   
    34   13   15 1   
    35   13   44 1   
    36   13   45 1   
    37   13   62 1   
    38   14   16 1   
    39   14   20 1   
    40   15   27 1   
    41   15   56 1   
    42   16   18 1   
    43   16   26 1   
    44   16   41 1   
    45   17   24 1   
    46   17   25 1   
    47   17   42 1   
    48   18   25 1   
    49   18   27 1   
    50   19   28 1   
    51   19   31 1   
    52   19   60 1   
    53   20   46 1   
    54   20   47 1   
    55   20   48 1   
    56   21   23 1   
    57   21   49 1   
    58   21   50 1   
    59   21   51 1   
    60   22   32 1   
    61   22   52 1   
    62   22   53 1   
    63   22   54 1   
    64   23   28 1   
    65   23   55 1   
    66   23   57 1   
    67   24   26 1   
    68   25   42 1   
    69   26   41 1   
    70   27   56 1   
    71   28   57 1   
    72   28   60 1   
    73   29   32 1   
    74   29   58 1   
    75   29   59 1   
    76   29   61 1   
    77   30   59 1   
    78   43   44 1   
    79   43   62 1   
    80   44   62 1   
    81   45   62 1   
    82   55   57 1   
    83   58   59 1   
@<TRIPOS>SUBSTRUCTURE
     1 287         1 TEMP              0 ****  ****    0 ROOT
