@<TRIPOS>MOLECULE
287
   60    47     1     0     0
SMALL
bcc


@<TRIPOS>ATOM
      1 C1         -3.0220   -4.0060   -7.3870 c1        1 287     -0.120833
      2 C2         -1.6820   -3.6840   -7.2540 c1        1 287     -0.120833
      3 C3         -3.7190   -4.5250   -6.3090 c1        1 287     -0.120833
      4 C4          2.5320    4.4080    3.4540 c1        1 287     -0.120833
      5 C5         -1.0380   -3.8800   -6.0430 c1        1 287     -0.120833
      6 C6         -3.0760   -4.7210   -5.0980 c1        1 287     -0.093000
      7 C7          3.1040    3.4610    2.6120 c1        1 287     -0.120833
      8 C8          0.6050    2.9930    3.7360 c1        1 287     -0.093000
      9 C9         -1.9020   -1.5240   -0.6890 c1        1 287     -0.124000
     10 C10         1.2830    4.1740    4.0150 c1        1 287     -0.112000
     11 C11        -0.6020   -1.8770   -0.9670 c1        1 287     -0.103500
     12 C12        -1.7350   -4.3990   -4.9650 c1        1 287     -0.112000
     13 C13         2.4260    2.2790    2.3320 c1        1 287     -0.073000
     14 C14         0.2030   -1.2420   -0.0780 c1        1 287     -0.103500
     15 C15         1.1770    2.0450    2.8930 c1        1 287      0.043000
     16 C16        -0.6090   -0.4770    0.7720 c1        1 287     -0.124000
     17 C17        -2.5950    0.8270    2.0970 c1        1 287     -0.020000
     18 C18        -0.3100    0.3680    1.8330 c1        1 287      0.234000
     19 C19         0.4890    5.1820    4.8620 c1        1 287      0.290000
     20 C20        -0.1640   -2.8880   -2.0200 c1        1 287      0.384000
     21 C21         3.4910    1.5680    1.5060 c3        1 287     -0.190000
     22 C22         1.6780   -1.5740   -0.0440 c2        1 287     -0.182000
     23 C23        -0.6610   -5.8770   -3.3100 c3        1 287     -0.221000
     24 C24         1.2900    8.3970    6.3790 c3        1 287     -0.075000
     25 C25        -0.7340   -4.4650   -3.8350 c2        1 287      0.061000
     26 N26        -2.8910   -0.0020    1.0550 n1        1 287     -0.117000
     27 N27        -1.2970    1.0070    2.4810 n1        1 287     -0.259000
     28 N28        -1.8890   -0.6530    0.3940 n2        1 287     -0.004000
     29 N29         0.6780    0.7020    2.8090 n2        1 287     -0.248000
     30 N30        -1.1430   -3.5890   -2.7870 n3        1 287     -0.377000
     31 N31         1.0330    6.4840    5.1250 n2        1 287     -0.196000
     32 O32        -0.6280    4.9040    5.2470 o         1 287     -0.307000
     33 O33         1.0170   -3.1240   -2.1810 o         1 287     -0.379000
     34 O34         0.4150    7.3210    6.0370 os        1 287     -0.202000
     35 H1         -3.4740   -3.8680   -8.2380 ha        1 287      0.137667
     36 H2         -1.1910   -3.3180   -8.0140 ha        1 287      0.137667
     37 H3         -4.6630   -4.7520   -6.4020 ha        1 287      0.137667
     38 H4          3.0090    5.2400    3.6510 ha        1 287      0.137667
     39 H5         -0.0930   -3.6530   -5.9490 ha        1 287      0.137667
     40 H6         -3.5670   -5.0870   -4.3380 ha        1 287      0.150500
     41 H7          3.9840    3.6260    2.2170 ha        1 287      0.137667
     42 H8         -0.2720    2.8290    4.1300 ha        1 287      0.150500
     43 H9         -2.6950   -1.8310   -1.1690 DU        1 287      0.190000
     44 H17        -3.3100    1.2910    2.5680 ha        1 287      0.204000
     45 H211        3.8820    2.2000    0.8610 hc        1 287      0.090667
     46 H212        3.0850    0.8200    1.0230 hc        1 287      0.090667
     47 H213        4.1970    1.2290    2.1020 hc        1 287      0.090667
     48 H221        1.9830   -1.7980   -0.9480 ha        1 287      0.099667
     49 H222        2.1780   -0.8030    0.2870 ha        1 287      0.099667
     50 H223        1.8280   -2.3430    0.5520 ha        1 287      0.099667
     51 H231       -1.2100   -5.9550   -2.5010 hc        1 287      0.083000
     52 H232       -0.9960   -6.4980   -3.9930 hc        1 287      0.083000
     53 H233        0.2660   -6.0980   -3.0960 hc        1 287      0.083000
     54 H241        0.9600    9.2280    5.9740 h1        1 287      0.090667
     55 H242        1.3200    8.4980    7.3570 h1        1 287      0.090667
     56 H243        2.1950    8.2050    6.0410 h1        1 287      0.090667
     57 H25         0.1450   -4.1930   -4.1620 h4        1 287      0.134000
     58 H29         0.9980    0.0580    3.3750 hn        1 287      0.249000
     59 H30        -2.0320   -3.4240   -2.6510 hn        1 287      0.221000
     60 H31         1.7520    6.7800    4.6510 hn        1 287      0.211000
@<TRIPOS>BOND
     1    1    3 1   
     2    1   35 1   
     3    2    5 1   
     4    2   36 1   
     5    3   37 1   
     6    4    7 1   
     7    4   38 1   
     8    5   39 1   
     9    6   12 1   
    10    6   40 1   
    11    7   41 1   
    12    8   10 1   
    13    8   42 1   
    14    9   11 1   
    15    9   28 1   
    16   11   14 1   
    17   13   15 1   
    18   13   21 1   
    19   14   16 1   
    20   15   29 1   
    21   16   28 1   
    22   17   26 1   
    23   17   44 1   
    24   18   27 1   
    25   19   32 1   
    26   20   30 1   
    27   20   33 1   
    28   21   45 1   
    29   21   46 1   
    30   21   47 1   
    31   22   48 1   
    32   22   49 1   
    33   22   50 1   
    34   23   25 1   
    35   23   51 1   
    36   23   52 1   
    37   23   53 1   
    38   24   34 1   
    39   24   54 1   
    40   24   55 1   
    41   24   56 1   
    42   25   30 1   
    43   25   57 1   
    44   29   58 1   
    45   30   59 1   
    46   31   34 1   
    47   31   60 1   
@<TRIPOS>SUBSTRUCTURE
     1 287         1 TEMP              0 ****  ****    0 ROOT
