@<TRIPOS>MOLECULE
287
   60    58     1     0     0
SMALL
bcc


@<TRIPOS>ATOM
      1 C1         -0.1810   -4.1970    1.8490 c1        1 287     -0.022000
      2 C2          1.0700    0.6950   -2.0820 c1        1 287     -0.220500
      3 C3         -0.5260   -2.8300    1.9130 c2        1 287     -0.199000
      4 C4          2.3810    7.2860   13.8620 c2        1 287     -0.094000
      5 C5          1.0840    1.5200   -1.2170 c1        1 287     -0.220500
      6 C6          0.2780   -1.8270    1.6370 c1        1 287     -0.098000
      7 C7          3.5160    7.3760   13.2200 c1        1 287     -0.131000
      8 C8          1.6370    5.1110   13.0040 c1        1 287     -0.209000
      9 C9          0.5390    4.1990    6.4160 c1        1 287      0.105000
     10 C10         1.4340    6.1900   13.7150 c2        1 287      0.019000
     11 C11         1.0730    2.9190    6.7540 c2        1 287     -0.357000
     12 C12         1.0300   -0.7590    1.5230 c2        1 287     -0.163000
     13 C13         4.6390    7.5070   12.5750 c2        1 287     -0.102000
     14 C14         1.1930    2.7650    8.1460 c2        1 287      0.192000
     15 C15         1.8800    3.9850   12.3810 c2        1 287      0.030000
     16 C16         0.7850    3.9780    8.7900 c2        1 287     -0.401000
     17 C17        -0.2860    6.5490   10.8320 c1        1 287      0.214000
     18 C18         0.8920    4.3790   10.1180 c2        1 287      0.354000
     19 C20         1.3950    1.9080    5.7280 c2        1 287      0.381000
     20 C21         5.9430    6.9990   13.0530 c3        1 287     -0.181000
     21 C22         1.5630    1.5170    8.8240 c3        1 287     -0.242000
     22 C23         2.8020   -0.7390    3.3450 c3        1 287     -0.276000
     23 C24        -2.3190    7.9360   15.5990 c3        1 287     -0.077000
     24 C25         1.7880   -0.1310    2.5370 c1        1 287     -0.052000
     25 N26         0.9220    6.1740    7.6810 n2        1 287     -0.512000
     26 N27         0.2500    5.5350   10.5270 n2        1 287     -0.318000
     27 N28         0.3270    4.9860    7.6640 n4        1 287      0.203000
     28 N29         1.6170    3.6480   11.0490 n3        1 287     -0.262000
     29 N30         1.2080    2.2520    4.4210 n         1 287     -0.418000
     30 N31        -0.7080    7.3930   13.9820 n         1 287     -0.198000
     31 O32        -0.1070    5.7190   15.4990 o         1 287     -0.297000
     32 O33         1.8300    0.7660    6.0270 o         1 287     -0.448000
     33 O34        -1.9940    7.2940   14.3480 os        1 287     -0.199000
     34 H1         -1.5340   -2.6200    2.3360 ha        1 287      0.171000
     35 H2          1.0570   -0.0350   -2.8520 ha        1 287      0.222000
     36 H3          0.3870   -4.5650    0.9820 ha        1 287      0.059000
     37 H4          2.0820    8.0800   14.5730 ha        1 287      0.160000
     38 H5          1.0960    2.2580   -0.4530 ha        1 287      0.222000
     39 H6          1.0200   -0.1960    0.5580 ha        1 287      0.194000
     40 H7          4.6570    8.0320   11.6010 ha        1 287      0.150000
     41 H8          2.3540    3.1430   12.9350 h4        1 287      0.172000
     42 H9         -0.7030    4.9940    7.7890 hn        1 287      0.182000
     43 H17         0.3340    6.8510    8.1380 hn        1 287      0.076000
     44 H211        6.3710    6.2910   12.3000 hc        1 287      0.089333
     45 H212        6.6570    7.8530   13.1770 hc        1 287      0.089333
     46 H213        5.8540    6.4680   14.0310 hc        1 287      0.089333
     47 H221        2.6510    1.5430    9.0970 hc        1 287      0.124333
     48 H222        0.9490    1.3470    9.7430 hc        1 287      0.124333
     49 H223        1.4200    0.6370    8.1380 hc        1 287      0.124333
     50 H231        2.4710   -0.6230    4.4250 hc        1 287      0.131667
     51 H232        3.7460   -0.1360    3.2490 hc        1 287      0.131667
     52 H233        3.0330   -1.8150    3.1400 hc        1 287      0.131667
     53 H241       -1.7820    7.4370   16.4410 h1        1 287      0.091333
     54 H242       -3.4230    7.7670   15.6680 h1        1 287      0.091333
     55 H243       -2.0820    9.0250   15.5620 h1        1 287      0.091333
     56 H25         1.4170    1.5950    3.6950 hn        1 287      0.252000
     57 H29         2.1720    2.9030   10.6800 hn        1 287      0.260000
     58 H30         0.8780    3.1550    4.1870 hn        1 287      0.252000
     59 H31        -0.6810    7.4980   12.9700 hn        1 287      0.232000
     60 C19         0.1390    6.3560   14.4660 c2        1 287      0.283000
@<TRIPOS>BOND
     1    1    3 1   
     2    1   36 1   
     3    2    5 1   
     4    2   35 1   
     5    3    6 1   
     6    3   34 1   
     7    4    7 1   
     8    4   10 1   
     9    4   37 1   
    10    5   38 1   
    11    6   12 1   
    12    7   13 1   
    13    8   10 1   
    14    8   15 1   
    15    9   11 1   
    16    9   27 1   
    17   10   60 1   
    18   11   14 1   
    19   11   19 1   
    20   12   24 1   
    21   12   39 1   
    22   13   20 1   
    23   13   40 1   
    24   14   16 1   
    25   14   21 1   
    26   15   28 1   
    27   15   41 1   
    28   16   18 1   
    29   16   27 1   
    30   17   26 1   
    31   18   26 1   
    32   18   28 1   
    33   19   29 1   
    34   19   32 1   
    35   20   44 1   
    36   20   45 1   
    37   20   46 1   
    38   21   47 1   
    39   21   48 1   
    40   21   49 1   
    41   22   24 1   
    42   22   50 1   
    43   22   51 1   
    44   22   52 1   
    45   23   33 1   
    46   23   53 1   
    47   23   54 1   
    48   23   55 1   
    49   25   27 1   
    50   25   43 1   
    51   27   42 1   
    52   28   57 1   
    53   29   56 1   
    54   29   58 1   
    55   30   33 1   
    56   30   59 1   
    57   30   60 1   
    58   31   60 1   
@<TRIPOS>SUBSTRUCTURE
     1 287         1 TEMP              0 ****  ****    0 ROOT
