@<TRIPOS>MOLECULE
288
   49    51     1     0     0
SMALL
bcc


@<TRIPOS>ATOM
      1 C1          3.8430   -0.7230   -0.3220 ca        1 288     -0.109800
      2 C2          3.0740   -0.3570    0.8460 ca        1 288     -0.032200
      3 C3          2.8910   -1.1090   -1.3370 cc        1 288     -0.091200
      4 C4          5.2370   -0.6550   -0.2860 ca        1 288     -0.063000
      5 N5          1.7170   -0.4630    0.5330 na        1 288     -0.177400
      6 C6          3.7110    0.0600    2.0280 ca        1 288     -0.141000
      7 C7          1.6190   -0.9650   -0.7810 cd        1 288     -0.142300
      8 C8          5.8440   -0.2390    0.8920 ca        1 288     -0.013600
      9 C9          5.0940    0.1130    2.0350 ca        1 288     -0.095000
     10 C10         0.3470   -1.2610   -1.4800 c         1 288      0.682300
     11 CL11        7.5420   -0.1460    0.9730 cl        1 288     -0.097400
     12 N12        -0.8090   -0.6610   -1.0100 n         1 288     -0.564900
     13 O13         0.3260   -2.0530   -2.4440 o         1 288     -0.589100
     14 C14        -2.0540   -0.7940   -1.7120 c3        1 288      0.056000
     15 C15        -3.3010   -0.9210   -0.7830 c3        1 288      0.369300
     16 N16        -3.3120    0.0840    0.2970 n3        1 288     -0.762600
     17 O17        -3.3890   -2.2650   -0.3200 oh        1 288     -0.613800
     18 C18        -4.1340    1.2500   -0.0450 c3        1 288      0.174500
     19 C19        -3.6140   -0.4360    1.6170 c3        1 288      0.138800
     20 C20        -4.0730    2.3840    1.0040 c3        1 288     -0.080400
     21 C21        -3.7370    1.9480   -1.3630 c3        1 288     -0.080400
     22 C22        -5.0780   -0.7600    1.9540 c3        1 288      0.103400
     23 C23        -4.4010    3.6670    0.2530 c3        1 288     -0.079900
     24 C24        -4.2340    3.3810   -1.2340 c3        1 288     -0.079900
     25 O25        -5.7700   -1.4170    0.9150 oh        1 288     -0.605800
     26 H3          3.1150   -1.4500   -2.3450 ha        1 288      0.177000
     27 H4          5.8290   -0.9250   -1.1730 ha        1 288      0.154000
     28 HN5         0.9940   -0.5050    1.2030 hn        1 288      0.298700
     29 H6          3.1310    0.3360    2.9180 ha        1 288      0.140000
     30 H9          5.6210    0.4340    2.9470 ha        1 288      0.148000
     31 H12        -0.7380    0.1160   -0.3940 hn        1 288      0.320500
     32 H141       -2.0220   -1.7280   -2.3470 h1        1 288      0.070200
     33 H142       -2.2140    0.0880   -2.3950 h1        1 288      0.070200
     34 H15        -4.2240   -0.8210   -1.4390 h2        1 288      0.079700
     35 H17        -2.5270   -2.5320    0.0220 ho        1 288      0.415000
     36 H18        -5.2190    0.9300   -0.1400 h1        1 288      0.047700
     37 H191       -3.2620    0.3370    2.3590 h1        1 288      0.051200
     38 H192       -2.9970   -1.3640    1.7800 h1        1 288      0.051200
     39 H201       -4.8040    2.1960    1.8270 hc        1 288      0.046200
     40 H202       -3.0530    2.4550    1.4580 hc        1 288      0.046200
     41 H211       -2.6250    1.9450   -1.4950 hc        1 288      0.046200
     42 H212       -4.1950    1.4320   -2.2410 hc        1 288      0.046200
     43 H221       -5.6650    0.1820    2.1270 h1        1 288      0.043700
     44 H222       -5.0990   -1.3830    2.8890 h1        1 288      0.043700
     45 H231       -5.4490    3.9910    0.4720 hc        1 288      0.044700
     46 H232       -3.7220    4.4940    0.5790 hc        1 288      0.044700
     47 H241       -5.2120    3.5020   -1.7650 hc        1 288      0.044700
     48 H242       -3.5100    4.0920   -1.7020 hc        1 288      0.044700
     49 H25        -5.2650   -2.2070    0.6780 ho        1 288      0.420000
@<TRIPOS>BOND
     1    1    2 ar  
     2    1    3 1   
     3    1    4 ar  
     4    2    5 1   
     5    2    6 ar  
     6    3    7 2   
     7    3   26 1   
     8    4    8 ar  
     9    4   27 1   
    10    5    7 1   
    11    5   28 1   
    12    6    9 ar  
    13    6   29 1   
    14    7   10 1   
    15    8    9 ar  
    16    8   11 1   
    17    9   30 1   
    18   10   12 1   
    19   10   13 2   
    20   12   14 1   
    21   12   31 1   
    22   14   15 1   
    23   14   32 1   
    24   14   33 1   
    25   15   16 1   
    26   15   17 1   
    27   15   34 1   
    28   16   18 1   
    29   16   19 1   
    30   17   35 1   
    31   18   20 1   
    32   18   21 1   
    33   18   36 1   
    34   19   22 1   
    35   19   37 1   
    36   19   38 1   
    37   20   23 1   
    38   20   39 1   
    39   20   40 1   
    40   21   24 1   
    41   21   41 1   
    42   21   42 1   
    43   22   25 1   
    44   22   43 1   
    45   22   44 1   
    46   23   24 1   
    47   23   45 1   
    48   23   46 1   
    49   24   47 1   
    50   24   48 1   
    51   25   49 1   
@<TRIPOS>SUBSTRUCTURE
     1 288         1 TEMP              0 ****  ****    0 ROOT
