@<TRIPOS>MOLECULE
288
   51    53     1     0     0
SMALL
bcc


@<TRIPOS>ATOM
      1 C1         -0.0590   -0.4530   -0.8910 ca        1 288     -0.151800
      2 C2          0.6920   -1.5240   -0.2750 ca        1 288     -0.006200
      3 C3         -0.0920    0.6280    0.0490 cc        1 288      0.101800
      4 C4         -0.5830   -0.6070   -2.1800 ca        1 288     -0.032000
      5 N5          1.1810   -1.1060    0.9920 na        1 288     -0.159400
      6 C6          0.8910   -2.7350   -0.9470 ca        1 288     -0.140000
      7 C7          0.6240    0.2070    1.1900 cd        1 288     -0.306300
      8 C8         -0.3700   -1.8170   -2.8340 ca        1 288     -0.003600
      9 C9          0.3560   -2.8650   -2.2230 ca        1 288     -0.028000
     10 C10         0.9090    1.0650    2.2920 c         1 288      0.605300
     11 CL11       -0.9880   -2.0470   -4.3890 cl        1 288     -0.011400
     12 N12         2.0820    0.5970    3.1970 n4        1 288     -0.677800
     13 O13         0.4030    2.1260    2.6310 o         1 288     -0.451100
     14 C14         2.4660    1.6340    4.1850 c3        1 288      0.084800
     15 C15         3.6750    1.2140    5.0820 c3        1 288      0.344300
     16 N16         4.3060    2.4320    5.7690 n4        1 288     -0.710400
     17 O17         4.5940    0.6130    4.2060 oh        1 288     -0.604800
     18 C18         3.6050    2.7710    7.0650 c3        1 288      0.106500
     19 C19         5.7770    2.2370    5.9950 c3        1 288      0.091800
     20 C20         4.2450    3.9710    7.7960 c3        1 288     -0.097400
     21 C21         2.1210    3.1470    6.9060 c3        1 288     -0.097400
     22 C22         6.1570    1.1780    7.0340 c3        1 288      0.113400
     23 C23         3.1280    4.5770    8.6360 c3        1 288     -0.083900
     24 C24         1.8050    4.0780    8.0720 c3        1 288     -0.083900
     25 O25         5.4610   -0.0180    6.7180 oh        1 288     -0.670800
     26 H3         -0.5580    1.6070   -0.0970 ha        1 288      0.198000
     27 H4         -1.1460    0.2120   -2.6580 ha        1 288      0.180000
     28 HN5         1.0500   -1.7620    1.7350 hn        1 288      0.263700
     29 H6          1.4550   -3.5620   -0.4900 ha        1 288      0.167000
     30 H9          0.5010   -3.8120   -2.7760 ha        1 288      0.183000
     31 H12         1.8070   -0.2620    3.6790 hn        1 288      0.466800
     32 H141        2.7040    2.5730    3.6030 hx        1 288      0.133200
     33 H142        1.5690    1.8400    4.8410 hx        1 288      0.133200
     34 H15         3.3570    0.5090    5.9090 hx        1 288      0.135700
     35 H17         5.1620   -0.0150    4.6940 ho        1 288      0.489000
     36 H18         3.6930    1.8490    7.7150 hx        1 288      0.114700
     37 H191        6.2010    3.2270    6.3410 hx        1 288      0.124700
     38 H192        6.2460    1.9810    5.0000 hx        1 288      0.124700
     39 H201        5.0970    3.6350    8.4380 hc        1 288      0.064450
     40 H202        4.6320    4.7340    7.0720 hc        1 288      0.064450
     41 H211        1.4760    2.2340    6.9430 hc        1 288      0.064450
     42 H212        1.9350    3.6820    5.9390 hc        1 288      0.064450
     43 H221        5.8820    1.5050    8.0740 h1        1 288      0.087700
     44 H222        7.2700    1.0250    6.9750 h1        1 288      0.087700
     45 H231        3.1830    5.6960    8.6050 hc        1 288      0.085450
     46 H232        3.2370    4.2720    9.7080 hc        1 288      0.085450
     47 H241        1.2250    3.5320    8.8600 hc        1 288      0.085450
     48 H242        1.1680    4.9310    7.7240 hc        1 288      0.085450
     49 H25         5.8850   -0.7430    7.2020 ho        1 288      0.468000
     50 H122        2.8910    0.3790    2.5960 hn        1 288      0.466800
     51 H161        4.2130    3.2400    5.1390 hn        1 288      0.445800
@<TRIPOS>BOND
     1    1    2 ar  
     2    1    3 1   
     3    1    4 ar  
     4    2    5 1   
     5    2    6 ar  
     6    3    7 2   
     7    3   26 1   
     8    4    8 ar  
     9    4   27 1   
    10    5    7 1   
    11    5   28 1   
    12    6    9 ar  
    13    6   29 1   
    14    7   10 1   
    15    8    9 ar  
    16    8   11 1   
    17    9   30 1   
    18   10   12 1   
    19   10   13 2   
    20   12   14 1   
    21   12   31 1   
    22   12   50 1   
    23   14   15 1   
    24   14   32 1   
    25   14   33 1   
    26   15   16 1   
    27   15   17 1   
    28   15   34 1   
    29   16   18 1   
    30   16   19 1   
    31   16   51 1   
    32   17   35 1   
    33   18   20 1   
    34   18   21 1   
    35   18   36 1   
    36   19   22 1   
    37   19   37 1   
    38   19   38 1   
    39   20   23 1   
    40   20   39 1   
    41   20   40 1   
    42   21   24 1   
    43   21   41 1   
    44   21   42 1   
    45   22   25 1   
    46   22   43 1   
    47   22   44 1   
    48   23   24 1   
    49   23   45 1   
    50   23   46 1   
    51   24   47 1   
    52   24   48 1   
    53   25   49 1   
@<TRIPOS>SUBSTRUCTURE
     1 288         1 TEMP              0 ****  ****    0 ROOT
