@<TRIPOS>MOLECULE
288
   49    43     1     0     0
SMALL
bcc


@<TRIPOS>ATOM
      1 C1         -4.6540   -2.2730    1.7540 c1        1 288     -0.042500
      2 C2         -3.5490   -2.9770    2.1580 c1        1 288     -0.042500
      3 C3         -4.2700   -1.4290    0.7260 c1        1 288     -0.108000
      4 C4         -5.8710   -2.4100    2.4530 c1        1 288     -0.102000
      5 N5         -2.4750   -2.5720    1.3800 n1        1 288     -0.197000
      6 C6         -3.6310   -3.8390    3.2720 c1        1 288     -0.102000
      7 C7         -2.9220   -1.6190    0.5000 c1        1 288     -0.095000
      8 C8         -5.9510   -3.2610    3.5530 c1        1 288     -0.092000
      9 C9         -4.8320   -3.9740    3.9610 c1        1 288     -0.096000
     10 C10        -2.2480   -0.9650   -0.7360 c1        1 288      0.348000
     11 CL11       -7.3450   -3.4700    4.5740 cl        1 288     -0.020000
     12 N12        -0.8430   -1.1610   -0.9740 n3        1 288     -0.352000
     13 O13        -2.9280   -0.3770   -1.5600 o         1 288     -0.344000
     14 C14        -0.0290   -0.0630   -1.4550 c3        1 288     -0.031000
     15 C15         1.2630    0.0070   -0.6380 c3        1 288      0.083000
     16 N16         2.1530    0.9250   -1.2380 n3        1 288     -0.302000
     17 O17         1.8560   -1.2540   -0.5960 oh        1 288     -0.365000
     18 C18         2.4750    1.9370   -0.3120 c3        1 288      0.000000
     19 C19         3.3620    0.2340   -1.6350 c3        1 288     -0.066000
     20 C20         3.5650    2.6060   -0.7180 c3        1 288     -0.161000
     21 C21         1.2350    3.0660   -0.2370 c3        1 288     -0.161000
     22 C22         3.5110    0.3010   -3.1470 c3        1 288     -0.024000
     23 C23         3.3320    4.1240   -0.2300 c3        1 288     -0.157000
     24 C24         1.7920    4.2040    0.2180 c3        1 288     -0.157000
     25 O25         4.8790    0.1690   -3.4930 oh        1 288     -0.335000
     26 H3         -4.8480   -0.8110    0.2470 DU        1 288      0.213500
     27 H4         -6.6580   -1.9090    2.1660 ha        1 288      0.147000
     28 HN5        -1.6240   -2.8830    1.4430 DU        1 288      0.213500
     29 H6         -2.8480   -4.3380    3.5580 ha        1 288      0.147000
     30 H9         -4.8880   -4.5670    4.7280 ha        1 288      0.148000
     31 H12        -0.4730   -1.9700   -0.8400 hn        1 288      0.226000
     32 H141        0.1890   -0.2080   -2.3990 h1        1 288      0.121500
     33 H142       -0.5250    0.7800   -1.3580 h1        1 288      0.121500
     34 H15         1.0570    0.3020    0.2760 h2        1 288      0.102000
     35 H17         1.6380   -1.6550    0.1550 ho        1 288      0.204000
     36 H18         2.6300    1.5450    0.5800 h1        1 288      0.052000
     37 H191        4.1350    0.6600   -1.2110 h1        1 288      0.097000
     38 H192        3.3100   -0.7040   -1.3520 h1        1 288      0.097000
     39 H201        3.6420    2.5710   -1.6940 hc        1 288      0.090500
     40 H202        4.3650    2.2350   -0.3010 hc        1 288      0.090500
     41 H211        0.5380    2.7610    0.3810 hc        1 288      0.090500
     42 H212        0.8590    3.2080   -1.1230 hc        1 288      0.090500
     43 H221        3.1750    1.1590   -3.4700 h1        1 288      0.068000
     44 H222        2.9980   -0.4270   -3.5590 h1        1 288      0.068000
     45 H231        3.5020    4.7440   -0.9640 hc        1 288      0.082750
     46 H232        3.9130    4.3280    0.5230 hc        1 288      0.082750
     47 H241        1.7240    4.2500    1.1960 hc        1 288      0.082750
     48 H242        1.3590    4.9830   -0.1910 hc        1 288      0.082750
     49 H25         4.9520    0.0170   -4.3730 ho        1 288      0.202000
@<TRIPOS>BOND
     1    1    4 1   
     2    2    6 1   
     3    3    7 1   
     4    4   27 1   
     5    5    7 1   
     6    6   29 1   
     7    8    9 1   
     8    8   11 1   
     9    9   30 1   
    10   10   12 1   
    11   10   13 1   
    12   12   14 1   
    13   12   31 1   
    14   14   15 1   
    15   14   32 1   
    16   14   33 1   
    17   15   16 1   
    18   15   17 1   
    19   15   34 1   
    20   16   18 1   
    21   16   19 1   
    22   17   35 1   
    23   18   20 1   
    24   18   21 1   
    25   18   36 1   
    26   19   22 1   
    27   19   37 1   
    28   19   38 1   
    29   20   23 1   
    30   20   39 1   
    31   20   40 1   
    32   21   24 1   
    33   21   41 1   
    34   21   42 1   
    35   22   25 1   
    36   22   43 1   
    37   22   44 1   
    38   23   24 1   
    39   23   45 1   
    40   23   46 1   
    41   24   47 1   
    42   24   48 1   
    43   25   49 1   
@<TRIPOS>SUBSTRUCTURE
     1 288         1 TEMP              0 ****  ****    0 ROOT
