@<TRIPOS>MOLECULE
288
   51    53     1     0     0
SMALL
bcc


@<TRIPOS>ATOM
      1 C1         -0.0510   -0.4580   -0.8940 ca        1 288     -0.151800
      2 C2          0.6750   -1.5360   -0.2600 ca        1 288     -0.006200
      3 C3         -0.0720    0.6330    0.0340 cc        1 288      0.101800
      4 C4         -0.5690   -0.6170   -2.1840 ca        1 288     -0.032000
      5 N5          1.1620   -1.1130    1.0060 na        1 288     -0.159400
      6 C6          0.8570   -2.7580   -0.9170 ca        1 288     -0.140000
      7 C7          0.6280    0.2120    1.1860 cd        1 288     -0.306300
      8 C8         -0.3730   -1.8380   -2.8240 ca        1 288     -0.003600
      9 C9          0.3300   -2.8930   -2.1960 ca        1 288     -0.028000
     10 C10         0.9210    1.0770    2.2800 c         1 288      0.605300
     11 CL11       -0.9840   -2.0750   -4.3800 cl        1 288     -0.011400
     12 N12         2.0780    0.5990    3.1990 n4        1 288     -0.677800
     13 O13         0.4310    2.1510    2.6030 o         1 288     -0.451100
     14 C14         2.4720    1.6390    4.1800 c3        1 288      0.084800
     15 C15         3.6680    1.2070    5.0890 c3        1 288      0.344300
     16 N16         4.3140    2.4220    5.7680 n4        1 288     -0.710400
     17 O17         4.5830    0.5840    4.2260 oh        1 288     -0.604800
     18 C18         3.6100    2.7840    7.0570 c3        1 288      0.106500
     19 C19         5.7800    2.2050    6.0060 c3        1 288      0.091800
     20 C20         4.2640    3.9820    7.7800 c3        1 288     -0.097400
     21 C21         2.1340    3.1830    6.8840 c3        1 288     -0.097400
     22 C22         6.1360    1.1500    7.0580 c3        1 288      0.113400
     23 C23         3.1520    4.6140    8.6060 c3        1 288     -0.083900
     24 C24         1.8250    4.1290    8.0390 c3        1 288     -0.083900
     25 O25         5.4230   -0.0370    6.7500 oh        1 288     -0.670800
     26 H3         -0.5190    1.6190   -0.1260 ha        1 288      0.198000
     27 H4         -1.1130    0.2060   -2.6760 ha        1 288      0.180000
     28 HN5         1.0140   -1.7580    1.7550 hn        1 288      0.263700
     29 H6          1.4020   -3.5900   -0.4460 ha        1 288      0.167000
     30 H9          0.4610   -3.8490   -2.7360 ha        1 288      0.183000
     31 H12         2.8870    0.3600    2.6060 hn        1 288      0.466800
     32 H141        1.5740    1.8650    4.8270 hx        1 288      0.133200
     33 H142        2.7290    2.5680    3.5910 hx        1 288      0.133200
     34 H15         3.3330    0.5160    5.9210 hx        1 288      0.135700
     35 H17         5.1370   -0.0490    4.7230 ho        1 288      0.489000
     36 H18         3.6790    1.8680    7.7160 hx        1 288      0.114700
     37 H191        6.2510    1.9320    5.0170 hx        1 288      0.124700
     38 H192        6.2170    3.1920    6.3460 hx        1 288      0.124700
     39 H201        5.1060    3.6380    8.4310 hc        1 288      0.064450
     40 H202        4.6680    4.7310    7.0520 hc        1 288      0.064450
     41 H211        1.9620    3.7120    5.9110 hc        1 288      0.064450
     42 H212        1.4740    2.2810    6.9260 hc        1 288      0.064450
     43 H221        7.2470    0.9790    7.0080 h1        1 288      0.087700
     44 H222        5.8590    1.4930    8.0930 h1        1 288      0.087700
     45 H231        3.2240    5.7310    8.5640 hc        1 288      0.085450
     46 H232        3.2490    4.3180    9.6830 hc        1 288      0.085450
     47 H241        1.2030    4.9890    7.6790 hc        1 288      0.085450
     48 H242        1.2310    3.6000    8.8280 hc        1 288      0.085450
     49 H25         5.8310   -0.7630    7.2430 ho        1 288      0.468000
     50 H122        1.7840   -0.2510    3.6880 hn        1 288      0.466800
     51 H161        4.2380    3.2250    5.1300 hn        1 288      0.445800
@<TRIPOS>BOND
     1    1    2 ar  
     2    1    3 1   
     3    1    4 ar  
     4    2    5 1   
     5    2    6 ar  
     6    3    7 2   
     7    3   26 1   
     8    4    8 ar  
     9    4   27 1   
    10    5    7 1   
    11    5   28 1   
    12    6    9 ar  
    13    6   29 1   
    14    7   10 1   
    15    8    9 ar  
    16    8   11 1   
    17    9   30 1   
    18   10   12 1   
    19   10   13 2   
    20   12   14 1   
    21   12   31 1   
    22   12   50 1   
    23   14   15 1   
    24   14   32 1   
    25   14   33 1   
    26   15   16 1   
    27   15   17 1   
    28   15   34 1   
    29   16   18 1   
    30   16   19 1   
    31   16   51 1   
    32   17   35 1   
    33   18   20 1   
    34   18   21 1   
    35   18   36 1   
    36   19   22 1   
    37   19   37 1   
    38   19   38 1   
    39   20   23 1   
    40   20   39 1   
    41   20   40 1   
    42   21   24 1   
    43   21   41 1   
    44   21   42 1   
    45   22   25 1   
    46   22   43 1   
    47   22   44 1   
    48   23   24 1   
    49   23   45 1   
    50   23   46 1   
    51   24   47 1   
    52   24   48 1   
    53   25   49 1   
@<TRIPOS>SUBSTRUCTURE
     1 288         1 TEMP              0 ****  ****    0 ROOT
