@<TRIPOS>MOLECULE
288
   51    53     1     0     0
SMALL
bcc


@<TRIPOS>ATOM
      1 C1         -0.0690   -0.4700   -0.8800 ca        1 288     -0.151800
      2 C2          0.6930   -1.5360   -0.2680 ca        1 288     -0.006200
      3 C3         -0.1070    0.6090    0.0610 cc        1 288      0.101800
      4 C4         -0.5990   -0.6270   -2.1660 ca        1 288     -0.032000
      5 N5          1.1850   -1.1140    0.9970 na        1 288     -0.159400
      6 C6          0.8990   -2.7440   -0.9430 ca        1 288     -0.140000
      7 C7          0.6190    0.1940    1.1990 cd        1 288     -0.306300
      8 C8         -0.3790   -1.8350   -2.8220 ca        1 288     -0.003600
      9 C9          0.3590   -2.8770   -2.2160 ca        1 288     -0.028000
     10 C10         0.9020    1.0530    2.3010 c         1 288      0.605300
     11 Cl11       -1.0030   -2.0690   -4.3740 cl        1 288     -0.011400
     12 N12         2.0830    0.5940    3.1990 ny        1 288     -0.677800
     13 O13         0.3880    2.1090    2.6420 o         1 288     -0.451100
     14 C14         2.4620    1.6330    4.1870 c3        1 288      0.084800
     15 C15         3.6800    1.2220    5.0760 c3        1 288      0.344300
     16 N16         4.3040    2.4450    5.7610 nx        1 288     -0.710400
     17 O17         4.6000    0.6310    4.1950 oh        1 288     -0.604800
     18 C18         3.6070    2.7760    7.0620 c3        1 288      0.106500
     19 C19         5.7780    2.2640    5.9790 c3        1 288      0.091800
     20 C20         4.2400    3.9810    7.7910 c3        1 288     -0.097400
     21 C21         2.1190    3.1380    6.9120 c3        1 288     -0.097400
     22 C22         6.1730    1.2060    7.0140 c3        1 288      0.113400
     23 C23         3.1220    4.5760    8.6370 c3        1 288     -0.083900
     24 C24         1.8010    4.0640    8.0810 c3        1 288     -0.083900
     25 O25         5.4870    0.0050    6.7010 oh        1 288     -0.670800
     26 H3         -0.5820    1.5850   -0.0810 ha        1 288      0.198000
     27 H4         -1.1710    0.1880   -2.6400 ha        1 288      0.180000
     28 HN5         1.0630   -1.7720    1.7400 hn        1 288      0.263700
     29 H6          1.4720   -3.5670   -0.4890 ha        1 288      0.167000
     30 H9          0.5090   -3.8230   -2.7700 ha        1 288      0.183000
     31 H12         2.8900    0.3840    2.5940 hn        1 288      0.466800
     32 H141        1.5670    1.8280    4.8480 hx        1 288      0.133200
     33 H142        2.6880    2.5750    3.6060 hx        1 288      0.133200
     34 H15         3.3730    0.5130    5.9050 hx        1 288      0.135700
     35 H17         5.1760    0.0080    4.6790 ho        1 288      0.489000
     36 H18         3.7070    1.8540    7.7110 hx        1 288      0.114700
     37 H191        6.1940    3.2570    6.3240 hx        1 288      0.124700
     38 H192        6.2430    2.0130    4.9810 hx        1 288      0.124700
     39 H201        5.0980    3.6520    8.4280 hc        1 288      0.064450
     40 H202        4.6160    4.7490    7.0660 hc        1 288      0.064450
     41 H211        1.4830    2.2190    6.9520 hc        1 288      0.064450
     42 H212        1.9230    3.6730    5.9470 hc        1 288      0.064450
     43 H221        5.9010    1.5300    8.0560 h1        1 288      0.087700
     44 H222        7.2880    1.0640    6.9490 h1        1 288      0.087700
     45 H231        3.1660    5.6950    8.6070 hc        1 288      0.085450
     46 H232        3.2400    4.2710    9.7090 hc        1 288      0.085450
     47 H241        1.1540    4.9110    7.7380 hc        1 288      0.085450
     48 H242        1.2300    3.5120    8.8720 hc        1 288      0.085450
     49 H25         5.9200   -0.7170    7.1820 ho        1 288      0.468000
     50 H122        1.8170   -0.2690    3.6810 hn        1 288      0.466800
     51 H161        4.1990    3.2530    5.1330 hn        1 288      0.445800
@<TRIPOS>BOND
     1    1    2 ar  
     2    1    3 1   
     3    1    4 ar  
     4    2    5 1   
     5    2    6 ar  
     6    3    7 2   
     7    3   26 1   
     8    4    8 ar  
     9    4   27 1   
    10    5    7 1   
    11    5   28 1   
    12    6    9 ar  
    13    6   29 1   
    14    7   10 1   
    15    8    9 ar  
    16    8   11 1   
    17    9   30 1   
    18   10   12 1   
    19   10   13 2   
    20   12   14 1   
    21   12   31 1   
    22   12   50 1   
    23   14   15 1   
    24   14   32 1   
    25   14   33 1   
    26   15   16 1   
    27   15   17 1   
    28   15   34 1   
    29   16   18 1   
    30   16   19 1   
    31   16   51 1   
    32   17   35 1   
    33   18   20 1   
    34   18   21 1   
    35   18   36 1   
    36   19   22 1   
    37   19   37 1   
    38   19   38 1   
    39   20   23 1   
    40   20   39 1   
    41   20   40 1   
    42   21   24 1   
    43   21   41 1   
    44   21   42 1   
    45   22   25 1   
    46   22   43 1   
    47   22   44 1   
    48   23   24 1   
    49   23   45 1   
    50   23   46 1   
    51   24   47 1   
    52   24   48 1   
    53   25   49 1   
@<TRIPOS>SUBSTRUCTURE
     1 288         1 TEMP              0 ****  ****    0 ROOT
