@<TRIPOS>MOLECULE
289
   28    28     1     0     0
SMALL
bcc


@<TRIPOS>ATOM
      1 O7         -3.8500   -0.5570   -1.5540 oh        1 289     -0.618800
      2 C7         -2.4470   -0.4200   -1.6410 c3        1 289      0.099400
      3 C6         -1.8430   -0.4840   -0.2470 c3        1 289      0.145100
      4 O6         -2.1330   -1.7390    0.3360 oh        1 289     -0.619800
      5 C5         -0.3650   -0.3070   -0.3360 c3        1 289      0.117100
      6 O5         -0.0760    1.0460   -0.8610 os        1 289     -0.448600
      7 C1          1.3440    1.3760   -0.8260 c3        1 289      0.335900
      8 O1          2.0120    0.5870   -1.7560 oh        1 289     -0.623800
      9 C2          1.9610    1.1490    0.5470 c3        1 289      0.135100
     10 O2          1.4300    2.1190    1.4600 oh        1 289     -0.599800
     11 C3          1.6790   -0.2110    1.0740 c3        1 289      0.115100
     12 O3          2.1410   -0.2860    2.4570 oh        1 289     -0.613800
     13 C4          0.2400   -0.5400    1.0340 c3        1 289      0.091100
     14 O4          0.0690   -1.9280    1.3900 oh        1 289     -0.613800
     15 HO7        -4.1990   -0.5650   -2.3720 ho        1 289      0.412000
     16 H7         -2.0820   -1.1470   -2.1890 h1        1 289      0.046700
     17 H7A        -2.2270    0.4410   -2.0530 h1        1 289      0.046700
     18 H6         -2.2230    0.2270    0.3050 h1        1 289      0.059700
     19 HO6        -2.9650   -1.7370    0.6460 ho        1 289      0.434000
     20 H5         -0.0050   -0.9700   -0.9580 h1        1 289      0.075700
     21 H1          1.4550    2.3160   -1.0700 h2        1 289      0.093700
     22 HO1         2.4080    1.1090   -2.3580 ho        1 289      0.420000
     23 H2          2.9280    1.2690    0.4830 h1        1 289      0.072700
     24 HO2         1.9870    2.8090    1.5160 ho        1 289      0.432000
     25 H3          2.1690   -0.8660    0.5410 h1        1 289      0.072700
     26 HO3         2.9200   -0.7140    2.4870 ho        1 289      0.433000
     27 H4         -0.2300    0.0150    1.6860 h1        1 289      0.063700
     28 HO4        -0.0970   -1.9930    2.2620 ho        1 289      0.436000
@<TRIPOS>BOND
     1    1    2 1   
     2    1   15 1   
     3    2    3 1   
     4    2   16 1   
     5    2   17 1   
     6    3    4 1   
     7    3    5 1   
     8    3   18 1   
     9    4   19 1   
    10    5    6 1   
    11    5   13 1   
    12    5   20 1   
    13    6    7 1   
    14    7    8 1   
    15    7    9 1   
    16    7   21 1   
    17    8   22 1   
    18    9   10 1   
    19    9   11 1   
    20    9   23 1   
    21   10   24 1   
    22   11   12 1   
    23   11   13 1   
    24   11   25 1   
    25   12   26 1   
    26   13   14 1   
    27   13   27 1   
    28   14   28 1   
@<TRIPOS>SUBSTRUCTURE
     1 289         1 TEMP              0 ****  ****    0 ROOT
