@<TRIPOS>MOLECULE
289
   28    28     1     0     0
SMALL
bcc


@<TRIPOS>ATOM
      1 O7         -4.2390    0.2340    0.0410 oh        1 289     -0.588800
      2 C7         -2.9620    0.1630   -0.5690 c3        1 289      0.096400
      3 C6         -1.9220    0.2970    0.5510 c3        1 289      0.157100
      4 O6         -1.9690   -0.7950    1.4410 oh        1 289     -0.578800
      5 C5         -0.5270    0.4590   -0.0890 c3        1 289      0.114100
      6 O5          0.1410    1.4590    0.6860 os        1 289     -0.431600
      7 C1          1.4570    1.7630    0.2770 c3        1 289      0.305900
      8 O1          1.3370    2.4730   -0.9350 oh        1 289     -0.627800
      9 C2          2.3880    0.5620    0.0210 c3        1 289      0.096100
     10 O2          2.8370    0.0140    1.2500 oh        1 289     -0.598800
     11 C3          1.6640   -0.5690   -0.7220 c3        1 289      0.118100
     12 O3          2.4270   -1.7560   -0.7530 oh        1 289     -0.596800
     13 C4          0.2980   -0.8340   -0.0700 c3        1 289      0.081100
     14 O4         -0.4300   -1.8170   -0.7890 oh        1 289     -0.611800
     15 HO7        -4.8790   -0.0200   -0.6330 ho        1 289      0.400000
     16 H7         -2.8240   -0.8170   -1.0990 h1        1 289      0.034700
     17 H7A        -2.8520    1.0050   -1.3040 h1        1 289      0.034700
     18 H6         -2.1530    1.1920    1.1980 h1        1 289      0.107700
     19 HO6        -1.9370   -1.6060    0.9130 ho        1 289      0.410000
     20 H5         -0.6170    0.8300   -1.1490 h1        1 289      0.058700
     21 H1          1.8590    2.4150    1.1070 h2        1 289      0.072700
     22 HO1         0.6790    3.1670   -0.7980 ho        1 289      0.426000
     23 H2          3.2660    0.9120   -0.5900 h1        1 289      0.073700
     24 HO2         3.3620    0.6920    1.6920 ho        1 289      0.416000
     25 H3          1.5320   -0.2790   -1.8030 h1        1 289      0.100700
     26 HO3         2.7050   -1.9500    0.1530 ho        1 289      0.423000
     27 H4          0.4450   -1.1810    0.9930 h1        1 289      0.080700
     28 HO4         0.1990   -2.5180   -1.0120 ho        1 289      0.426000
@<TRIPOS>BOND
     1    1    2 1   
     2    1   15 1   
     3    2    3 1   
     4    2   16 1   
     5    2   17 1   
     6    3    4 1   
     7    3    5 1   
     8    3   18 1   
     9    4   19 1   
    10    5    6 1   
    11    5   13 1   
    12    5   20 1   
    13    6    7 1   
    14    7    8 1   
    15    7    9 1   
    16    7   21 1   
    17    8   22 1   
    18    9   10 1   
    19    9   11 1   
    20    9   23 1   
    21   10   24 1   
    22   11   12 1   
    23   11   13 1   
    24   11   25 1   
    25   12   26 1   
    26   13   14 1   
    27   13   27 1   
    28   14   28 1   
@<TRIPOS>SUBSTRUCTURE
     1 289         1 TEMP              0 ****  ****    0 ROOT
