@<TRIPOS>MOLECULE
28A
   27    28     1     0     0
SMALL
bcc


@<TRIPOS>ATOM
      1 O01         0.0350   -0.0310    0.1840 oh        1 28A     -0.487100
      2 C02         1.4040    0.0150    0.0930 ce        1 28A     -0.013100
      3 C03         2.1640   -0.6200    1.0070 c2        1 28A     -0.188200
      4 C04         3.6400   -0.5800    0.9260 c3        1 28A     -0.145500
      5 C05         4.1600    0.2100   -0.2490 ce        1 28A      0.550900
      6 C06         5.6370    0.2350   -0.3570 ca        1 28A     -0.130900
      7 C07         6.2470   -0.1130   -1.5620 ca        1 28A     -0.109000
      8 C08         7.6540   -0.1100   -1.6410 ca        1 28A      0.121100
      9 O09         8.1600   -0.4910   -2.8680 os        1 28A     -0.322900
     10 C10         9.5740   -0.4240   -3.0130 c3        1 28A      0.112700
     11 C11         8.4340    0.2530   -0.5380 ca        1 28A     -0.187000
     12 C12         7.8010    0.6150    0.6510 ca        1 28A     -0.098000
     13 C13         6.4130    0.6070    0.7500 ca        1 28A     -0.144000
     14 N14         3.4360    0.8230   -1.1370 nf        1 28A     -0.625100
     15 C15         2.0170    0.7830   -1.0360 c         1 28A      0.671700
     16 O16         1.2940    1.3640   -1.8570 o         1 28A     -0.510100
     17 H1         -0.3260    0.4850   -0.5580 ho        1 28A      0.443000
     18 H2          1.7200   -1.1850    1.8380 ha        1 28A      0.156000
     19 H3          4.0410   -1.6300    0.8510 hc        1 28A      0.091200
     20 H4          4.0530   -0.1360    1.8750 hc        1 28A      0.091200
     21 H5          5.6550   -0.3810   -2.4500 ha        1 28A      0.168000
     22 H6          9.7400   -0.7340   -4.0760 h1        1 28A      0.046700
     23 H7          9.9400    0.6180   -2.8440 h1        1 28A      0.046700
     24 H8         10.0750   -1.1350   -2.3120 h1        1 28A      0.046700
     25 H9          9.5310    0.2610   -0.5970 ha        1 28A      0.142000
     26 H10         8.4090    0.9120    1.5190 ha        1 28A      0.138000
     27 H11         5.9310    0.9070    1.6910 ha        1 28A      0.136000
@<TRIPOS>BOND
     1    1    2 1   
     2    1   17 1   
     3    2    3 2   
     4    2   15 1   
     5    3    4 1   
     6    3   18 1   
     7    4    5 1   
     8    4   19 1   
     9    4   20 1   
    10    5    6 1   
    11    5   14 2   
    12    6    7 ar  
    13    6   13 ar  
    14    7    8 ar  
    15    7   21 1   
    16    8    9 1   
    17    8   11 ar  
    18    9   10 1   
    19   10   22 1   
    20   10   23 1   
    21   10   24 1   
    22   11   12 ar  
    23   11   25 1   
    24   12   13 ar  
    25   12   26 1   
    26   13   27 1   
    27   14   15 1   
    28   15   16 2   
@<TRIPOS>SUBSTRUCTURE
     1 28A         1 TEMP              0 ****  ****    0 ROOT
