@<TRIPOS>MOLECULE
28A
   27    20     1     0     0
SMALL
bcc


@<TRIPOS>ATOM
      1 O01        -5.2840    0.6010    0.3410 oh        1 28A     -0.242000
      2 C02        -3.9370    0.4760    0.6210 c1        1 28A     -0.038000
      3 C03        -3.3610   -0.8530    0.8940 c1        1 28A     -0.184000
      4 C04        -1.8640   -0.9990    1.1310 c2        1 28A     -0.153000
      5 C05        -1.0720    0.2770    0.8770 c1        1 28A      0.104000
      6 C06         0.4390    0.1980    0.5750 c1        1 28A      0.014500
      7 C07         0.8890    0.1730   -0.7470 c1        1 28A     -0.148000
      8 C08         2.2620    0.2250   -1.0200 c1        1 28A      0.014500
      9 O09         2.7040    0.3350   -2.3280 o         1 28A     -0.206000
     10 C10         3.4140   -0.8220   -2.7930 c3        1 28A     -0.077000
     11 C11         3.1760    0.3020    0.0270 c1        1 28A     -0.148000
     12 C12         2.7320    0.3280    1.3350 c1        1 28A     -0.121000
     13 C13         1.3570    0.2760    1.6150 c1        1 28A     -0.121000
     14 N14        -1.7170    1.5540    0.9740 n1        1 28A     -0.198000
     15 C15        -3.0850    1.6770    0.6880 c1        1 28A      0.274000
     16 O16        -3.5530    2.7580    0.4520 o         1 28A     -0.271000
     17 H1         -5.4260    0.4030   -0.4900 ho        1 28A      0.242000
     18 H2         -3.9300   -1.5910    1.0250 ha        1 28A      0.156000
     19 H3         -1.7230   -1.4590    2.0010 ha        1 28A      0.130500
     20 H4         -1.4870   -1.6650    0.5230 ha        1 28A      0.130500
     21 H5          0.2360    0.0660   -1.4940 ha        1 28A      0.155000
     22 H6          4.1260   -1.0370   -2.1700 h1        1 28A      0.086000
     23 H7          3.7890   -0.6450   -3.6540 h1        1 28A      0.086000
     24 H8          2.7830   -1.5920   -2.8550 h1        1 28A      0.086000
     25 H9          4.1270    0.3380   -0.1620 ha        1 28A      0.155000
     26 H10         3.3710    0.3820    2.0600 ha        1 28A      0.137000
     27 H11         1.0350    0.2960    2.5740 ha        1 28A      0.137000
@<TRIPOS>BOND
     1    1    2 1   
     2    1   17 1   
     3    2    3 1   
     4    3   18 1   
     5    4    5 1   
     6    4   19 1   
     7    4   20 1   
     8    5   14 1   
     9    6    7 1   
    10    7   21 1   
    11    8   11 1   
    12    9   10 1   
    13   10   22 1   
    14   10   23 1   
    15   10   24 1   
    16   11   25 1   
    17   12   13 1   
    18   12   26 1   
    19   13   27 1   
    20   15   16 1   
@<TRIPOS>SUBSTRUCTURE
     1 28A         1 TEMP              0 ****  ****    0 ROOT
