@<TRIPOS>MOLECULE
28A
   27    28     1     0     0
SMALL
bcc


@<TRIPOS>ATOM
      1 O01         0.0280   -0.0500    0.1510 oh        1 28A     -0.487100
      2 C02         1.3960    0.0090    0.0660 ce        1 28A     -0.013100
      3 C03         2.1590   -0.5700    1.0150 c2        1 28A     -0.188200
      4 C04         3.6350   -0.5160    0.9410 c3        1 28A     -0.145500
      5 C05         4.1520    0.2200   -0.2700 ce        1 28A      0.550900
      6 C06         5.6300    0.2570   -0.3710 ca        1 28A     -0.130900
      7 C07         6.2520   -0.1430   -1.5530 ca        1 28A     -0.109000
      8 C08         7.6580   -0.1280   -1.6240 ca        1 28A      0.121100
      9 O09         8.1770   -0.5640   -2.8270 os        1 28A     -0.322900
     10 C10         9.5910   -0.4860   -2.9670 c3        1 28A      0.112700
     11 C11         8.4280    0.3000   -0.5360 ca        1 28A     -0.187000
     12 C12         7.7820    0.7130    0.6300 ca        1 28A     -0.098000
     13 C13         6.3940    0.6930    0.7210 ca        1 28A     -0.144000
     14 N14         3.4260    0.7770   -1.1920 nf        1 28A     -0.625100
     15 C15         2.0080    0.7250   -1.0970 c         1 28A      0.671700
     16 O16         1.2820    1.2550   -1.9510 o         1 28A     -0.510100
     17 H1         -0.3350    0.4230   -0.6190 ho        1 28A      0.443000
     18 H2          1.7160   -1.0980    1.8720 ha        1 28A      0.156000
     19 H3          4.0360   -0.0190    1.8690 hc        1 28A      0.091200
     20 H4          4.0490   -1.5630    0.9220 hc        1 28A      0.091200
     21 H5          5.6680   -0.4630   -2.4290 ha        1 28A      0.168000
     22 H6         10.0970   -1.1550   -2.2290 h1        1 28A      0.046700
     23 H7          9.7670   -0.8470   -4.0130 h1        1 28A      0.046700
     24 H8          9.9430    0.5670   -2.8490 h1        1 28A      0.046700
     25 H9          9.5250    0.3190   -0.5890 ha        1 28A      0.142000
     26 H10         8.3810    1.0610    1.4850 ha        1 28A      0.138000
     27 H11         5.9020    1.0350    1.6430 ha        1 28A      0.136000
@<TRIPOS>BOND
     1    1    2 1   
     2    1   17 1   
     3    2    3 2   
     4    2   15 1   
     5    3    4 1   
     6    3   18 1   
     7    4    5 1   
     8    4   19 1   
     9    4   20 1   
    10    5    6 1   
    11    5   14 2   
    12    6    7 ar  
    13    6   13 ar  
    14    7    8 ar  
    15    7   21 1   
    16    8    9 1   
    17    8   11 ar  
    18    9   10 1   
    19   10   22 1   
    20   10   23 1   
    21   10   24 1   
    22   11   12 ar  
    23   11   25 1   
    24   12   13 ar  
    25   12   26 1   
    26   13   27 1   
    27   14   15 1   
    28   15   16 2   
@<TRIPOS>SUBSTRUCTURE
     1 28A         1 TEMP              0 ****  ****    0 ROOT
