@<TRIPOS>MOLECULE
28A
   27    28     1     0     0
SMALL
bcc


@<TRIPOS>ATOM
      1 O01        -4.9050   -0.1040   -0.1450 oh        1 28A     -0.487100
      2 C02        -3.5500    0.0950   -0.0700 ce        1 28A     -0.013100
      3 C03        -2.9920    1.1760   -0.6500 c2        1 28A     -0.188200
      4 C04        -1.5330    1.4080   -0.5790 c3        1 28A     -0.145500
      5 C05        -0.7870    0.3360    0.1750 ce        1 28A      0.550900
      6 C06         0.6790    0.5420    0.2300 ca        1 28A     -0.130900
      7 C07         1.5360   -0.4900   -0.1520 ca        1 28A     -0.109000
      8 C08         2.9270   -0.2690   -0.1200 ca        1 28A      0.121100
      9 O09         3.6880   -1.3430   -0.5400 os        1 28A     -0.322900
     10 C10         5.0990   -1.1880   -0.4450 c3        1 28A      0.112700
     11 C11         3.4500    0.9570    0.3050 ca        1 28A     -0.187000
     12 C12         2.5730    1.9680    0.7010 ca        1 28A     -0.098000
     13 C13         1.1960    1.7710    0.6640 ca        1 28A     -0.144000
     14 N14        -1.3150   -0.7120    0.7340 nf        1 28A     -0.625100
     15 C15        -2.7210   -0.9120    0.6640 c         1 28A      0.671700
     16 O16        -3.2620   -1.8930    1.1950 o         1 28A     -0.510100
     17 H1         -5.1080   -0.9280    0.3320 ho        1 28A      0.443000
     18 H2         -3.5950    1.9190   -1.1920 ha        1 28A      0.156000
     19 H3         -1.1110    1.4670   -1.6220 hc        1 28A      0.091200
     20 H4         -1.3380    2.4030   -0.0880 hc        1 28A      0.091200
     21 H5          1.1500   -1.4700   -0.4710 ha        1 28A      0.168000
     22 H6          5.4500   -0.3650   -1.1150 h1        1 28A      0.046700
     23 H7          5.4070   -0.9920    0.6110 h1        1 28A      0.046700
     24 H8          5.4920   -2.1760   -0.7950 h1        1 28A      0.046700
     25 H9          4.5340    1.1310    0.3370 ha        1 28A      0.142000
     26 H10         2.9790    2.9300    1.0470 ha        1 28A      0.138000
     27 H11         0.5200    2.5740    0.9910 ha        1 28A      0.136000
@<TRIPOS>BOND
     1    1    2 1   
     2    1   17 1   
     3    2    3 2   
     4    2   15 1   
     5    3    4 1   
     6    3   18 1   
     7    4    5 1   
     8    4   19 1   
     9    4   20 1   
    10    5    6 1   
    11    5   14 2   
    12    6    7 ar  
    13    6   13 ar  
    14    7    8 ar  
    15    7   21 1   
    16    8    9 1   
    17    8   11 ar  
    18    9   10 1   
    19   10   22 1   
    20   10   23 1   
    21   10   24 1   
    22   11   12 ar  
    23   11   25 1   
    24   12   13 ar  
    25   12   26 1   
    26   13   27 1   
    27   14   15 1   
    28   15   16 2   
@<TRIPOS>SUBSTRUCTURE
     1 28A         1 TEMP              0 ****  ****    0 ROOT
