@<TRIPOS>MOLECULE
28A
   27    28     1     0     0
SMALL
bcc


@<TRIPOS>ATOM
      1 O01         0.0280   -0.0230    0.1540 oh        1 28A     -0.487100
      2 C02         1.3970    0.0290    0.0690 ce        1 28A     -0.013100
      3 C03         2.1560   -0.5690    1.0080 c2        1 28A     -0.188200
      4 C04         3.6330   -0.5230    0.9330 c3        1 28A     -0.145500
      5 C05         4.1540    0.2290   -0.2660 ce        1 28A      0.550900
      6 C06         5.6310    0.2590   -0.3670 ca        1 28A     -0.130900
      7 C07         6.2500   -0.1260   -1.5560 ca        1 28A     -0.109000
      8 C08         7.6570   -0.1180   -1.6280 ca        1 28A      0.121100
      9 O09         8.1710   -0.5380   -2.8380 os        1 28A     -0.322900
     10 C10         9.5860   -0.4670   -2.9780 c3        1 28A      0.112700
     11 C11         8.4290    0.2880   -0.5340 ca        1 28A     -0.187000
     12 C12         7.7870    0.6870    0.6390 ca        1 28A     -0.098000
     13 C13         6.3990    0.6730    0.7310 ca        1 28A     -0.144000
     14 N14         3.4300    0.8070   -1.1790 nf        1 28A     -0.625100
     15 C15         2.0120    0.7610   -1.0830 c         1 28A      0.671700
     16 O16         1.2890    1.3090   -1.9270 o         1 28A     -0.510100
     17 H1         -0.3320    0.4660   -0.6070 ho        1 28A      0.443000
     18 H2          1.7110   -1.1090    1.8560 ha        1 28A      0.156000
     19 H3          4.0400   -1.5730    0.8970 hc        1 28A      0.091200
     20 H4          4.0380   -0.0440    1.8690 hc        1 28A      0.091200
     21 H5          5.6640   -0.4280   -2.4370 ha        1 28A      0.168000
     22 H6          9.9450    0.5820   -2.8440 h1        1 28A      0.046700
     23 H7         10.0880   -1.1510   -2.2510 h1        1 28A      0.046700
     24 H8          9.7590   -0.8130   -4.0290 h1        1 28A      0.046700
     25 H9          9.5270    0.3010   -0.5880 ha        1 28A      0.142000
     26 H10         8.3890    1.0170    1.4990 ha        1 28A      0.138000
     27 H11         5.9100    1.0030    1.6590 ha        1 28A      0.136000
@<TRIPOS>BOND
     1    1    2 1   
     2    1   17 1   
     3    2    3 2   
     4    2   15 1   
     5    3    4 1   
     6    3   18 1   
     7    4    5 1   
     8    4   19 1   
     9    4   20 1   
    10    5    6 1   
    11    5   14 2   
    12    6    7 ar  
    13    6   13 ar  
    14    7    8 ar  
    15    7   21 1   
    16    8    9 1   
    17    8   11 ar  
    18    9   10 1   
    19   10   22 1   
    20   10   23 1   
    21   10   24 1   
    22   11   12 ar  
    23   11   25 1   
    24   12   13 ar  
    25   12   26 1   
    26   13   27 1   
    27   14   15 1   
    28   15   16 2   
@<TRIPOS>SUBSTRUCTURE
     1 28A         1 TEMP              0 ****  ****    0 ROOT
