@<TRIPOS>MOLECULE
28B
   24    25     1     0     0
SMALL
bcc


@<TRIPOS>ATOM
      1 O01        -0.0840   -0.0840   -0.0060 o         1 28B     -0.649500
      2 C02         1.1650   -0.0740    0.0250 c         1 28B      0.652700
      3 C03         1.9410    0.2160    1.2450 cc        1 28B      0.007900
      4 O04         1.2550    0.4860    2.4020 oh        1 28B     -0.485100
      5 C05         3.3060    0.2210    1.2450 cd        1 28B     -0.097000
      6 C06         4.0050   -0.0650    0.0240 cd        1 28B     -0.102200
      7 C07         5.4630   -0.0590    0.0040 ca        1 28B     -0.033800
      8 C08         6.1770    0.9140    0.7200 ca        1 28B     -0.098000
      9 C09         7.5690    0.9230    0.6990 ca        1 28B     -0.131000
     10 C10         8.2720   -0.0330   -0.0330 ca        1 28B     -0.090000
     11 C11         7.5660   -1.0080   -0.7500 ca        1 28B     -0.014000
     12 C12         8.2710   -1.9890   -1.4990 cg        1 28B      0.230800
     13 N13         8.8490   -2.7910   -2.1130 n1        1 28B     -0.358800
     14 C14         6.1650   -1.0240   -0.7300 ca        1 28B     -0.092000
     15 C15         3.2820   -0.3380   -1.1170 cc        1 28B     -0.013400
     16 N16         1.9050   -0.3450   -1.1280 ns        1 28B     -0.418100
     17 H1          0.3040    0.4240    2.2020 ho        1 28B      0.447000
     18 H2          3.8740    0.4290    2.1640 ha        1 28B      0.162000
     19 H3          5.6300    1.6760    1.2970 ha        1 28B      0.145000
     20 H4          8.1200    1.6910    1.2640 ha        1 28B      0.143000
     21 H5          9.3720   -0.0230   -0.0490 ha        1 28B      0.148000
     22 H6          5.6180   -1.8020   -1.2840 ha        1 28B      0.144000
     23 H7          3.7720   -0.5580   -2.0840 h4        1 28B      0.161000
     24 H8          1.4150   -0.5410   -1.9740 hn        1 28B      0.342500
@<TRIPOS>BOND
     1    1    2 2   
     2    2    3 1   
     3    2   16 1   
     4    3    4 1   
     5    3    5 2   
     6    4   17 1   
     7    5    6 1   
     8    5   18 1   
     9    6    7 1   
    10    6   15 2   
    11    7    8 ar  
    12    7   14 ar  
    13    8    9 ar  
    14    8   19 1   
    15    9   10 ar  
    16    9   20 1   
    17   10   11 ar  
    18   10   21 1   
    19   11   12 1   
    20   11   14 ar  
    21   12   13 3   
    22   14   22 1   
    23   15   16 1   
    24   15   23 1   
    25   16   24 1   
@<TRIPOS>SUBSTRUCTURE
     1 28B         1 TEMP              0 ****  ****    0 ROOT
