@<TRIPOS>MOLECULE
28B
   24    25     1     0     0
SMALL
bcc


@<TRIPOS>ATOM
      1 O01        -0.0840   -0.1220    0.0070 o         1 28B     -0.649500
      2 C02         1.1650   -0.1020    0.0340 c         1 28B      0.652700
      3 C03         1.9420    0.2060    1.2490 cc        1 28B      0.007900
      4 O04         1.2570    0.4830    2.4050 oh        1 28B     -0.485100
      5 C05         3.3070    0.2220    1.2450 cd        1 28B     -0.097000
      6 C06         4.0040   -0.0710    0.0250 cd        1 28B     -0.102200
      7 C07         5.4620   -0.0540    0.0010 ca        1 28B     -0.033800
      8 C08         6.1700    0.9320    0.7050 ca        1 28B     -0.098000
      9 C09         7.5630    0.9520    0.6800 ca        1 28B     -0.131000
     10 C10         8.2700   -0.0050   -0.0440 ca        1 28B     -0.090000
     11 C11         7.5700   -0.9940   -0.7490 ca        1 28B     -0.014000
     12 C12         8.2820   -1.9760   -1.4910 cg        1 28B      0.230800
     13 N13         8.8640   -2.7790   -2.0980 n1        1 28B     -0.358800
     14 C14         6.1700   -1.0200   -0.7260 ca        1 28B     -0.092000
     15 C15         3.2800   -0.3610   -1.1120 cc        1 28B     -0.013400
     16 N16         1.9030   -0.3790   -1.1180 n         1 28B     -0.418100
     17 H1          0.3060    0.4110    2.2090 ho        1 28B      0.447000
     18 H2          3.8750    0.4440    2.1600 ha        1 28B      0.162000
     19 H3          5.6190    1.6960    1.2760 ha        1 28B      0.145000
     20 H4          8.1090    1.7300    1.2350 ha        1 28B      0.143000
     21 H5          9.3700    0.0130   -0.0630 ha        1 28B      0.148000
     22 H6          5.6270   -1.8080   -1.2700 ha        1 28B      0.144000
     23 H7          3.7700   -0.5870   -2.0770 h4        1 28B      0.161000
     24 H8          1.4130   -0.5880   -1.9600 hn        1 28B      0.342500
@<TRIPOS>BOND
     1    1    2 2   
     2    2    3 1   
     3    2   16 1   
     4    3    4 1   
     5    3    5 2   
     6    4   17 1   
     7    5    6 1   
     8    5   18 1   
     9    6    7 1   
    10    6   15 2   
    11    7    8 ar  
    12    7   14 ar  
    13    8    9 ar  
    14    8   19 1   
    15    9   10 ar  
    16    9   20 1   
    17   10   11 ar  
    18   10   21 1   
    19   11   12 1   
    20   11   14 ar  
    21   12   13 3   
    22   14   22 1   
    23   15   16 1   
    24   15   23 1   
    25   16   24 1   
@<TRIPOS>SUBSTRUCTURE
     1 28B         1 TEMP              0 ****  ****    0 ROOT
