@<TRIPOS>MOLECULE
28B
   24    17     1     0     0
SMALL
bcc


@<TRIPOS>ATOM
      1 O01        -4.8450    0.7350   -0.1090 o         1 28B     -0.374000
      2 C02        -3.6400    0.5810   -0.1080 c1        1 28B      0.290000
      3 C03        -2.9570   -0.0260    1.0980 c2        1 28B     -0.016000
      4 O04        -3.7170   -0.4080    2.2190 oh        1 28B     -0.239000
      5 C05        -1.4950   -0.1670    1.1190 c1        1 28B     -0.098000
      6 C06        -0.7050    0.2340   -0.0530 c1        1 28B     -0.048000
      7 C07         0.8030    0.1340   -0.0180 c1        1 28B     -0.048000
      8 C08         1.5620    1.2270    0.3690 c1        1 28B     -0.069000
      9 C09         2.9450    1.1500    0.3570 c1        1 28B     -0.111000
     10 C10         3.5710   -0.0200   -0.0420 c1        1 28B     -0.111000
     11 C11         2.8130   -1.1140   -0.4290 c1        1 28B     -0.048000
     12 C12         3.4950   -2.3960   -0.8530 c1        1 28B     -0.099000
     13 N13         4.0100   -3.3620   -1.1720 n1        1 28B     -0.031000
     14 C14         1.4290   -1.0370   -0.4170 c1        1 28B     -0.069000
     15 C15        -1.3970    0.8210   -1.2640 c1        1 28B     -0.069000
     16 N16        -2.8510    0.9790   -1.2730 n1        1 28B     -0.262000
     17 H1         -3.8700   -1.2840    2.1880 ho        1 28B      0.246000
     18 H2         -1.0530   -0.5580    1.8960 ha        1 28B      0.164000
     19 H3          1.1210    2.0520    0.6500 ha        1 28B      0.149333
     20 H4          3.4790    1.9210    0.6290 ha        1 28B      0.145000
     21 H5          4.5450   -0.0740   -0.0510 ha        1 28B      0.145000
     22 H6          0.8950   -1.8080   -0.6890 ha        1 28B      0.149333
     23 H7         -0.8720    1.0870   -2.0430 ha        1 28B      0.149333
     24 H8         -3.2660    1.3330   -2.0050 hn        1 28B      0.255000
@<TRIPOS>BOND
     1    1    2 1   
     2    2    3 1   
     3    3    4 1   
     4    3    5 1   
     5    4   17 1   
     6    5   18 1   
     7    6   15 1   
     8    7    8 1   
     9    8   19 1   
    10    9   10 1   
    11    9   20 1   
    12   10   21 1   
    13   11   14 1   
    14   12   13 1   
    15   14   22 1   
    16   15   23 1   
    17   16   24 1   
@<TRIPOS>SUBSTRUCTURE
     1 28B         1 TEMP              0 ****  ****    0 ROOT
