@<TRIPOS>MOLECULE
28B
   24    25     1     0     0
SMALL
bcc


@<TRIPOS>ATOM
      1 O01         4.5370    1.0020   -0.1890 o         1 28B     -0.649500
      2 C02         3.3360    0.6600   -0.1740 c         1 28B      0.652700
      3 C03         2.8580   -0.5860    0.4560 cc        1 28B      0.007900
      4 O04         3.7810   -1.4050    1.0550 oh        1 28B     -0.485100
      5 C05         1.5380   -0.9320    0.4540 cd        1 28B     -0.097000
      6 C06         0.5890   -0.0610   -0.1780 cd        1 28B     -0.102200
      7 C07        -0.8250   -0.4170   -0.1950 ca        1 28B     -0.033800
      8 C08        -1.2160   -1.7480   -0.4080 ca        1 28B     -0.098000
      9 C09        -2.5670   -2.0900   -0.4280 ca        1 28B     -0.131000
     10 C10        -3.5460   -1.1160   -0.2380 ca        1 28B     -0.090000
     11 C11        -3.1620    0.2150   -0.0230 ca        1 28B     -0.014000
     12 C12        -4.1520    1.2160    0.1730 cg        1 28B      0.230800
     13 N13        -4.9620    2.0360    0.3330 n1        1 28B     -0.358800
     14 C14        -1.8060    0.5640    0.0000 ca        1 28B     -0.092000
     15 C15         1.0320    1.1050   -0.7670 cc        1 28B     -0.013400
     16 N16         2.3620    1.4640   -0.7700 n         1 28B     -0.418100
     17 H1          4.6540   -0.9840    0.9620 ho        1 28B      0.447000
     18 H2          1.1930   -1.8590    0.9350 ha        1 28B      0.162000
     19 H3         -0.4500   -2.5230   -0.5650 ha        1 28B      0.145000
     20 H4         -2.8640   -3.1360   -0.5960 ha        1 28B      0.143000
     21 H5         -4.6120   -1.3880   -0.2540 ha        1 28B      0.148000
     22 H6         -1.5120    1.6090    0.1830 ha        1 28B      0.144000
     23 H7          0.3430    1.8060   -1.2710 h4        1 28B      0.161000
     24 H8          2.6470    2.3120   -1.2100 hn        1 28B      0.342500
@<TRIPOS>BOND
     1    1    2 2   
     2    2    3 1   
     3    2   16 1   
     4    3    4 1   
     5    3    5 2   
     6    4   17 1   
     7    5    6 1   
     8    5   18 1   
     9    6    7 1   
    10    6   15 2   
    11    7    8 ar  
    12    7   14 ar  
    13    8    9 ar  
    14    8   19 1   
    15    9   10 ar  
    16    9   20 1   
    17   10   11 ar  
    18   10   21 1   
    19   11   12 1   
    20   11   14 ar  
    21   12   13 3   
    22   14   22 1   
    23   15   16 1   
    24   15   23 1   
    25   16   24 1   
@<TRIPOS>SUBSTRUCTURE
     1 28B         1 TEMP              0 ****  ****    0 ROOT
