@<TRIPOS>MOLECULE
28C
   35    37     1     0     0
SMALL
bcc


@<TRIPOS>ATOM
      1 CAA        -0.0110    0.0680   -0.0900 c3        1 28C     -0.149400
      2 CAP         1.4850    0.0410   -0.0910 cc        1 28C      0.445600
      3 CAH         2.1240   -0.0080    1.1960 cc        1 28C     -0.387300
      4 NAM         2.1360    0.0630   -1.2620 nd        1 28C     -0.520800
      5 NAT         3.4650    0.0370   -1.1970 na        1 28C      0.115300
      6 CAG         4.4400    0.0540   -2.2090 cc        1 28C      0.337700
      7 NAK         5.6740    0.0170   -1.6160 nd        1 28C     -0.363700
      8 NAL         5.5650   -0.0220   -0.3140 nd        1 28C     -0.072000
      9 CAS         4.2300   -0.0120    0.0180 cd        1 28C     -0.177300
     10 CAR         3.5140   -0.0410    1.2850 cd        1 28C      0.297600
     11 NAN         4.2320   -0.1150    2.4460 nu        1 28C     -0.759600
     12 CAI         3.5920   -0.0610    3.7320 c3        1 28C      0.216800
     13 CAJ         4.5880   -0.0910    4.8970 c3        1 28C     -0.042100
     14 CAQ         3.8590   -0.0160    6.1910 ca        1 28C     -0.126300
     15 CAE         3.3670    1.2140    6.6500 ca        1 28C     -0.086500
     16 CAC         2.6930    1.3040    7.8620 ca        1 28C     -0.183000
     17 CAO         2.5090    0.1410    8.6280 ca        1 28C      0.129100
     18 OAB         1.8350    0.2900    9.8170 oh        1 28C     -0.495100
     19 CAD         2.9970   -1.0960    8.1830 ca        1 28C     -0.183000
     20 CAF         3.6690   -1.1650    6.9650 ca        1 28C     -0.086500
     21 H1         -0.3560    0.9670    0.4780 hc        1 28C      0.061367
     22 H2         -0.4420    0.1070   -1.1200 hc        1 28C      0.061367
     23 H3         -0.3900   -0.8510    0.4220 hc        1 28C      0.061367
     24 H4          1.4890   -0.0220    2.0900 ha        1 28C      0.154000
     25 H5          4.2110    0.0900   -3.2770 h5        1 28C      0.094800
     26 H6          5.2240   -0.0760    2.4020 hn        1 28C      0.459800
     27 H7          2.9700    0.8790    3.8080 h1        1 28C      0.049200
     28 H8          2.8890   -0.9400    3.8270 h1        1 28C      0.049200
     29 H9          5.2000   -1.0310    4.8510 hc        1 28C      0.058700
     30 H10         5.2980    0.7770    4.8150 hc        1 28C      0.058700
     31 H11         3.5200    2.1200    6.0440 ha        1 28C      0.136000
     32 H12         2.3060    2.2640    8.2310 ha        1 28C      0.145500
     33 H13         1.7870   -0.5770   10.2450 ho        1 28C      0.421000
     34 H14         2.8510   -2.0010    8.7890 ha        1 28C      0.145500
     35 H15         4.0550   -2.1340    6.6140 ha        1 28C      0.136000
@<TRIPOS>BOND
     1    1    2 1   
     2    1   21 1   
     3    1   22 1   
     4    1   23 1   
     5    2    3 1   
     6    2    4 2   
     7    3   10 2   
     8    3   24 1   
     9    4    5 1   
    10    5    6 1   
    11    5    9 1   
    12    6    7 2   
    13    6   25 1   
    14    7    8 1   
    15    8    9 2   
    16    9   10 1   
    17   10   11 1   
    18   11   12 1   
    19   11   26 1   
    20   12   13 1   
    21   12   27 1   
    22   12   28 1   
    23   13   14 1   
    24   13   29 1   
    25   13   30 1   
    26   14   15 ar  
    27   14   20 ar  
    28   15   16 ar  
    29   15   31 1   
    30   16   17 ar  
    31   16   32 1   
    32   17   18 1   
    33   17   19 ar  
    34   18   33 1   
    35   19   20 ar  
    36   19   34 1   
    37   20   35 1   
@<TRIPOS>SUBSTRUCTURE
     1 28C         1 TEMP              0 ****  ****    0 ROOT
