@<TRIPOS>MOLECULE
28C
   36    38     1     0     0
SMALL
bcc


@<TRIPOS>ATOM
      1 CAA        -0.0160    0.0490    0.0440 c3        1 28C     -0.161400
      2 CAP         1.4760    0.0280   -0.0230 cc        1 28C      0.389600
      3 CAH         2.1790    0.0230    1.2580 cc        1 28C     -0.151300
      4 NAM         2.0900    0.0160   -1.2090 nd        1 28C     -0.389800
      5 NAT         3.4140   -0.0020   -1.2100 na        1 28C      0.087300
      6 CAG         4.3660   -0.0180   -2.2550 cc        1 28C      0.410700
      7 NAK         5.6120   -0.0330   -1.6950 nd        1 28C     -0.315700
      8 NAL         5.5470   -0.0280   -0.3850 nd        1 28C     -0.052000
      9 CAS         4.2290   -0.0090   -0.0150 cd        1 28C     -0.184300
     10 CAR         3.5490    0.0040    1.2570 cd        1 28C      0.037600
     11 NAN         4.4140   -0.0030    2.4320 n4        1 28C     -0.628400
     12 CAI         3.6890    0.0000    3.7400 c3        1 28C      0.099800
     13 CAJ         4.6530   -0.0050    4.9300 c3        1 28C     -0.038100
     14 CAQ         3.8560    0.0260    6.1840 ca        1 28C     -0.178300
     15 CAE         3.3570    1.2450    6.6670 ca        1 28C     -0.075000
     16 CAC         2.6310    1.2960    7.8480 ca        1 28C     -0.180500
     17 CAO         2.4050    0.1030    8.5650 ca        1 28C      0.163100
     18 OAB         1.6780    0.2200    9.7180 oh        1 28C     -0.476100
     19 CAD         2.9060   -1.1210    8.0950 ca        1 28C     -0.180500
     20 CAF         3.6300   -1.1500    6.9070 ca        1 28C     -0.075000
     21 H1         -0.3710   -0.8560    0.5990 hc        1 28C      0.084033
     22 H2         -0.3460    0.9680    0.5920 hc        1 28C      0.084033
     23 H3         -0.4900    0.0510   -0.9700 hc        1 28C      0.084033
     24 H4          1.5640    0.0340    2.1710 ha        1 28C      0.183000
     25 H5          4.1040   -0.0170   -3.3220 h5        1 28C      0.127800
     26 H6          5.0180   -0.8390    2.3770 hn        1 28C      0.473800
     27 H7          3.0420    0.9230    3.7810 hx        1 28C      0.108700
     28 H8          3.0310   -0.9140    3.7770 hx        1 28C      0.108700
     29 H9          5.3280    0.8930    4.8870 hc        1 28C      0.072200
     30 H10         5.2990   -0.9230    4.9030 hc        1 28C      0.072200
     31 H11         3.5520    2.1760    6.1130 ha        1 28C      0.134500
     32 H12         2.2380    2.2450    8.2410 ha        1 28C      0.161500
     33 H13         1.6260   -0.6510   10.1420 ho        1 28C      0.436000
     34 H14         2.7360   -2.0460    8.6650 ha        1 28C      0.161500
     35 H15         4.0350   -2.1080    6.5470 ha        1 28C      0.134500
     36 HAN2        5.0290    0.8260    2.3790 hn        1 28C      0.473800
@<TRIPOS>BOND
     1    1    2 1   
     2    1   21 1   
     3    1   22 1   
     4    1   23 1   
     5    2    3 1   
     6    2    4 2   
     7    3   10 2   
     8    3   24 1   
     9    4    5 1   
    10    5    6 1   
    11    5    9 1   
    12    6    7 2   
    13    6   25 1   
    14    7    8 1   
    15    8    9 2   
    16    9   10 1   
    17   10   11 1   
    18   11   12 1   
    19   11   26 1   
    20   11   36 1   
    21   12   13 1   
    22   12   27 1   
    23   12   28 1   
    24   13   14 1   
    25   13   29 1   
    26   13   30 1   
    27   14   15 ar  
    28   14   20 ar  
    29   15   16 ar  
    30   15   31 1   
    31   16   17 ar  
    32   16   32 1   
    33   17   18 1   
    34   17   19 ar  
    35   18   33 1   
    36   19   20 ar  
    37   19   34 1   
    38   20   35 1   
@<TRIPOS>SUBSTRUCTURE
     1 28C         1 TEMP              0 ****  ****    0 ROOT
