@<TRIPOS>MOLECULE
28C
   35    37     1     0     0
SMALL
bcc


@<TRIPOS>ATOM
      1 CAA        -0.0110    0.0580   -0.0900 c3        1 28C     -0.149400
      2 CAP         1.4840    0.0340   -0.0910 cc        1 28C      0.445600
      3 CAH         2.1240   -0.0060    1.1960 cc        1 28C     -0.387300
      4 NAM         2.1350    0.0500   -1.2630 nd        1 28C     -0.521800
      5 NAT         3.4640    0.0260   -1.1980 na        1 28C      0.115300
      6 CAG         4.4390    0.0380   -2.2100 cc        1 28C      0.337700
      7 NAK         5.6730    0.0070   -1.6170 nd        1 28C     -0.363700
      8 NAL         5.5650   -0.0240   -0.3150 nd        1 28C     -0.072000
      9 CAS         4.2300   -0.0140    0.0170 cd        1 28C     -0.177300
     10 CAR         3.5140   -0.0350    1.2850 cd        1 28C      0.297600
     11 NAN         4.2320   -0.0960    2.4460 nh        1 28C     -0.759600
     12 CAI         3.5920   -0.0490    3.7330 c3        1 28C      0.216800
     13 CAJ         4.5890   -0.0750    4.8970 c3        1 28C     -0.043100
     14 CAQ         3.8590   -0.0080    6.1910 ca        1 28C     -0.126300
     15 CAE         3.3600    1.2180    6.6530 ca        1 28C     -0.086500
     16 CAC         2.6860    1.3020    7.8650 ca        1 28C     -0.183000
     17 CAO         2.5090    0.1350    8.6290 ca        1 28C      0.129100
     18 OAB         1.8340    0.2780    9.8180 oh        1 28C     -0.495100
     19 CAD         3.0050   -1.0970    8.1810 ca        1 28C     -0.183000
     20 CAF         3.6770   -1.1590    6.9630 ca        1 28C     -0.086500
     21 H1         -0.3590    0.9610    0.4710 hc        1 28C      0.061367
     22 H2         -0.3890   -0.8580    0.4280 hc        1 28C      0.061367
     23 H3         -0.4430    0.0900   -1.1210 hc        1 28C      0.061367
     24 H4          1.4890   -0.0150    2.0900 ha        1 28C      0.154000
     25 H5          4.2100    0.0670   -3.2790 h5        1 28C      0.094800
     26 H6          5.2250   -0.0640    2.4010 hn        1 28C      0.459800
     27 H7          2.8940   -0.9310    3.8260 h1        1 28C      0.048700
     28 H8          2.9660    0.8880    3.8100 h1        1 28C      0.048700
     29 H9          5.2930    0.7970    4.8170 hc        1 28C      0.058700
     30 H10         5.2060   -1.0120    4.8490 hc        1 28C      0.058700
     31 H11         3.5060    2.1270    6.0480 ha        1 28C      0.136500
     32 H12         2.2910    2.2580    8.2360 ha        1 28C      0.145500
     33 H13         1.7920   -0.5900   10.2450 ho        1 28C      0.421000
     34 H14         2.8660   -2.0040    8.7860 ha        1 28C      0.145500
     35 H15         4.0700   -2.1250    6.6100 ha        1 28C      0.136500
@<TRIPOS>BOND
     1    1    2 1   
     2    1   21 1   
     3    1   22 1   
     4    1   23 1   
     5    2    3 1   
     6    2    4 2   
     7    3   10 2   
     8    3   24 1   
     9    4    5 1   
    10    5    6 1   
    11    5    9 1   
    12    6    7 2   
    13    6   25 1   
    14    7    8 1   
    15    8    9 2   
    16    9   10 1   
    17   10   11 1   
    18   11   12 1   
    19   11   26 1   
    20   12   13 1   
    21   12   27 1   
    22   12   28 1   
    23   13   14 1   
    24   13   29 1   
    25   13   30 1   
    26   14   15 ar  
    27   14   20 ar  
    28   15   16 ar  
    29   15   31 1   
    30   16   17 ar  
    31   16   32 1   
    32   17   18 1   
    33   17   19 ar  
    34   18   33 1   
    35   19   20 ar  
    36   19   34 1   
    37   20   35 1   
@<TRIPOS>SUBSTRUCTURE
     1 28C         1 TEMP              0 ****  ****    0 ROOT
