@<TRIPOS>MOLECULE
28D
   48    50     1     0     0
SMALL
bcc


@<TRIPOS>ATOM
      1 C01         0.8520   -2.9240   -0.5310 c2        1 28D     -0.177000
      2 C02         1.5350   -3.9990    0.1200 c1        1 28D     -0.109000
      3 N03         2.0840   -4.8820    0.6410 n1        1 28D      0.018000
      4 N04         1.1570   -1.6050   -0.1140 na        1 28D     -0.109000
      5 C05         2.0940   -1.2150    0.8750 c2        1 28D     -0.050000
      6 N06         2.0890    0.1260    0.9700 n2        1 28D     -0.152000
      7 C07         1.1310    0.5320    0.0170 c2        1 28D     -0.139000
      8 N08         0.5620   -0.5100   -0.6440 n2        1 28D     -0.091000
      9 C09        -0.0440   -3.2350   -1.5040 c1        1 28D      0.359000
     10 C10        -0.2120    3.8790   -0.3870 ca        1 28D     -0.173000
     11 C11         1.1130    4.1810   -0.0180 ca        1 28D     -0.106000
     12 C12         1.9880    4.8130   -0.8880 ca        1 28D     -0.137000
     13 C13         1.5040    5.1340   -2.1640 ca        1 28D     -0.010000
     14 N14         2.0760    5.8090   -3.2560 na        1 28D     -0.188000
     15 N15         1.2370    5.8700   -4.2950 n2        1 28D     -0.032000
     16 C16         0.0520    5.3150   -3.9300 c2        1 28D     -0.063000
     17 C17        -1.1230    5.2360   -4.7860 ca        1 28D      0.049000
     18 C18        -1.4460    6.3010   -5.6330 ca        1 28D     -0.206000
     19 C19        -2.5840    6.2180   -6.4470 ca        1 28D      0.087500
     20 O20        -3.0080    7.2260   -7.2870 os        1 28D     -0.197000
     21 C21        -2.0990    8.3070   -7.4760 c3        1 28D     -0.078500
     22 C22        -3.3920    5.0610   -6.4380 ca        1 28D      0.003000
     23 O23        -4.4190    4.9450   -7.3540 os        1 28D     -0.193000
     24 C24        -5.7210    5.0340   -6.7710 c3        1 28D     -0.074000
     25 C25        -3.0530    4.0030   -5.5670 ca        1 28D      0.087500
     26 O26        -3.9210    2.9290   -5.5740 os        1 28D     -0.197000
     27 C27        -3.4780    1.7610   -4.8910 c3        1 28D     -0.078500
     28 C28        -1.9230    4.0880   -4.7470 ca        1 28D     -0.206000
     29 C29         0.1500    4.8160   -2.5570 ca        1 28D     -0.115000
     30 C30        -0.7030    4.1960   -1.6460 ca        1 28D     -0.061000
     31 H051        2.7010   -1.9270    1.4450 h5        1 28D      0.221000
     32 H071        0.8830    1.5890   -0.1620 h5        1 28D      0.225000
     33 H091       -0.8710    3.3930    0.3480 ha        1 28D      0.136000
     34 H111        1.4590    3.9100    0.9930 ha        1 28D      0.141000
     35 H121        3.0170    5.0550   -0.5900 ha        1 28D      0.142000
     36 H141        3.0450    5.9730   -3.3980 hn        1 28D      0.273000
     37 H181       -0.8090    7.1960   -5.6540 ha        1 28D      0.150000
     38 H213       -1.1090    7.9380   -7.8370 h1        1 28D      0.085333
     39 H211       -2.6010    8.9290   -8.2600 h1        1 28D      0.085333
     40 H212       -1.9810    8.8880   -6.5290 h1        1 28D      0.085333
     41 H243       -6.4070    4.9050   -7.6450 h1        1 28D      0.081000
     42 H241       -5.8680    4.2170   -6.0240 h1        1 28D      0.081000
     43 H242       -5.8670    6.0330   -6.2960 h1        1 28D      0.081000
     44 H273       -2.4820    1.4290   -5.2720 h1        1 28D      0.085333
     45 H272       -3.4350    1.9470   -3.7900 h1        1 28D      0.085333
     46 H271       -4.2680    1.0060   -5.1330 h1        1 28D      0.085333
     47 H281       -1.6470    3.2580   -4.0820 ha        1 28D      0.150000
     48 H301       -1.7440    3.9710   -1.9230 ha        1 28D      0.144000
@<TRIPOS>BOND
     1    1    2 1   
     2    1    4 1   
     3    1    9 1   
     4    2    3 1   
     5    4    5 1   
     6    4    8 1   
     7    5    6 1   
     8    5   31 1   
     9    6    7 1   
    10    7    8 1   
    11    7   32 1   
    12   10   11 1   
    13   10   30 1   
    14   10   33 1   
    15   11   12 1   
    16   11   34 1   
    17   12   13 1   
    18   12   35 1   
    19   13   14 1   
    20   13   29 1   
    21   14   15 1   
    22   14   36 1   
    23   15   16 1   
    24   16   17 1   
    25   16   29 1   
    26   17   18 1   
    27   17   28 1   
    28   18   19 1   
    29   18   37 1   
    30   19   20 1   
    31   19   22 1   
    32   20   21 1   
    33   21   38 1   
    34   21   39 1   
    35   21   40 1   
    36   22   23 1   
    37   22   25 1   
    38   23   24 1   
    39   24   41 1   
    40   24   42 1   
    41   24   43 1   
    42   25   26 1   
    43   25   28 1   
    44   26   27 1   
    45   27   44 1   
    46   27   45 1   
    47   27   46 1   
    48   28   47 1   
    49   29   30 1   
    50   30   48 1   
@<TRIPOS>SUBSTRUCTURE
     1 28D         1 TEMP              0 ****  ****    0 ROOT
