@<TRIPOS>MOLECULE
28D
   48    51     1     0     0
SMALL
bcc


@<TRIPOS>ATOM
      1 C01         0.1720    0.8240    0.3940 c2        1 28D      0.002000
      2 C02        -0.8020    0.7330    1.4400 c1        1 28D     -0.054000
      3 N03        -1.6170    0.6970    2.2690 n1        1 28D     -0.075000
      4 N04         1.2230   -0.1670    0.4830 na        1 28D     -0.099000
      5 C05         1.4710   -1.0120    1.5840 c2        1 28D     -0.095000
      6 N06         2.5030   -1.8410    1.2950 n2        1 28D     -0.169000
      7 C07         2.8590   -1.4710   -0.0070 c2        1 28D     -0.170000
      8 N08         2.0840   -0.4590   -0.5040 n2        1 28D     -0.155000
      9 C09         0.0180    1.7710   -0.5240 c1        1 28D     -0.297000
     10 C10         0.8150    2.1260   -1.7180 c3        1 28D     -0.061000
     11 C11         2.1230    2.7010   -1.3510 c2        1 28D      0.004000
     12 C12         2.5780    3.9160   -1.7910 c2        1 28D     -0.217000
     13 C13         1.7690    4.6330   -2.7000 c2        1 28D      0.126000
     14 N14         1.9210    5.8500   -3.3260 na        1 28D     -0.168000
     15 N15         0.8810    6.1510   -4.1390 n2        1 28D     -0.039000
     16 C16        -0.0090    5.1350   -4.0890 c2        1 28D      0.019000
     17 C17        -1.2620    5.0840   -4.8270 ca        1 28D      0.012000
     18 C18        -2.0010    6.2540   -5.0270 ca        1 28D     -0.195500
     19 C19        -3.2120    6.1960   -5.7300 ca        1 28D      0.090000
     20 O20        -4.0290    7.2810   -5.9540 os        1 28D     -0.190000
     21 C21        -3.5130    8.5510   -5.5650 c3        1 28D     -0.080500
     22 C22        -3.6770    4.9730   -6.2590 ca        1 28D      0.024000
     23 O23        -4.7930    4.9770   -7.0710 os        1 28D     -0.192000
     24 C24        -5.9300    4.3200   -6.5040 c3        1 28D     -0.075000
     25 C25        -2.9170    3.8020   -6.0400 ca        1 28D      0.090000
     26 O26        -3.4580    2.6440   -6.5570 os        1 28D     -0.190000
     27 C27        -2.6670    1.4660   -6.4360 c3        1 28D     -0.080500
     28 C28        -1.7140    3.8570   -5.3280 ca        1 28D     -0.195500
     29 C29         0.4860    4.0950   -3.1630 c2        1 28D     -0.208000
     30 C30         0.0060    2.9240   -2.6640 c2        1 28D      0.117000
     31 H051        0.8980   -0.9770    2.5160 h5        1 28D      0.214000
     32 H071        3.6710   -1.9470   -0.5640 h5        1 28D      0.198000
     33 H091        1.0190    1.1280   -2.2590 hc        1 28D      0.216000
     34 H111        2.7400    2.1040   -0.6550 ha        1 28D      0.178000
     35 H121        3.5410    4.3270   -1.4560 ha        1 28D      0.161000
     36 H141        2.6750    6.4940   -3.2370 hn        1 28D      0.295000
     37 H181       -1.6350    7.2110   -4.6270 ha        1 28D      0.147500
     38 H213       -4.3060    9.2630   -5.9080 h1        1 28D      0.088500
     39 H211       -3.3910    8.6020   -4.4560 h1        1 28D      0.088500
     40 H212       -2.5440    8.7610   -6.0790 h1        1 28D      0.088500
     41 H243       -6.7090    4.4220   -7.3000 h1        1 28D      0.085667
     42 H241       -5.6990    3.2460   -6.3030 h1        1 28D      0.085667
     43 H242       -6.2470    4.8380   -5.5670 h1        1 28D      0.085667
     44 H273       -1.6810    1.5960   -6.9440 h1        1 28D      0.088500
     45 H272       -2.5270    1.1960   -5.3620 h1        1 28D      0.088500
     46 H271       -3.2830    0.6910   -6.9610 h1        1 28D      0.088500
     47 H281       -1.1130    2.9500   -5.1760 ha        1 28D      0.147500
     48 H301       -0.9890    2.5270   -2.9330 ha        1 28D      0.176000
@<TRIPOS>BOND
     1    1    2 1   
     2    1    4 1   
     3    1    9 1   
     4    2    3 1   
     5    4    5 1   
     6    4    8 1   
     7    5    6 1   
     8    5   31 1   
     9    6    7 1   
    10    7    8 1   
    11    7   32 1   
    12    9   10 1   
    13   10   11 1   
    14   10   30 1   
    15   10   33 1   
    16   11   12 1   
    17   11   34 1   
    18   12   13 1   
    19   12   35 1   
    20   13   14 1   
    21   13   29 1   
    22   14   15 1   
    23   14   36 1   
    24   15   16 1   
    25   16   17 1   
    26   16   29 1   
    27   17   18 1   
    28   17   28 1   
    29   18   19 1   
    30   18   37 1   
    31   19   20 1   
    32   19   22 1   
    33   20   21 1   
    34   21   38 1   
    35   21   39 1   
    36   21   40 1   
    37   22   23 1   
    38   22   25 1   
    39   23   24 1   
    40   24   41 1   
    41   24   42 1   
    42   24   43 1   
    43   25   26 1   
    44   25   28 1   
    45   26   27 1   
    46   27   44 1   
    47   27   45 1   
    48   27   46 1   
    49   28   47 1   
    50   29   30 1   
    51   30   48 1   
@<TRIPOS>SUBSTRUCTURE
     1 28D         1 TEMP              0 ****  ****    0 ROOT
