@<TRIPOS>MOLECULE
28D
   48    50     1     0     0
SMALL
bcc


@<TRIPOS>ATOM
      1 C01        -1.1840   -1.1260    1.5610 c2        1 28D     -0.179000
      2 C02        -1.5300    0.1540    2.0980 c1        1 28D     -0.111000
      3 N03        -1.8190    1.1880    2.5430 n1        1 28D      0.021000
      4 N04        -0.2560   -1.1620    0.4920 na        1 28D     -0.106000
      5 C05         0.3310   -0.0540   -0.1690 c2        1 28D     -0.048000
      6 N06         1.1550   -0.5110   -1.1280 n2        1 28D     -0.158000
      7 C07         1.0500   -1.9150   -1.0290 c2        1 28D     -0.136000
      8 N08         0.1970   -2.3170   -0.0500 n2        1 28D     -0.089000
      9 C09        -1.7650   -2.2240    2.1120 c1        1 28D      0.363000
     10 C10         2.2820    2.8960   -2.4860 ca        1 28D     -0.159000
     11 C11         3.2620    3.7240   -1.9070 ca        1 28D     -0.101000
     12 C12         3.1720    5.1070   -1.9560 ca        1 28D     -0.140000
     13 C13         2.0650    5.6550   -2.6180 ca        1 28D     -0.015000
     14 N14         1.6260    6.9810   -2.8000 na        1 28D     -0.186000
     15 N15         0.5060    7.0310   -3.5310 n2        1 28D     -0.036000
     16 C16         0.0960    5.7620   -3.7900 c2        1 28D     -0.064000
     17 C17        -1.1170    5.4180   -4.5150 ca        1 28D      0.050000
     18 C18        -2.2820    6.1700   -4.3320 ca        1 28D     -0.206000
     19 C19        -3.4480    5.8240   -5.0280 ca        1 28D      0.087500
     20 O20        -4.6540    6.4790   -4.8890 os        1 28D     -0.197000
     21 C21        -4.6200    7.7040   -4.1640 c3        1 28D     -0.078500
     22 C22        -3.4510    4.7390   -5.9310 ca        1 28D      0.002000
     23 O23        -4.5670    4.5110   -6.7120 os        1 28D     -0.193000
     24 C24        -5.2920    3.3340   -6.3500 c3        1 28D     -0.074000
     25 C25        -2.2680    3.9850   -6.0910 ca        1 28D      0.087500
     26 O26        -2.3650    2.9070   -6.9480 os        1 28D     -0.197000
     27 C27        -1.1390    2.2750   -7.2990 c3        1 28D     -0.078500
     28 C28        -1.1060    4.3240   -5.3900 ca        1 28D     -0.206000
     29 C29         1.0610    4.8130   -3.2270 ca        1 28D     -0.114000
     30 C30         1.1810    3.4280   -3.1420 ca        1 28D     -0.069000
     31 H051        0.1170    0.9890    0.0930 h5        1 28D      0.225000
     32 H071        1.6050   -2.5980   -1.6810 h5        1 28D      0.217000
     33 H091        2.3940    1.8020   -2.4090 ha        1 28D      0.150000
     34 H111        4.1210    3.2570   -1.4010 ha        1 28D      0.135000
     35 H121        3.9340    5.7480   -1.4940 ha        1 28D      0.139000
     36 H141        2.2010    7.7890   -2.7410 hn        1 28D      0.269000
     37 H181       -2.2770    7.0260   -3.6430 ha        1 28D      0.150500
     38 H213       -3.8790    8.4110   -4.6070 h1        1 28D      0.085333
     39 H211       -5.6620    8.0980   -4.2780 h1        1 28D      0.085333
     40 H212       -4.3870    7.5130   -3.0880 h1        1 28D      0.085333
     41 H243       -6.1320    3.3070   -7.0870 h1        1 28D      0.080667
     42 H241       -4.6410    2.4310   -6.4520 h1        1 28D      0.080667
     43 H242       -5.6800    3.4230   -5.3080 h1        1 28D      0.080667
     44 H273       -0.4180    3.0120   -7.7280 h1        1 28D      0.085333
     45 H272       -0.6950    1.7630   -6.4110 h1        1 28D      0.085333
     46 H271       -1.4470    1.5260   -8.0730 h1        1 28D      0.085333
     47 H281       -0.1780    3.7510   -5.5280 ha        1 28D      0.150500
     48 H301        0.4120    2.7740   -3.5810 ha        1 28D      0.142000
@<TRIPOS>BOND
     1    1    2 1   
     2    1    4 1   
     3    1    9 1   
     4    2    3 1   
     5    4    5 1   
     6    4    8 1   
     7    5    6 1   
     8    5   31 1   
     9    6    7 1   
    10    7    8 1   
    11    7   32 1   
    12   10   11 1   
    13   10   30 1   
    14   10   33 1   
    15   11   12 1   
    16   11   34 1   
    17   12   13 1   
    18   12   35 1   
    19   13   14 1   
    20   13   29 1   
    21   14   15 1   
    22   14   36 1   
    23   15   16 1   
    24   16   17 1   
    25   16   29 1   
    26   17   18 1   
    27   17   28 1   
    28   18   19 1   
    29   18   37 1   
    30   19   20 1   
    31   19   22 1   
    32   20   21 1   
    33   21   38 1   
    34   21   39 1   
    35   21   40 1   
    36   22   23 1   
    37   22   25 1   
    38   23   24 1   
    39   24   41 1   
    40   24   42 1   
    41   24   43 1   
    42   25   26 1   
    43   25   28 1   
    44   26   27 1   
    45   27   44 1   
    46   27   45 1   
    47   27   46 1   
    48   28   47 1   
    49   29   30 1   
    50   30   48 1   
@<TRIPOS>SUBSTRUCTURE
     1 28D         1 TEMP              0 ****  ****    0 ROOT
