@<TRIPOS>MOLECULE
28E
   35    37     1     0     0
SMALL
bcc


@<TRIPOS>ATOM
      1 OAB         0.0320    0.1870   -0.2010 oh        1 28E     -0.490100
      2 CAT         1.3990    0.1180   -0.0790 ca        1 28E      0.187100
      3 CAK         2.0370    0.1270    1.1690 ca        1 28E     -0.326000
      4 CAY         3.4350    0.0490    1.2080 ca        1 28E      0.193100
      5 OAG         4.1290    0.0490    2.3940 oh        1 28E     -0.492100
      6 CBD         4.2050   -0.0390    0.0330 ca        1 28E     -0.210300
      7 CAP         5.6830   -0.1420    0.1010 c3        1 28E     -0.053100
      8 CAN         2.1240    0.0450   -1.2750 ca        1 28E     -0.210000
      9 CBC         3.5210   -0.0310   -1.1960 ca        1 28E      0.174100
     10 OAR         4.1780   -0.1460   -2.4060 os        1 28E     -0.320900
     11 CBF         5.5710    0.2400   -2.3560 c3        1 28E      0.157400
     12 CBE         6.2860   -0.5480   -1.2430 c3        1 28E      0.120100
     13 OAQ         6.2020   -1.9460   -1.4400 oh        1 28E     -0.583800
     14 CBA         6.1360   -0.0060   -3.7190 ca        1 28E     -0.086300
     15 CAO         6.8810    1.0080   -4.3330 ca        1 28E     -0.121000
     16 CAV         7.4290    0.7890   -5.6010 ca        1 28E      0.105100
     17 OAD         8.1610    1.8120   -6.1570 oh        1 28E     -0.496100
     18 CAU         7.2180   -0.4450   -6.2550 ca        1 28E      0.051100
     19 OAC         7.7890   -0.5780   -7.5040 oh        1 28E     -0.516100
     20 CAI         6.4660   -1.4480   -5.6380 ca        1 28E     -0.175000
     21 CAJ         5.9300   -1.2240   -4.3720 ca        1 28E     -0.082000
     22 H1         -0.3470    0.2430    0.6890 ho        1 28E      0.422000
     23 H2          1.4550    0.1920    2.0970 ha        1 28E      0.138000
     24 H3          3.4860    0.0890    3.1180 ho        1 28E      0.423000
     25 H4          6.1120    0.8450    0.4210 hc        1 28E      0.072200
     26 H5          5.9720   -0.8990    0.8790 hc        1 28E      0.072200
     27 H6          1.6130    0.0450   -2.2470 ha        1 28E      0.171000
     28 H7          5.6160    1.3380   -2.1050 h1        1 28E      0.066700
     29 H8          7.3900   -0.3290   -1.2680 h1        1 28E      0.093700
     30 H9          5.2620   -2.1730   -1.4550 ho        1 28E      0.407000
     31 H10         7.0450    1.9770   -3.8400 ha        1 28E      0.153000
     32 H11         8.4640    1.5220   -7.0310 ho        1 28E      0.437000
     33 H12         7.5690   -1.4590   -7.8370 ho        1 28E      0.431000
     34 H13         6.3020   -2.4080   -6.1490 ha        1 28E      0.138000
     35 H14         5.3440   -2.0110   -3.8720 ha        1 28E      0.149000
@<TRIPOS>BOND
     1    1    2 1   
     2    1   22 1   
     3    2    3 ar  
     4    2    8 ar  
     5    3    4 ar  
     6    3   23 1   
     7    4    5 1   
     8    4    6 ar  
     9    5   24 1   
    10    6    7 1   
    11    6    9 ar  
    12    7   12 1   
    13    7   25 1   
    14    7   26 1   
    15    8    9 ar  
    16    8   27 1   
    17    9   10 1   
    18   10   11 1   
    19   11   12 1   
    20   11   14 1   
    21   11   28 1   
    22   12   13 1   
    23   12   29 1   
    24   13   30 1   
    25   14   15 ar  
    26   14   21 ar  
    27   15   16 ar  
    28   15   31 1   
    29   16   17 1   
    30   16   18 ar  
    31   17   32 1   
    32   18   19 1   
    33   18   20 ar  
    34   19   33 1   
    35   20   21 ar  
    36   20   34 1   
    37   21   35 1   
@<TRIPOS>SUBSTRUCTURE
     1 28E         1 TEMP              0 ****  ****    0 ROOT
