@<TRIPOS>MOLECULE
28E
   35    37     1     0     0
SMALL
bcc


@<TRIPOS>ATOM
      1 OAB         4.5750   -2.8140    0.4150 oh        1 28E     -0.491100
      2 CAT         3.8990   -1.6270    0.2690 ca        1 28E      0.186100
      3 CAK         4.5680   -0.4030    0.1400 ca        1 28E     -0.277000
      4 CAY         3.8060    0.7630   -0.0130 ca        1 28E      0.196100
      5 OAG         4.5350    1.9230   -0.1370 oh        1 28E     -0.496100
      6 CBD         2.3990    0.7320   -0.0470 ca        1 28E     -0.266300
      7 CAP         1.6040    1.9650   -0.2660 c3        1 28E     -0.056100
      8 CAN         2.5010   -1.7050    0.2680 ca        1 28E     -0.217000
      9 CBC         1.7720   -0.5180    0.1140 ca        1 28E      0.203100
     10 OAR         0.4010   -0.6800    0.1060 os        1 28E     -0.302900
     11 CBF        -0.3520    0.5290    0.3240 c3        1 28E      0.203400
     12 CBE         0.1410    1.6640   -0.5900 c3        1 28E      0.122100
     13 OAQ        -0.0400    1.2580   -1.9370 oh        1 28E     -0.582800
     14 CBA        -1.7920    0.1820    0.1090 ca        1 28E     -0.091300
     15 CAO        -2.7270    0.5310    1.0900 ca        1 28E     -0.121000
     16 CAV        -4.0770    0.2180    0.8960 ca        1 28E      0.101100
     17 OAD        -4.9590    0.5950    1.8820 oh        1 28E     -0.497100
     18 CAU        -4.4810   -0.4550   -0.2770 ca        1 28E      0.052100
     19 OAC        -5.8290   -0.7280   -0.3890 oh        1 28E     -0.517100
     20 CAI        -3.5380   -0.8070   -1.2480 ca        1 28E     -0.179000
     21 CAJ        -2.1970   -0.4840   -1.0510 ca        1 28E     -0.074000
     22 H1          5.5250   -2.6220    0.4010 ho        1 28E      0.423000
     23 H2          5.6630   -0.3410    0.1550 ha        1 28E      0.154000
     24 H3          3.9240    2.6740   -0.1420 ho        1 28E      0.421000
     25 H4          1.6430    2.6080    0.6550 hc        1 28E      0.049700
     26 H5          2.0450    2.5590   -1.1130 hc        1 28E      0.049700
     27 H6          1.9880   -2.6690    0.3810 ha        1 28E      0.171000
     28 H7         -0.1790    0.8530    1.3910 h1        1 28E      0.060700
     29 H8         -0.4830    2.5830   -0.4000 h1        1 28E      0.051700
     30 H9          0.4300    1.8940   -2.4900 ho        1 28E      0.404000
     31 H10        -2.4250    1.0440    2.0140 ha        1 28E      0.151000
     32 H11        -5.8410    0.2830    1.6270 ho        1 28E      0.437000
     33 H12        -5.9620   -1.2230   -1.2100 ho        1 28E      0.430000
     34 H13        -3.8560   -1.3330   -2.1590 ha        1 28E      0.138000
     35 H14        -1.4410   -0.7420   -1.8110 ha        1 28E      0.164000
@<TRIPOS>BOND
     1    1    2 1   
     2    1   22 1   
     3    2    3 ar  
     4    2    8 ar  
     5    3    4 ar  
     6    3   23 1   
     7    4    5 1   
     8    4    6 ar  
     9    5   24 1   
    10    6    7 1   
    11    6    9 ar  
    12    7   12 1   
    13    7   25 1   
    14    7   26 1   
    15    8    9 ar  
    16    8   27 1   
    17    9   10 1   
    18   10   11 1   
    19   11   12 1   
    20   11   14 1   
    21   11   28 1   
    22   12   13 1   
    23   12   29 1   
    24   13   30 1   
    25   14   15 ar  
    26   14   21 ar  
    27   15   16 ar  
    28   15   31 1   
    29   16   17 1   
    30   16   18 ar  
    31   17   32 1   
    32   18   19 1   
    33   18   20 ar  
    34   19   33 1   
    35   20   21 ar  
    36   20   34 1   
    37   21   35 1   
@<TRIPOS>SUBSTRUCTURE
     1 28E         1 TEMP              0 ****  ****    0 ROOT
