@<TRIPOS>MOLECULE
28E
   35    32     1     0     0
SMALL
bcc


@<TRIPOS>ATOM
      1 OAB        -5.3290    0.0550    2.1060 oh        1 28E     -0.235000
      2 CAT        -3.9210    0.1190    2.1260 c1        1 28E      0.105000
      3 CAK        -3.2150    0.1090    3.3920 c1        1 28E     -0.326000
      4 CAY        -1.7960    0.1050    3.4170 c1        1 28E      0.148000
      5 OAG        -1.1140    0.1600    4.6470 o         1 28E     -0.246000
      6 CBD        -1.0880    0.1090    2.2390 c2        1 28E     -0.204000
      7 CAP         0.4760    0.1020    2.1970 c3        1 28E     -0.139000
      8 CAN        -3.1950    0.1240    0.9060 c1        1 28E     -0.200500
      9 CBC        -1.8220    0.1190    0.9230 c1        1 28E      0.128000
     10 OAR        -0.9840    0.3130   -0.3690 os        1 28E     -0.203000
     11 CBF         0.3430    0.6190   -0.2200 c3        1 28E      0.040000
     12 CBE         1.0620   -0.0310    0.9210 c3        1 28E      0.009000
     13 OAQ         1.1740   -1.5150    0.6140 oh        1 28E     -0.311000
     14 CBA         1.0950    0.2090   -1.5700 c2        1 28E     -0.081000
     15 CAO         2.0460    1.0560   -2.1180 c2        1 28E     -0.170000
     16 CAV         2.6480    0.7360   -3.3260 c1        1 28E      0.050000
     17 OAD         3.6370    1.5790   -3.8650 oh        1 28E     -0.229000
     18 CAU         2.2980   -0.4330   -3.9870 c1        1 28E      0.105000
     19 OAC         2.8490   -0.7180   -5.2510 oh        1 28E     -0.235000
     20 CAI         1.3470   -1.2810   -3.4400 c1        1 28E     -0.200500
     21 CAJ         0.7450   -0.9600   -2.2300 c1        1 28E     -0.076000
     22 H1         -5.6640    0.8680    2.2360 ho        1 28E      0.218500
     23 H2         -3.7180    0.1130    4.2310 ha        1 28E      0.138000
     24 H3         -1.2360   -0.6020    5.0870 ho        1 28E      0.222000
     25 H4          0.7850    0.9520    2.5760 hc        1 28E      0.111000
     26 H5          0.7820   -0.6520    2.7420 hc        1 28E      0.111000
     27 H6         -3.6720    0.1780    0.0540 ha        1 28E      0.155500
     28 H7          0.4190    1.5870   -0.1120 h1        1 28E      0.102000
     29 H8          1.9660    0.3410    0.9620 h1        1 28E      0.132000
     30 H9          1.9300   -1.8330    0.9590 ho        1 28E      0.207000
     31 H10         2.3130    1.8650   -1.6380 ha        1 28E      0.135000
     32 H11         4.2830    1.6960   -3.2680 ho        1 28E      0.213000
     33 H12         3.3820   -1.4280   -5.1900 ho        1 28E      0.218500
     34 H13         1.1010   -2.1050   -3.9060 ha        1 28E      0.155500
     35 H14         0.0760   -1.5570   -1.8450 ha        1 28E      0.150000
@<TRIPOS>BOND
     1    1    2 1   
     2    1   22 1   
     3    2    8 1   
     4    3    4 1   
     5    3   23 1   
     6    4    6 1   
     7    5   24 1   
     8    6    7 1   
     9    6    9 1   
    10    7   12 1   
    11    7   25 1   
    12    7   26 1   
    13    8   27 1   
    14    9   10 1   
    15   10   11 1   
    16   11   12 1   
    17   11   14 1   
    18   11   28 1   
    19   12   13 1   
    20   12   29 1   
    21   13   30 1   
    22   14   15 1   
    23   14   21 1   
    24   15   16 1   
    25   15   31 1   
    26   16   17 1   
    27   17   32 1   
    28   18   19 1   
    29   18   20 1   
    30   19   33 1   
    31   20   34 1   
    32   21   35 1   
@<TRIPOS>SUBSTRUCTURE
     1 28E         1 TEMP              0 ****  ****    0 ROOT
