@<TRIPOS>MOLECULE
28E
   35    37     1     0     0
SMALL
bcc


@<TRIPOS>ATOM
      1 OAB         0.0250    0.0460   -0.2710 oh        1 28E     -0.490100
      2 CAT         1.3910    0.0210   -0.1250 ca        1 28E      0.187100
      3 CAK         2.0080    0.0800    1.1330 ca        1 28E     -0.326000
      4 CAY         3.4060    0.0450    1.1970 ca        1 28E      0.193100
      5 OAG         4.0790    0.0960    2.3950 oh        1 28E     -0.492100
      6 CBD         4.1990   -0.0510    0.0380 ca        1 28E     -0.210300
      7 CAP         5.6780   -0.1080    0.1340 c3        1 28E     -0.053100
      8 CAN         2.1390   -0.0620   -1.3060 ca        1 28E     -0.210000
      9 CBC         3.5360   -0.0950   -1.2020 ca        1 28E      0.174100
     10 OAR         4.2170   -0.2210   -2.3980 os        1 28E     -0.320900
     11 CBF         5.5980    0.2070   -2.3340 c3        1 28E      0.157400
     12 CBE         6.3160   -0.5310   -1.1890 c3        1 28E      0.120100
     13 OAQ         6.2750   -1.9350   -1.3510 oh        1 28E     -0.583800
     14 CBA         6.1940   -0.0570   -3.6810 ca        1 28E     -0.086300
     15 CAO         6.9190    0.9610   -4.3080 ca        1 28E     -0.121000
     16 CAV         7.4960    0.7260   -5.5610 ca        1 28E      0.105100
     17 OAD         8.2070    1.7560   -6.1310 oh        1 28E     -0.496100
     18 CAU         7.3320   -0.5300   -6.1850 ca        1 28E      0.051100
     19 OAC         7.9280   -0.6780   -7.4210 oh        1 28E     -0.516100
     20 CAI         6.5990   -1.5390   -5.5560 ca        1 28E     -0.175000
     21 CAJ         6.0340   -1.2980   -4.3050 ca        1 28E     -0.082000
     22 H1         -0.3710    0.1140    0.6100 ho        1 28E      0.422000
     23 H2          1.4070    0.1520    2.0490 ha        1 28E      0.138000
     24 H3          3.4220    0.1360    3.1060 ho        1 28E      0.423000
     25 H4          6.0720    0.8990    0.4350 hc        1 28E      0.072200
     26 H5          5.9750   -0.8370    0.9360 hc        1 28E      0.072200
     27 H6          1.6450   -0.1020   -2.2860 ha        1 28E      0.171000
     28 H7          5.6060    1.3120   -2.1110 h1        1 28E      0.066700
     29 H8          7.4130   -0.2800   -1.2010 h1        1 28E      0.093700
     30 H9          5.3430   -2.1900   -1.3750 ho        1 28E      0.407000
     31 H10         7.0470    1.9480   -3.8380 ha        1 28E      0.153000
     32 H11         8.5340    1.4520   -6.9920 ho        1 28E      0.437000
     33 H12         7.7400   -1.5740   -7.7340 ho        1 28E      0.431000
     34 H13         6.4720   -2.5150   -6.0440 ha        1 28E      0.138000
     35 H14         5.4620   -2.0880   -3.7940 ha        1 28E      0.149000
@<TRIPOS>BOND
     1    1    2 1   
     2    1   22 1   
     3    2    3 ar  
     4    2    8 ar  
     5    3    4 ar  
     6    3   23 1   
     7    4    5 1   
     8    4    6 ar  
     9    5   24 1   
    10    6    7 1   
    11    6    9 ar  
    12    7   12 1   
    13    7   25 1   
    14    7   26 1   
    15    8    9 ar  
    16    8   27 1   
    17    9   10 1   
    18   10   11 1   
    19   11   12 1   
    20   11   14 1   
    21   11   28 1   
    22   12   13 1   
    23   12   29 1   
    24   13   30 1   
    25   14   15 ar  
    26   14   21 ar  
    27   15   16 ar  
    28   15   31 1   
    29   16   17 1   
    30   16   18 ar  
    31   17   32 1   
    32   18   19 1   
    33   18   20 ar  
    34   19   33 1   
    35   20   21 ar  
    36   20   34 1   
    37   21   35 1   
@<TRIPOS>SUBSTRUCTURE
     1 28E         1 TEMP              0 ****  ****    0 ROOT
