@<TRIPOS>MOLECULE
28F
   49    52     1     0     0
SMALL
bcc


@<TRIPOS>ATOM
      1 C1         -0.2610   -0.1450    0.5280 c3        1 28F     -0.140100
      2 C2          1.2460   -0.0350    0.6320 c3        1 28F      0.110800
      3 O5          3.4850    1.8410    2.1840 o         1 28F     -0.432100
      4 N6          4.0680   -0.4210    1.8050 n         1 28F     -0.359400
      5 C7          5.3820   -0.3080    2.3350 cc        1 28F      0.226800
      6 C9          7.0180   -0.1020    3.8140 ca        1 28F     -0.064900
      7 C10         7.7240    0.0450    5.0360 ca        1 28F     -0.008000
      8 C11         9.1070    0.0780    5.0170 cp        1 28F     -0.122300
      9 C12         9.7750   -0.0480    3.7320 ca        1 28F      0.697600
     10 C14         7.7870   -0.2040    2.5920 ca        1 28F      0.428600
     11 C19        14.2400   -0.0280    1.7140 c3        1 28F     -0.105400
     12 C20        15.0780   -1.3040    1.7480 c3        1 28F      0.123400
     13 C22        13.7660   -1.3720    3.6830 c3        1 28F      0.128400
     14 C24         9.4030    1.1250    7.2620 ca        1 28F      0.454200
     15 N25        10.0590    1.2860    8.4260 nb        1 28F     -0.683500
     16 N3          1.6980    0.3790    1.9940 n4        1 28F     -0.680800
     17 C4          3.2120    0.6510    2.0450 c         1 28F      0.632100
     18 N8          5.6470   -0.1620    3.6460 nd        1 28F     -0.488100
     19 N13         9.1360   -0.1800    2.5500 nb        1 28F     -0.710000
     20 S15         6.7440   -0.3600    1.2700 ss        1 28F      0.084500
     21 O16        11.1390   -0.0230    3.7890 os        1 28F     -0.435100
     22 C17        11.8800   -0.1130    2.5490 c3        1 28F      0.141400
     23 C18        13.3460   -0.0890    2.9550 c3        1 28F     -0.104700
     24 O21        14.5860   -2.1400    2.8010 os        1 28F     -0.417600
     25 C23         9.8540    0.2430    6.2490 cp        1 28F     -0.292600
     26 C26        11.1940    0.5500    8.5810 ca        1 28F      0.649900
     27 N27        11.7250   -0.3210    7.6790 nb        1 28F     -0.683500
     28 C28        11.0500   -0.4650    6.5230 ca        1 28F      0.454200
     29 H1         -0.5130   -0.4550   -0.5190 hc        1 28F      0.083367
     30 H2         -0.7630    0.8330    0.7290 hc        1 28F      0.083367
     31 H3         -0.6710   -0.9160    1.2260 hc        1 28F      0.083367
     32 H4          1.6310    0.7350   -0.0990 hx        1 28F      0.109200
     33 H5          1.7230   -1.0280    0.3920 hx        1 28F      0.109200
     34 H6          3.6870   -1.3480    1.8850 hn        1 28F      0.331500
     35 H7          7.1680    0.1270    5.9840 ha        1 28F      0.172000
     36 H10        14.9880   -1.9060    0.8090 h1        1 28F      0.056200
     37 H11        16.1570   -1.0850    1.9570 h1        1 28F      0.056200
     38 H12        14.3630   -1.1390    4.6030 h1        1 28F      0.054700
     39 H13        12.8950   -2.0230    3.9500 h1        1 28F      0.054700
     40 H14         8.4880    1.7300    7.1290 h4        1 28F      0.036100
     41 H15         1.4380   -0.3320    2.6830 hn        1 28F      0.462800
     42 H16        11.6170   -1.0690    2.0270 h1        1 28F      0.067200
     43 H17        11.6230    0.7690    1.9070 h1        1 28F      0.067200
     44 H18        13.5230    0.7980    3.6190 hc        1 28F      0.081700
     45 H19        11.7440    0.6750    9.5390 h5        1 28F      0.069100
     46 H20        11.4850   -1.1640    5.7820 h4        1 28F      0.036100
     47 H8         14.8950    0.8770    1.7470 hc        1 28F      0.060200
     48 H32         1.2300    1.2620    2.2520 hn        1 28F      0.462800
     49 H9         13.6360    0.0240    0.7750 hc        1 28F      0.060200
@<TRIPOS>BOND
     1    1    2 1   
     2    1   29 1   
     3    1   30 1   
     4    1   31 1   
     5    2   16 1   
     6    2   32 1   
     7    2   33 1   
     8    3   17 2   
     9    4    5 1   
    10    4   17 1   
    11    4   34 1   
    12    5   18 2   
    13    5   20 1   
    14    6    7 ar  
    15    6   10 ar  
    16    6   18 1   
    17    7    8 ar  
    18    7   35 1   
    19    8    9 ar  
    20    8   25 1   
    21    9   19 ar  
    22    9   21 1   
    23   10   19 ar  
    24   10   20 1   
    25   11   12 1   
    26   11   23 1   
    27   11   47 1   
    28   11   49 1   
    29   12   24 1   
    30   12   36 1   
    31   12   37 1   
    32   13   23 1   
    33   13   24 1   
    34   13   38 1   
    35   13   39 1   
    36   14   15 ar  
    37   14   25 ar  
    38   14   40 1   
    39   15   26 ar  
    40   16   17 1   
    41   16   41 1   
    42   16   48 1   
    43   21   22 1   
    44   22   23 1   
    45   22   42 1   
    46   22   43 1   
    47   23   44 1   
    48   25   28 ar  
    49   26   27 ar  
    50   26   45 1   
    51   27   28 ar  
    52   28   46 1   
@<TRIPOS>SUBSTRUCTURE
     1 28F         1 TEMP              0 ****  ****    0 ROOT
