@<TRIPOS>MOLECULE
28F
   48    44     1     0     0
SMALL
bcc


@<TRIPOS>ATOM
      1 C1         -8.6020    0.0080   -3.2420 c3        1 28F     -0.227000
      2 C2         -7.1130    0.2020   -3.2870 c3        1 28F     -0.026000
      3 O5         -4.3450   -0.0770   -2.9270 o         1 28F     -0.383000
      4 N6         -4.4790   -0.9420   -0.7890 n         1 28F     -0.302000
      5 C7         -3.0670   -0.8690   -0.6010 c2        1 28F     -0.129000
      6 C9         -1.2090   -0.7630    0.9850 c1        1 28F     -0.201000
      7 C10        -0.4300   -0.7120    2.1120 c1        1 28F     -0.019000
      8 C11         0.9340   -0.5110    2.0000 c1        1 28F     -0.088000
      9 C12         1.5270   -0.3580    0.7190 c1        1 28F      0.147000
     10 C14        -0.6100   -0.6080   -0.3010 c1        1 28F     -0.201000
     11 C19         5.0290    1.9090   -0.7740 c3        1 28F     -0.184000
     12 C20         6.0830    1.9550   -1.5610 c3        1 28F     -0.024000
     13 C22         5.7440   -0.3170   -1.4850 c3        1 28F     -0.019000
     14 C24         1.5830    0.8510    4.0000 c1        1 28F     -0.015000
     15 N25         2.0190    0.9630    5.2740 n1        1 28F     -0.169000
     16 N3         -6.4940   -0.5540   -2.2160 n         1 28F     -0.356000
     17 C4         -5.0620   -0.5080   -2.0340 c2        1 28F      0.390000
     18 N8         -2.7770   -0.9290    0.7910 n1        1 28F     -0.146000
     19 N13         0.7470   -0.4090   -0.4090 n1        1 28F     -0.166000
     20 S15        -1.7340   -0.6660   -1.3550 s         1 28F      0.619000
     21 O16         2.9020   -0.6200    0.4410 os        1 28F     -0.213000
     22 C17         3.4010    0.0670   -0.7080 c3        1 28F     -0.007000
     23 C18         4.8210    0.4410   -0.4840 c3        1 28F     -0.141000
     24 O21         6.1250    0.5700   -2.3290 os        1 28F     -0.281000
     25 C23         1.3960   -0.3830    3.4500 c2        1 28F     -0.121000
     26 C26         2.2700   -0.1510    6.0050 c1        1 28F     -0.036000
     27 N27         2.0830   -1.3870    5.4550 n1        1 28F     -0.166000
     28 C28         1.6490   -1.5020    4.1860 c2        1 28F     -0.035000
     29 H1         -8.9120    0.1020   -2.3320 hc        1 28F      0.087000
     30 H2         -9.0410    0.6890   -3.8120 hc        1 28F      0.087000
     31 H3         -8.8260   -0.8890   -3.5730 hc        1 28F      0.087000
     32 H4         -6.9050    1.1510   -3.1780 h1        1 28F      0.098500
     33 H5         -6.7640   -0.1150   -4.1590 h1        1 28F      0.098500
     34 H6         -5.0070   -1.3020   -0.1390 hn        1 28F      0.252000
     35 H7         -0.8370   -0.8170    2.9910 ha        1 28F      0.159000
     36 H8          4.2520    2.2760   -1.2280 hc        1 28F      0.100000
     37 H9          5.2030    2.4010    0.0600 hc        1 28F      0.100000
     38 H10         6.8980    2.0680   -1.0260 h1        1 28F      0.086500
     39 H11         5.9940    2.6880   -2.1980 h1        1 28F      0.086500
     40 H12         5.2520   -1.0150   -1.9330 h1        1 28F      0.089000
     41 H13         6.5190   -0.6940   -1.0160 h1        1 28F      0.089000
     42 H14         1.4010    1.6560    3.4720 ha        1 28F      0.180000
     43 H15        -7.0090   -1.0400   -1.6470 hn        1 28F      0.222000
     44 H16         2.8690    0.8790   -0.8610 h1        1 28F      0.099500
     45 H17         3.3370   -0.5200   -1.4940 h1        1 28F      0.099500
     46 H18         5.0830    0.2390    0.4350 hc        1 28F      0.116000
     47 H19         2.5870   -0.0680    6.9280 ha        1 28F      0.192000
     48 H20         1.5150   -2.3870    3.7930 h4        1 28F      0.168000
@<TRIPOS>BOND
     1    1    2 1   
     2    1   29 1   
     3    1   30 1   
     4    1   31 1   
     5    2   16 1   
     6    2   32 1   
     7    2   33 1   
     8    3   17 1   
     9    4    5 1   
    10    4   17 1   
    11    4   34 1   
    12    5   18 1   
    13    5   20 1   
    14    6   10 1   
    15    7    8 1   
    16    7   35 1   
    17    8   25 1   
    18    9   19 1   
    19    9   21 1   
    20   11   12 1   
    21   11   23 1   
    22   11   36 1   
    23   11   37 1   
    24   12   24 1   
    25   12   38 1   
    26   12   39 1   
    27   13   23 1   
    28   13   24 1   
    29   13   40 1   
    30   13   41 1   
    31   14   25 1   
    32   14   42 1   
    33   15   26 1   
    34   16   17 1   
    35   16   43 1   
    36   21   22 1   
    37   22   23 1   
    38   22   44 1   
    39   22   45 1   
    40   23   46 1   
    41   25   28 1   
    42   26   47 1   
    43   27   28 1   
    44   28   48 1   
@<TRIPOS>SUBSTRUCTURE
     1 28F         1 TEMP              0 ****  ****    0 ROOT
