@<TRIPOS>MOLECULE
28F
   50    53     1     0     0
SMALL
bcc


@<TRIPOS>ATOM
      1 C1          0.9260    0.7480    3.3690 c3        1 28F     -0.151100
      2 C2          1.3790    0.5200    1.9470 c3        1 28F      0.124800
      3 O5          2.8750    0.6830   -0.4090 o         1 28F     -0.304100
      4 N6          4.4450   -0.9650    0.2080 n4        1 28F     -0.506800
      5 C7          5.6530   -0.6840    0.9520 cc        1 28F      0.087100
      6 C9          6.8770   -0.3660    2.7710 ca        1 28F     -0.028900
      7 C10         7.3060   -0.1910    4.1280 ca        1 28F     -0.049000
      8 C11         8.6440   -0.0510    4.4080 cp        1 28F     -0.063300
      9 C12         9.5960   -0.0950    3.2870 ca        1 28F      0.758600
     10 C14         7.9160   -0.3800    1.7350 ca        1 28F      0.463600
     11 C19        14.3990    0.1430    2.3510 c3        1 28F     -0.106400
     12 C20        15.1740   -1.1690    2.4760 c3        1 28F      0.119400
     13 C22        13.4990   -1.2860    4.0950 c3        1 28F      0.125400
     14 C24         8.3680    0.9610    6.6700 ca        1 28F      0.472700
     15 N25         8.7470    1.1500    7.9440 nb        1 28F     -0.671500
     16 N3          2.8550    0.1520    1.8990 n4        1 28F     -0.636800
     17 C4          3.3370    0.0150    0.5010 c         1 28F      0.493100
     18 N8          5.6150   -0.5370    2.3140 nd        1 28F     -0.534100
     19 N13         9.2260   -0.2440    1.9880 nb        1 28F     -0.728000
     20 S15         7.2060   -0.5960    0.2300 ss        1 28F      0.227500
     21 O16        10.8890    0.0250    3.6270 os        1 28F     -0.397100
     22 C17        11.9170   -0.0040    2.5900 c3        1 28F      0.140400
     23 C18        13.2370    0.0270    3.3440 c3        1 28F     -0.111700
     24 O21        14.4200   -2.0510    3.3180 os        1 28F     -0.409600
     25 C23         9.1010    0.1470    5.7660 cp        1 28F     -0.343600
     26 C26         9.8900    0.5160    8.3340 ca        1 28F      0.681900
     27 N27        10.6740   -0.2810    7.5560 nb        1 28F     -0.671500
     28 C28        10.2750   -0.4580    6.2850 ca        1 28F      0.472700
     29 H1          1.4600    1.6010    3.8550 hc        1 28F      0.103700
     30 H2          1.0310   -0.1670    4.0030 hc        1 28F      0.103700
     31 H3         -0.1690    1.0110    3.3280 hc        1 28F      0.103700
     32 H4          1.2440    1.4550    1.3260 hx        1 28F      0.128200
     33 H5          0.8070   -0.3280    1.4710 hx        1 28F      0.128200
     34 H6          4.6540   -0.8980   -0.8080 hn        1 28F      0.504300
     35 H7          6.5570   -0.1840    4.9370 ha        1 28F      0.180000
     36 H10        15.2870   -1.7030    1.4990 h1        1 28F      0.067700
     37 H11        16.1790   -1.0120    2.9450 h1        1 28F      0.067700
     38 H12        13.9530   -1.0890    5.1010 h1        1 28F      0.056200
     39 H13        12.5830   -1.9190    4.2050 h1        1 28F      0.056200
     40 H14         7.4520    1.4900    6.3510 h4        1 28F      0.034600
     41 H15         3.0070   -0.7100    2.4480 hn        1 28F      0.499800
     42 H16        11.7830    0.9020    1.9450 h1        1 28F      0.080700
     43 H17        11.8080   -0.9460    1.9930 h1        1 28F      0.080700
     44 H18        13.2320    0.8880    4.0620 hc        1 28F      0.088700
     45 H19        10.2140    0.6670    9.3890 h5        1 28F      0.089100
     46 H20        10.9180   -1.1050    5.6560 h4        1 28F      0.034600
     47 H8         14.0380    0.2940    1.3040 hc        1 28F      0.066700
     48 H62         4.1200   -1.9260    0.4210 hn        1 28F      0.504300
     49 H32         3.4020    0.9080    2.3550 hn        1 28F      0.499800
     50 H9         15.0500    1.0130    2.6150 hc        1 28F      0.066700
@<TRIPOS>BOND
     1    1    2 1   
     2    1   29 1   
     3    1   30 1   
     4    1   31 1   
     5    2   16 1   
     6    2   32 1   
     7    2   33 1   
     8    3   17 2   
     9    4    5 1   
    10    4   17 1   
    11    4   34 1   
    12    4   48 1   
    13    5   18 2   
    14    5   20 1   
    15    6    7 ar  
    16    6   10 ar  
    17    6   18 1   
    18    7    8 ar  
    19    7   35 1   
    20    8    9 ar  
    21    8   25 1   
    22    9   19 ar  
    23    9   21 1   
    24   10   19 ar  
    25   10   20 1   
    26   11   12 1   
    27   11   23 1   
    28   11   47 1   
    29   11   50 1   
    30   12   24 1   
    31   12   36 1   
    32   12   37 1   
    33   13   23 1   
    34   13   24 1   
    35   13   38 1   
    36   13   39 1   
    37   14   15 ar  
    38   14   25 ar  
    39   14   40 1   
    40   15   26 ar  
    41   16   17 1   
    42   16   41 1   
    43   16   49 1   
    44   21   22 1   
    45   22   23 1   
    46   22   42 1   
    47   22   43 1   
    48   23   44 1   
    49   25   28 ar  
    50   26   27 ar  
    51   26   45 1   
    52   27   28 ar  
    53   28   46 1   
@<TRIPOS>SUBSTRUCTURE
     1 28F         1 TEMP              0 ****  ****    0 ROOT
