@<TRIPOS>MOLECULE
28F
   49    52     1     0     0
SMALL
bcc


@<TRIPOS>ATOM
      1 C1         -0.2610   -0.1270    0.5280 c3        1 28F     -0.140100
      2 C2          1.2450   -0.0140    0.6340 c3        1 28F      0.110800
      3 O5          3.4790    1.8440    2.2150 o         1 28F     -0.432100
      4 N6          4.0690   -0.4100    1.8000 ns        1 28F     -0.359400
      5 C7          5.3830   -0.3010    2.3320 cc        1 28F      0.226800
      6 C9          7.0180   -0.1140    3.8140 ca        1 28F     -0.064900
      7 C10         7.7240    0.0150    5.0380 ca        1 28F     -0.008000
      8 C11         9.1060    0.0520    5.0200 cp        1 28F     -0.122300
      9 C12         9.7750   -0.0500    3.7330 ca        1 28F      0.697600
     10 C14         7.7870   -0.1940    2.5910 ca        1 28F      0.428600
     11 C19        14.2400    0.0160    1.7170 c3        1 28F     -0.105400
     12 C20        15.0810   -1.2580    1.7300 c3        1 28F      0.123400
     13 C22        13.7690   -1.3630    3.6630 c3        1 28F      0.128400
     14 C24         9.3990    1.0640    7.2820 ca        1 28F      0.454200
     15 N25        10.0550    1.2080    8.4490 nb        1 28F     -0.683500
     16 N3          1.6960    0.3800    2.0020 ny        1 28F     -0.680800
     17 C4          3.2100    0.6560    2.0570 c         1 28F      0.632100
     18 N8          5.6480   -0.1760    3.6450 nd        1 28F     -0.488100
     19 N13         9.1360   -0.1650    2.5490 nb        1 28F     -0.710000
     20 S15         6.7450   -0.3320    1.2660 ss        1 28F      0.084500
     21 O16        11.1390   -0.0220    3.7910 os        1 28F     -0.435100
     22 C17        11.8800   -0.0900    2.5490 c3        1 28F      0.141400
     23 C18        13.3460   -0.0690    2.9570 c3        1 28F     -0.104700
     24 O21        14.5920   -2.1130    2.7680 os        1 28F     -0.417600
     25 C23         9.8520    0.2000    6.2550 cp        1 28F     -0.292600
     26 C26        11.1930    0.4730    8.5910 ca        1 28F      0.649900
     27 N27        11.7250   -0.3810    7.6750 nb        1 28F     -0.683500
     28 C28        11.0510   -0.5080    6.5170 ca        1 28F      0.454200
     29 H1         -0.6680   -0.9100    1.2140 hc        1 28F      0.083367
     30 H2         -0.5120   -0.4210   -0.5240 hc        1 28F      0.083367
     31 H3         -0.7660    0.8460    0.7450 hc        1 28F      0.083367
     32 H4          1.6280    0.7690   -0.0850 hx        1 28F      0.109200
     33 H5          1.7260   -1.0020    0.3780 hx        1 28F      0.109200
     34 H6          3.6910   -1.3390    1.8650 hn        1 28F      0.331500
     35 H7          7.1670    0.0790    5.9880 ha        1 28F      0.172000
     36 H10        16.1600   -1.0400    1.9420 h1        1 28F      0.056200
     37 H11        14.9930   -1.8450    0.7800 h1        1 28F      0.056200
     38 H12        14.3660   -1.1430    4.5860 h1        1 28F      0.054700
     39 H13        12.9000   -2.0200    3.9190 h1        1 28F      0.054700
     40 H14         8.4820    1.6680    7.1590 h4        1 28F      0.036100
     41 H15         1.4380   -0.3430    2.6790 hn        1 28F      0.462800
     42 H16        11.6210    0.8020    1.9230 h1        1 28F      0.067200
     43 H17        11.6190   -1.0370    2.0110 h1        1 28F      0.067200
     44 H18        13.5200    0.8070    3.6350 hc        1 28F      0.081700
     45 H19        11.7420    0.5840    9.5510 h5        1 28F      0.069100
     46 H20        11.4880   -1.1940    5.7650 h4        1 28F      0.036100
     47 H8         14.8930    0.9210    1.7650 hc        1 28F      0.060200
     48 H32         1.2260    1.2570    2.2730 hn        1 28F      0.462800
     49 H9         13.6360    0.0820    0.7780 hc        1 28F      0.060200
@<TRIPOS>BOND
     1    1    2 1   
     2    1   29 1   
     3    1   30 1   
     4    1   31 1   
     5    2   16 1   
     6    2   32 1   
     7    2   33 1   
     8    3   17 2   
     9    4    5 1   
    10    4   17 1   
    11    4   34 1   
    12    5   18 2   
    13    5   20 1   
    14    6    7 ar  
    15    6   10 ar  
    16    6   18 1   
    17    7    8 ar  
    18    7   35 1   
    19    8    9 ar  
    20    8   25 1   
    21    9   19 ar  
    22    9   21 1   
    23   10   19 ar  
    24   10   20 1   
    25   11   12 1   
    26   11   23 1   
    27   11   47 1   
    28   11   49 1   
    29   12   24 1   
    30   12   36 1   
    31   12   37 1   
    32   13   23 1   
    33   13   24 1   
    34   13   38 1   
    35   13   39 1   
    36   14   15 ar  
    37   14   25 ar  
    38   14   40 1   
    39   15   26 ar  
    40   16   17 1   
    41   16   41 1   
    42   16   48 1   
    43   21   22 1   
    44   22   23 1   
    45   22   42 1   
    46   22   43 1   
    47   23   44 1   
    48   25   28 ar  
    49   26   27 ar  
    50   26   45 1   
    51   27   28 ar  
    52   28   46 1   
@<TRIPOS>SUBSTRUCTURE
     1 28F         1 TEMP              0 ****  ****    0 ROOT
