@<TRIPOS>MOLECULE
28F
   48    51     1     0     0
SMALL
bcc


@<TRIPOS>ATOM
      1 C1          9.2080    0.8200   -0.1290 c3        1 28F     -0.109100
      2 C2          7.7620    1.1580    0.1870 c3        1 28F      0.090000
      3 O5          5.0100    1.3440    0.0180 o         1 28F     -0.623100
      4 N6          4.6690   -0.9050    0.3970 n         1 28F     -0.462400
      5 C7          3.2890   -0.7630    0.2480 cc        1 28F      0.389800
      6 C9          1.1410   -1.3320    0.1470 ca        1 28F     -0.035900
      7 C10        -0.0370   -2.1060    0.1300 ca        1 28F     -0.019000
      8 C11        -1.2650   -1.4690   -0.0050 cp        1 28F     -0.152300
      9 C12        -1.2680   -0.0310   -0.1180 ca        1 28F      0.646600
     10 C14         1.0200    0.1020    0.0220 ca        1 28F      0.365600
     11 C19        -4.2670    3.7690   -0.8820 c3        1 28F     -0.105400
     12 C20        -5.1570    4.3250    0.2250 c3        1 28F      0.126400
     13 C22        -4.8390    2.0620    0.7560 c3        1 28F      0.129400
     14 C24        -2.5460   -3.4950   -0.7030 ca        1 28F      0.440200
     15 N25        -3.6600   -4.2520   -0.7340 nb        1 28F     -0.693000
     16 N3          6.8960    0.0000    0.1560 n         1 28F     -0.545900
     17 C4          5.5170    0.2050    0.1890 c         1 28F      0.763100
     18 N8          2.4430   -1.8090    0.2720 nd        1 28F     -0.573100
     19 N13        -0.1630    0.7410   -0.1090 nb        1 28F     -0.692000
     20 S15         2.5560    0.8180    0.0610 ss        1 28F      0.065500
     21 O16        -2.5180    0.5380   -0.2410 os        1 28F     -0.456100
     22 C17        -2.5870    1.9670   -0.4100 c3        1 28F      0.143400
     23 C18        -4.0680    2.2900   -0.5480 c3        1 28F     -0.101700
     24 O21        -5.3240    3.3220    1.2300 os        1 28F     -0.423600
     25 C23        -2.4890   -2.2460   -0.0360 cp        1 28F     -0.252600
     26 C26        -4.7430   -3.7460   -0.0840 ca        1 28F      0.626900
     27 N27        -4.8100   -2.5620    0.5830 nb        1 28F     -0.693000
     28 C28        -3.6830   -1.8240    0.5990 ca        1 28F      0.440200
     29 H1          9.8050    1.7630   -0.0960 hc        1 28F      0.047367
     30 H2          9.6330    0.1050    0.6170 hc        1 28F      0.047367
     31 H3          9.3070    0.3720   -1.1470 hc        1 28F      0.047367
     32 H4          7.7090    1.6490    1.2030 h1        1 28F      0.058700
     33 H5          7.3700    1.9020   -0.5660 h1        1 28F      0.058700
     34 H6          5.0390   -1.8290    0.4240 hn        1 28F      0.338500
     35 H7          0.0210   -3.2010    0.2300 ha        1 28F      0.159000
     36 H9         -3.2910    4.3150   -0.9140 hc        1 28F      0.056700
     37 H10        -4.7010    5.2100    0.7380 h1        1 28F      0.047700
     38 H11        -6.1750    4.5950   -0.1570 h1        1 28F      0.047700
     39 H12        -5.7260    1.3960    0.5960 h1        1 28F      0.053700
     40 H13        -4.1920    1.6420    1.5680 h1        1 28F      0.053700
     41 H14        -1.6650   -3.8970   -1.2360 h4        1 28F      0.036600
     42 H15         7.2730   -0.8480    0.5080 hn        1 28F      0.308500
     43 H16        -2.1410    2.4720    0.4860 h1        1 28F      0.060700
     44 H17        -2.0280    2.2610   -1.3360 h1        1 28F      0.060700
     45 H18        -4.5000    1.6410   -1.3560 hc        1 28F      0.076700
     46 H19        -5.6660   -4.3610   -0.1010 h5        1 28F      0.055100
     47 H20        -3.7330   -0.8540    1.1290 h4        1 28F      0.036600
     48 H8         -4.7540    3.8860   -1.8800 hc        1 28F      0.056700
@<TRIPOS>BOND
     1    1    2 1   
     2    1   29 1   
     3    1   30 1   
     4    1   31 1   
     5    2   16 1   
     6    2   32 1   
     7    2   33 1   
     8    3   17 2   
     9    4    5 1   
    10    4   17 1   
    11    4   34 1   
    12    5   18 2   
    13    5   20 1   
    14    6    7 ar  
    15    6   10 ar  
    16    6   18 1   
    17    7    8 ar  
    18    7   35 1   
    19    8    9 ar  
    20    8   25 1   
    21    9   19 ar  
    22    9   21 1   
    23   10   19 ar  
    24   10   20 1   
    25   11   12 1   
    26   11   23 1   
    27   11   36 1   
    28   11   48 1   
    29   12   24 1   
    30   12   37 1   
    31   12   38 1   
    32   13   23 1   
    33   13   24 1   
    34   13   39 1   
    35   13   40 1   
    36   14   15 ar  
    37   14   25 ar  
    38   14   41 1   
    39   15   26 ar  
    40   16   17 1   
    41   16   42 1   
    42   21   22 1   
    43   22   23 1   
    44   22   43 1   
    45   22   44 1   
    46   23   45 1   
    47   25   28 ar  
    48   26   27 ar  
    49   26   46 1   
    50   27   28 ar  
    51   28   47 1   
@<TRIPOS>SUBSTRUCTURE
     1 28F         1 TEMP              0 ****  ****    0 ROOT
