@<TRIPOS>MOLECULE
28G
   56    59     1     0     0
SMALL
bcc


@<TRIPOS>ATOM
      1 C1          0.2130   -0.4340   -0.6450 c2        1 28G     -0.096000
      2 C2          1.5330   -0.5540   -0.5020 c2        1 28G     -0.280200
      3 C3          2.1920   -0.6530    0.8290 c3        1 28G      0.157000
      4 C8          5.2930   -1.8010    3.8590 cc        1 28G      0.223800
      5 C10         6.6950   -3.0910    4.9890 ca        1 28G     -0.068900
      6 C11         7.5550   -4.1610    5.3510 ca        1 28G     -0.011000
      7 C12         8.2020   -4.1250    6.5720 cp        1 28G     -0.124300
      8 C13         7.9720   -2.9760    7.4330 ca        1 28G      0.699600
      9 C15         6.5310   -2.0040    5.9300 ca        1 28G      0.432600
     10 O17         8.6430   -3.0050    8.6180 os        1 28G     -0.420100
     11 C19         9.5520   -2.1570   10.6250 c3        1 28G      0.166800
     12 C21        11.3150   -0.4940   10.5950 c3        1 28G      0.134800
     13 C22        12.7610   -0.1830   10.1920 c3        1 28G      0.126900
     14 C24        13.3150   -2.4770   10.2390 c3        1 28G      0.126900
     15 C27         8.7380   -6.5480    6.6990 ca        1 28G     -0.078000
     16 C31        10.3090   -4.9710    7.6350 ca        1 28G      0.432200
     17 C28         9.6090   -7.5660    7.0790 ca        1 28G     -0.247300
     18 C29        10.8090   -7.2180    7.7280 ca        1 28G      0.415200
     19 C26         9.0810   -5.2130    6.9740 cp        1 28G     -0.174300
     20 C5          3.3950   -2.1580    2.4500 c         1 28G      0.630100
     21 C25        11.8820   -2.8500   10.6350 c3        1 28G      0.134800
     22 C18         8.5340   -1.8730    9.5080 c3        1 28G      0.133400
     23 N30        11.1570   -5.9460    8.0050 nb        1 28G     -0.665000
     24 N9          5.9810   -2.9570    3.8140 nd        1 28G     -0.488100
     25 N14         7.1550   -1.9450    7.1260 nb        1 28G     -0.717000
     26 N20        10.9120   -1.8430   10.2250 n3        1 28G     -0.745600
     27 N7          4.4620   -1.3360    2.8040 ns        1 28G     -0.358400
     28 N4          2.8150   -1.9990    1.0350 ny        1 28G     -0.678800
     29 O6          2.7520   -2.9340    3.1530 o         1 28G     -0.437100
     30 O23        13.6620   -1.1690   10.6800 os        1 28G     -0.409600
     31 S16         5.4630   -0.8550    5.2980 ss        1 28G      0.072500
     32 H1         -0.4930   -0.4420    0.1990 ha        1 28G      0.146000
     33 H2         -0.2510   -0.3050   -1.6370 ha        1 28G      0.146000
     34 H3          2.2130   -0.5220   -1.3700 ha        1 28G      0.153000
     35 H4          1.4550   -0.4930    1.6700 hx        1 28G      0.109200
     36 H5          3.0060    0.1260    0.9110 hx        1 28G      0.109200
     37 H6          7.7030   -5.0040    4.6560 ha        1 28G      0.170000
     38 H7          9.2200   -1.5540   11.5200 h1        1 28G      0.058700
     39 H8          9.4700   -3.2490   10.8960 h1        1 28G      0.058700
     40 H11        13.1000    0.7700   10.6760 h1        1 28G      0.057450
     41 H12        12.8540   -0.1060    9.0770 h1        1 28G      0.057450
     42 H13        14.0450   -3.1510   10.7600 h1        1 28G      0.057450
     43 H14        13.4500   -2.5470    9.1270 h1        1 28G      0.057450
     44 H15         7.7870   -6.7870    6.1990 ha        1 28G      0.137000
     45 H16        10.6200   -3.9390    7.8900 h4        1 28G      0.047100
     46 H17         9.3690   -8.6200    6.8830 ha        1 28G      0.153000
     47 H18        11.5290   -7.9950    8.0460 h4        1 28G      0.033100
     48 H19        11.6110   -3.8160   10.1230 h1        1 28G      0.044200
     49 H20        11.8530   -3.0210   11.7510 h1        1 28G      0.044200
     50 H21         7.4950   -1.8480    9.9260 h1        1 28G      0.064200
     51 H22         8.7600   -0.9250    8.9570 h1        1 28G      0.064200
     52 H24         4.9760   -0.8940    2.0620 hn        1 28G      0.329500
     53 H25         3.5380   -2.1620    0.3280 hn        1 28G      0.462300
     54 H9         11.2120   -0.3200   11.7070 h1        1 28G      0.044200
     55 H42         2.0910   -2.7250    0.9250 hn        1 28G      0.462300
     56 H10        10.6300    0.2260   10.0670 h1        1 28G      0.044200
@<TRIPOS>BOND
     1    1    2 2   
     2    1   32 1   
     3    1   33 1   
     4    2    3 1   
     5    2   34 1   
     6    3   28 1   
     7    3   35 1   
     8    3   36 1   
     9    4   24 2   
    10    4   27 1   
    11    4   31 1   
    12    5    6 ar  
    13    5    9 ar  
    14    5   24 1   
    15    6    7 ar  
    16    6   37 1   
    17    7    8 ar  
    18    7   19 1   
    19    8   10 1   
    20    8   25 ar  
    21    9   25 ar  
    22    9   31 1   
    23   10   22 1   
    24   11   22 1   
    25   11   26 1   
    26   11   38 1   
    27   11   39 1   
    28   12   13 1   
    29   12   26 1   
    30   12   54 1   
    31   12   56 1   
    32   13   30 1   
    33   13   40 1   
    34   13   41 1   
    35   14   21 1   
    36   14   30 1   
    37   14   42 1   
    38   14   43 1   
    39   15   17 ar  
    40   15   19 ar  
    41   15   44 1   
    42   16   19 ar  
    43   16   23 ar  
    44   16   45 1   
    45   17   18 ar  
    46   17   46 1   
    47   18   23 ar  
    48   18   47 1   
    49   20   27 1   
    50   20   28 1   
    51   20   29 2   
    52   21   26 1   
    53   21   48 1   
    54   21   49 1   
    55   22   50 1   
    56   22   51 1   
    57   27   52 1   
    58   28   53 1   
    59   28   55 1   
@<TRIPOS>SUBSTRUCTURE
     1 28G         1 TEMP              0 ****  ****    0 ROOT
