@<TRIPOS>MOLECULE
28G
   55    46     1     0     0
SMALL
bcc


@<TRIPOS>ATOM
      1 C1         -7.1570    3.5710   -6.9030 c1        1 28G     -0.107500
      2 C2         -6.0610    2.8130   -6.7320 c1        1 28G     -0.107500
      3 C3         -5.3770    2.7510   -5.3630 c2        1 28G      0.529100
      4 C8         -1.4020    0.7100   -3.2800 c1        1 28G      0.519900
      5 C10         0.5550   -0.4270   -2.3650 c1        1 28G     -0.112000
      6 C11         1.6300   -1.3000   -2.1280 c1        1 28G      0.036500
      7 C12         2.2370   -1.3330   -0.8720 cg        1 28G     -0.088000
      8 C13         1.7650   -0.4780    0.1780 c1        1 28G      0.178600
      9 C15         0.0870    0.4220   -1.3200 c1        1 28G      0.036800
     10 O17         2.4090   -0.1890    1.4290 os        1 28G     -0.310400
     11 C19         2.0650   -0.2270    3.8730 c3        1 28G      0.157800
     12 C21         0.0930   -0.2190    5.2060 c3        1 28G      0.130300
     13 C22        -0.6280    0.3510    6.3720 c3        1 28G      0.126400
     14 C24         1.4380    1.1500    7.2670 c3        1 28G      0.126400
     15 C27         4.4530   -2.5550   -1.5000 c1        1 28G     -0.028500
     16 C31         2.6230   -3.5780   -0.3660 c1        1 28G      0.341300
     17 C28         5.0940   -3.7540   -1.5520 c1        1 28G     -0.107500
     18 C29         4.4920   -4.8920   -0.9990 c1        1 28G     -0.107500
     19 C26         3.2100   -2.4630   -0.9050 cg        1 28G     -0.075000
     20 C5         -3.3940    1.7500   -4.3350 c1        1 28G      0.828900
     21 C25         2.1740    0.5740    6.0730 c3        1 28G      0.130300
     22 C18         1.5140    0.2440    2.4540 c3        1 28G      0.137400
     23 N30         3.2730   -4.7960   -0.4160 n1        1 28G     -0.467800
     24 N9         -0.3920   -0.2450   -3.6150 n1        1 28G     -0.469800
     25 N14         0.7060    0.3830   -0.0510 n1        1 28G     -0.492800
     26 N20         1.3490    0.4750    4.9310 n3        1 28G     -0.723600
     27 N7         -2.3130    0.8140   -4.3840 n2        1 28G     -0.762800
     28 N4         -4.2990    1.8430   -5.4200 n2        1 28G     -0.858100
     29 O6         -3.5450    2.4680   -3.3410 o         1 28G     -0.611500
     30 O23         0.2050    0.4590    7.5310 os        1 28G     -0.415600
     31 S16        -1.1530    1.1700   -1.8390 s         1 28G      0.283900
     32 H1         -7.5200    4.0840   -6.1520 DU        1 28G      0.114000
     33 H2         -7.5970    3.6100   -7.7870 ha        1 28G      0.081250
     34 H3         -5.7060    2.3100   -7.4690 ha        1 28G      0.081250
     35 H4         -6.0370    2.4450   -4.6730 h4        1 28G     -0.009200
     36 H5         -5.0540    3.6120   -5.1330 h4        1 28G     -0.009200
     37 H6          1.9430   -1.8660   -2.8210 ha        1 28G      0.100500
     38 H7          3.0050   -0.0320    3.9360 h1        1 28G      0.049700
     39 H8          1.9330   -1.1450    3.9670 h1        1 28G      0.049700
     40 H9         -0.4780   -0.1560    4.4210 h1        1 28G      0.043200
     41 H10         0.2830   -1.1560    5.3830 h1        1 28G      0.043200
     42 H11        -0.9590    1.2400    6.1350 h1        1 28G      0.054200
     43 H12        -1.4300   -0.2550    6.5950 h1        1 28G      0.054200
     44 H13         2.0290    1.0780    8.0780 h1        1 28G      0.054200
     45 H14         1.2490    2.0780    7.1020 h1        1 28G      0.054200
     46 H15         4.8560   -1.7860   -1.8720 ha        1 28G      0.082500
     47 H16         1.7510   -3.5110    0.0520 ha        1 28G      0.115500
     48 H17         5.9500   -3.8180   -1.9610 ha        1 28G      0.081250
     49 H18         4.9650   -5.7810   -1.0350 ha        1 28G      0.081250
     50 H19         2.9620    1.1670    5.8570 h1        1 28G      0.043200
     51 H20         2.5090   -0.3400    6.3070 h1        1 28G      0.043200
     52 H21         1.4430    1.2430    2.4380 h1        1 28G      0.061700
     53 H22         0.6020   -0.1610    2.2960 h1        1 28G      0.061700
     54 H24        -2.2220    0.2580   -5.1060 hn        1 28G      0.495400
     55 H25        -4.1330    1.3890   -6.1850 hn        1 28G      0.457400
@<TRIPOS>BOND
     1    1    2 3   
     2    1   33 1   
     3    2   34 1   
     4    3   28 2   
     5    3   35 1   
     6    3   36 1   
     7    4   24 3   
     8    4   31 1   
     9    5    6 3   
    10    6   37 1   
    11    7    8 3   
    12    7   19 1   
    13    8   10 1   
    14    9   25 3   
    15   10   22 1   
    16   11   22 1   
    17   11   26 1   
    18   11   38 1   
    19   11   39 1   
    20   12   13 1   
    21   12   26 1   
    22   12   40 1   
    23   12   41 1   
    24   13   30 1   
    25   13   42 1   
    26   13   43 1   
    27   14   21 1   
    28   14   30 1   
    29   14   44 1   
    30   14   45 1   
    31   15   19 3   
    32   15   46 1   
    33   16   23 3   
    34   16   47 1   
    35   17   18 3   
    36   17   48 1   
    37   18   49 1   
    38   20   27 2   
    39   20   29 2   
    40   21   26 1   
    41   21   50 1   
    42   21   51 1   
    43   22   52 1   
    44   22   53 1   
    45   27   54 1   
    46   28   55 1   
@<TRIPOS>SUBSTRUCTURE
     1 28G         1 TEMP              0 ****  ****    0 ROOT
