@<TRIPOS>MOLECULE
28G
   56    59     1     0     0
SMALL
bcc


@<TRIPOS>ATOM
      1 C1          0.2330   -0.4050   -0.6600 c2        1 28G     -0.096000
      2 C2          1.5500   -0.5440   -0.5170 c2        1 28G     -0.280200
      3 C3          2.2120   -0.6350    0.8140 c3        1 28G      0.157000
      4 C8          5.3010   -1.7940    3.8530 cc        1 28G      0.223800
      5 C10         6.6830   -3.0910    4.9970 ca        1 28G     -0.068900
      6 C11         7.5250   -4.1710    5.3720 ca        1 28G     -0.011000
      7 C12         8.1770   -4.1290    6.5900 cp        1 28G     -0.124300
      8 C13         7.9690   -2.9630    7.4350 ca        1 28G      0.699600
      9 C15         6.5410   -1.9880    5.9230 ca        1 28G      0.432600
     10 O17         8.6430   -2.9870    8.6190 os        1 28G     -0.420100
     11 C19         9.5720   -2.1270   10.6110 c3        1 28G      0.166800
     12 C21        11.3640   -0.4950   10.5530 c3        1 28G      0.134800
     13 C22        12.8150   -0.2160   10.1420 c3        1 28G      0.126900
     14 C24        13.3280   -2.5180   10.2200 c3        1 28G      0.126900
     15 C27         8.6700   -6.5580    6.7510 ca        1 28G     -0.078000
     16 C31        10.2710   -4.9960    7.6600 ca        1 28G      0.432200
     17 C28         9.5240   -7.5860    7.1440 ca        1 28G     -0.247300
     18 C29        10.7320   -7.2500    7.7840 ca        1 28G      0.415200
     19 C26         9.0370   -5.2260    7.0060 cp        1 28G     -0.174300
     20 C5          3.3930   -2.1370    2.4540 c         1 28G      0.630100
     21 C25        11.8890   -2.8600   10.6260 c3        1 28G      0.134800
     22 C18         8.5570   -1.8400    9.4930 c3        1 28G      0.133400
     23 N30        11.1030   -5.9810    8.0410 nb        1 28G     -0.665000
     24 N9          5.9670   -2.9620    3.8230 nd        1 28G     -0.488100
     25 N14         7.1690   -1.9230    7.1160 nb        1 28G     -0.717000
     26 N20        10.9360   -1.8430   10.2030 n3        1 28G     -0.745600
     27 N7          4.4740   -1.3290    2.7930 n         1 28G     -0.358400
     28 N4          2.8120   -1.9900    1.0380 n4        1 28G     -0.678800
     29 O6          2.7380   -2.8920    3.1700 o         1 28G     -0.437100
     30 O23        13.6990   -1.2110   10.6410 os        1 28G     -0.409600
     31 S16         5.4910   -0.8300    5.2770 ss        1 28G      0.072500
     32 H1         -0.4710   -0.3890    0.1870 ha        1 28G      0.146000
     33 H2         -0.2310   -0.2830   -1.6520 ha        1 28G      0.146000
     34 H3          2.2290   -0.5360   -1.3870 ha        1 28G      0.153000
     35 H4          1.4790   -0.4510    1.6540 hx        1 28G      0.109200
     36 H5          3.0390    0.1300    0.8830 hx        1 28G      0.109200
     37 H6          7.6560   -5.0260    4.6890 ha        1 28G      0.170000
     38 H7          9.4720   -3.2130   10.8980 h1        1 28G      0.058700
     39 H8          9.2540   -1.5060   11.4990 h1        1 28G      0.058700
     40 H11        13.1710    0.7380   10.6110 h1        1 28G      0.057450
     41 H12        12.9060   -0.1560    9.0250 h1        1 28G      0.057450
     42 H13        13.4580   -2.6070    9.1100 h1        1 28G      0.057450
     43 H14        14.0480   -3.1970   10.7490 h1        1 28G      0.057450
     44 H15         7.7140   -6.7880    6.2570 ha        1 28G      0.137000
     45 H16        10.6010   -3.9660    7.9000 h4        1 28G      0.047100
     46 H17         9.2650   -8.6380    6.9630 ha        1 28G      0.153000
     47 H18        11.4390   -8.0340    8.1120 h4        1 28G      0.033100
     48 H19        11.8610   -3.0150   11.7430 h1        1 28G      0.044200
     49 H20        11.6010   -3.8290   10.1280 h1        1 28G      0.044200
     50 H21         7.5190   -1.7920    9.9130 h1        1 28G      0.064200
     51 H22         8.7970   -0.9050    8.9280 h1        1 28G      0.064200
     52 H24         4.9930   -0.9070    2.0430 hn        1 28G      0.329500
     53 H25         2.0750   -2.7040    0.9410 hn        1 28G      0.462300
     54 H9         11.2670   -0.3040   11.6620 h1        1 28G      0.044200
     55 H42         3.5290   -2.1750    0.3320 hn        1 28G      0.462300
     56 H10        10.6910    0.2290   10.0160 h1        1 28G      0.044200
@<TRIPOS>BOND
     1    1    2 2   
     2    1   32 1   
     3    1   33 1   
     4    2    3 1   
     5    2   34 1   
     6    3   28 1   
     7    3   35 1   
     8    3   36 1   
     9    4   24 2   
    10    4   27 1   
    11    4   31 1   
    12    5    6 ar  
    13    5    9 ar  
    14    5   24 1   
    15    6    7 ar  
    16    6   37 1   
    17    7    8 ar  
    18    7   19 1   
    19    8   10 1   
    20    8   25 ar  
    21    9   25 ar  
    22    9   31 1   
    23   10   22 1   
    24   11   22 1   
    25   11   26 1   
    26   11   38 1   
    27   11   39 1   
    28   12   13 1   
    29   12   26 1   
    30   12   54 1   
    31   12   56 1   
    32   13   30 1   
    33   13   40 1   
    34   13   41 1   
    35   14   21 1   
    36   14   30 1   
    37   14   42 1   
    38   14   43 1   
    39   15   17 ar  
    40   15   19 ar  
    41   15   44 1   
    42   16   19 ar  
    43   16   23 ar  
    44   16   45 1   
    45   17   18 ar  
    46   17   46 1   
    47   18   23 ar  
    48   18   47 1   
    49   20   27 1   
    50   20   28 1   
    51   20   29 2   
    52   21   26 1   
    53   21   48 1   
    54   21   49 1   
    55   22   50 1   
    56   22   51 1   
    57   27   52 1   
    58   28   53 1   
    59   28   55 1   
@<TRIPOS>SUBSTRUCTURE
     1 28G         1 TEMP              0 ****  ****    0 ROOT
