@<TRIPOS>MOLECULE
28G
   57    60     1     0     0
SMALL
bcc


@<TRIPOS>ATOM
      1 C1          2.5950   -3.2500   -0.7050 c2        1 28G     -0.044000
      2 C2          3.4910   -2.6920    0.1160 c2        1 28G     -0.309200
      3 C3          3.2010   -1.4770    0.9130 c3        1 28G      0.178000
      4 C8          4.6690   -0.4810    4.6980 cc        1 28G      0.088100
      5 C10         6.0220   -2.1080    5.3590 ca        1 28G     -0.025900
      6 C11         6.8010   -3.3110    5.4240 ca        1 28G     -0.054000
      7 C12         7.5900   -3.5540    6.5200 cp        1 28G     -0.065300
      8 C13         7.6090   -2.5520    7.5990 ca        1 28G      0.760600
      9 C15         6.1110   -1.1880    6.5000 ca        1 28G      0.468600
     10 O17         8.4050   -2.8440    8.6360 os        1 28G     -0.378100
     11 C19         9.7540   -2.4400   10.5360 c3        1 28G      0.161800
     12 C21        11.5970   -0.8860   10.2930 c3        1 28G      0.129300
     13 C22        12.9540   -0.6180    9.6310 c3        1 28G      0.126900
     14 C24        13.3220   -2.9300    9.3410 c3        1 28G      0.126900
     15 C27         7.8640   -6.0000    6.1850 ca        1 28G     -0.067000
     16 C31         9.7040   -4.7500    7.1310 ca        1 28G      0.449200
     17 C28         8.6540   -7.1410    6.2760 ca        1 28G     -0.242300
     18 C29         9.9580   -7.0180    6.8000 ca        1 28G      0.445200
     19 C26         8.3840   -4.7660    6.6180 cp        1 28G     -0.222300
     20 C5          2.7230   -0.6720    3.2190 c         1 28G      0.496100
     21 C25        11.9720   -3.2620    9.9890 c3        1 28G      0.129300
     22 C18         8.5570   -1.9020    9.7370 c3        1 28G      0.130400
     23 N30        10.4750   -5.8470    7.2190 nb        1 28G     -0.651000
     24 N9          5.2090   -1.6940    4.3610 nd        1 28G     -0.540100
     25 N14         6.8730   -1.4070    7.5800 nb        1 28G     -0.735000
     26 N20        11.0190   -2.1610    9.8830 n3        1 28G     -0.751600
     27 N7          3.8030    0.2200    3.7750 n4        1 28G     -0.503800
     28 N4          3.1170   -1.8370    2.3930 n4        1 28G     -0.655800
     29 O6          1.5520   -0.4220    3.4590 o         1 28G     -0.313100
     30 O23        13.8500   -1.7030    9.8250 os        1 28G     -0.397600
     31 S16         5.1280    0.1450    6.2250 ss        1 28G      0.216500
     32 H1          1.5580   -2.8930   -0.8160 ha        1 28G      0.162000
     33 H2          2.8610   -4.1080   -1.3480 ha        1 28G      0.162000
     34 H3          4.5280   -3.0680    0.1730 ha        1 28G      0.171000
     35 H4          2.2170   -1.0050    0.6250 hx        1 28G      0.112200
     36 H5          4.0350   -0.7250    0.8040 hx        1 28G      0.112200
     37 H6          6.7680   -4.0250    4.5840 ha        1 28G      0.178000
     38 H7          9.6780   -1.9670   11.5600 h1        1 28G      0.071700
     39 H8          9.6190   -3.5530   10.6600 h1        1 28G      0.071700
     40 H11        13.4570    0.2550   10.1240 h1        1 28G      0.060950
     41 H12        12.8280   -0.4220    8.5330 h1        1 28G      0.060950
     42 H13        14.0860   -3.6990    9.6330 h1        1 28G      0.060950
     43 H14        13.2250   -2.8860    8.2250 h1        1 28G      0.060950
     44 H15         6.8370   -6.0650    5.7940 ha        1 28G      0.132000
     45 H16        10.1670   -3.8120    7.4970 h4        1 28G      0.050100
     46 H17         8.2770   -8.1220    5.9540 ha        1 28G      0.166000
     47 H18        10.6220   -7.9000    6.8910 h4        1 28G      0.052100
     48 H19        11.5320   -4.1530    9.4590 h1        1 28G      0.047200
     49 H20        12.1540   -3.5450   11.0660 h1        1 28G      0.047200
     50 H21         8.7380   -0.8730    9.3370 h1        1 28G      0.077700
     51 H22         7.6180   -1.9410   10.3460 h1        1 28G      0.077700
     52 H24         4.3650    0.6090    2.9970 hn        1 28G      0.499800
     53 H25         2.3890   -2.5660    2.5130 hn        1 28G      0.509300
     54 H9         11.7340   -0.8370   11.4130 h1        1 28G      0.047200
     55 H72         3.3340    0.9980    4.2800 hn        1 28G      0.499800
     56 H42         4.0280   -2.2420    2.7040 hn        1 28G      0.509300
     57 H10        10.8820   -0.0710    9.9950 h1        1 28G      0.047200
@<TRIPOS>BOND
     1    1    2 2   
     2    1   32 1   
     3    1   33 1   
     4    2    3 1   
     5    2   34 1   
     6    3   28 1   
     7    3   35 1   
     8    3   36 1   
     9    4   24 2   
    10    4   27 1   
    11    4   31 1   
    12    5    6 ar  
    13    5    9 ar  
    14    5   24 1   
    15    6    7 ar  
    16    6   37 1   
    17    7    8 ar  
    18    7   19 1   
    19    8   10 1   
    20    8   25 ar  
    21    9   25 ar  
    22    9   31 1   
    23   10   22 1   
    24   11   22 1   
    25   11   26 1   
    26   11   38 1   
    27   11   39 1   
    28   12   13 1   
    29   12   26 1   
    30   12   54 1   
    31   12   57 1   
    32   13   30 1   
    33   13   40 1   
    34   13   41 1   
    35   14   21 1   
    36   14   30 1   
    37   14   42 1   
    38   14   43 1   
    39   15   17 ar  
    40   15   19 ar  
    41   15   44 1   
    42   16   19 ar  
    43   16   23 ar  
    44   16   45 1   
    45   17   18 ar  
    46   17   46 1   
    47   18   23 ar  
    48   18   47 1   
    49   20   27 1   
    50   20   28 1   
    51   20   29 2   
    52   21   26 1   
    53   21   48 1   
    54   21   49 1   
    55   22   50 1   
    56   22   51 1   
    57   27   52 1   
    58   27   55 1   
    59   28   53 1   
    60   28   56 1   
@<TRIPOS>SUBSTRUCTURE
     1 28G         1 TEMP              0 ****  ****    0 ROOT
