@<TRIPOS>MOLECULE
28G
   55    58     1     0     0
SMALL
bcc


@<TRIPOS>ATOM
      1 C1        -10.3980    1.1300   -0.3460 c2        1 28G     -0.198000
      2 C2         -9.2020    0.9940   -0.9120 c2        1 28G     -0.193200
      3 C3         -7.9260    1.0840   -0.1340 c3        1 28G      0.121200
      4 C8         -3.4820   -0.9050    0.0510 cc        1 28G      0.385800
      5 C10        -1.3380   -1.4910    0.1140 ca        1 28G     -0.040900
      6 C11        -0.1580   -2.2590    0.0180 ca        1 28G     -0.021000
      7 C12         1.0620   -1.6700    0.3260 cp        1 28G     -0.153300
      8 C13         1.0560   -0.2830    0.7270 ca        1 28G      0.650600
      9 C15        -1.2250   -0.1150    0.5310 ca        1 28G      0.368600
     10 O17         2.2950    0.2350    1.0280 os        1 28G     -0.444100
     11 C19         3.8880    1.9160    1.4780 c3        1 28G      0.168800
     12 C21         4.6420    3.5070   -0.1900 c3        1 28G      0.138300
     13 C22         5.3430    3.6930   -1.5410 c3        1 28G      0.126900
     14 C24         6.4750    1.6380   -1.2880 c3        1 28G      0.126900
     15 C27         2.3170   -3.7880    0.6580 ca        1 28G     -0.088000
     16 C31         3.4910   -1.8910   -0.2580 ca        1 28G      0.421200
     17 C28         3.5050   -4.5110    0.5500 ca        1 28G     -0.250300
     18 C29         4.6400   -3.8650    0.0320 ca        1 28G      0.394200
     19 C26         2.2900   -2.4460    0.2470 cp        1 28G     -0.139300
     20 C5         -5.6890    0.1120   -0.0560 c         1 28G      0.763100
     21 C25         5.7970    1.3930    0.0650 c3        1 28G      0.138300
     22 C18         2.3830    1.6360    1.3420 c3        1 28G      0.137400
     23 N30         4.6420   -2.5770   -0.3660 nb        1 28G     -0.674000
     24 N9         -2.6320   -1.9260   -0.1600 nd        1 28G     -0.572100
     25 N14        -0.0500    0.4800    0.8340 nb        1 28G     -0.697000
     26 N20         4.5360    2.1070    0.1930 n3        1 28G     -0.742600
     27 N7         -4.8650   -1.0350   -0.0910 n         1 28G     -0.460400
     28 N4         -7.0330   -0.0190   -0.4100 n         1 28G     -0.546900
     29 O6         -5.1960    1.2200    0.2750 o         1 28G     -0.623100
     30 O23         6.5980    3.0260   -1.5760 os        1 28G     -0.417600
     31 S16        -2.7590    0.6060    0.5650 ss        1 28G      0.056500
     32 H1        -11.3260    1.1130   -0.9330 ha        1 28G      0.118000
     33 H2        -10.5370    1.2760    0.7340 ha        1 28G      0.118000
     34 H3         -9.0880    0.8480   -1.9980 ha        1 28G      0.135000
     35 H4         -7.3950    2.0430   -0.4120 h1        1 28G      0.065200
     36 H5         -8.1460    1.1320    0.9740 h1        1 28G      0.065200
     37 H6         -0.2090   -3.3110   -0.3040 ha        1 28G      0.157000
     38 H7          3.9920    2.8240    2.1410 h1        1 28G      0.051200
     39 H8          4.3530    1.0420    2.0190 h1        1 28G      0.051200
     40 H10         3.5980    3.9210   -0.2650 h1        1 28G      0.042200
     41 H11         4.6950    3.3210   -2.3780 h1        1 28G      0.054700
     42 H12         5.5940    4.7740   -1.6990 h1        1 28G      0.054700
     43 H13         7.5310    1.2620   -1.2630 h1        1 28G      0.054700
     44 H14         5.9050    1.1330   -2.1120 h1        1 28G      0.054700
     45 H15         1.4130   -4.2620    1.0680 ha        1 28G      0.139000
     46 H16         3.5270   -0.8310   -0.5790 h4        1 28G      0.046100
     47 H17         3.5570   -5.5610    0.8650 ha        1 28G      0.143000
     48 H18         5.6010   -4.4010   -0.0710 h4        1 28G      0.020100
     49 H19         5.5770    0.2910    0.1590 h1        1 28G      0.042200
     50 H20         6.5210    1.6790    0.8830 h1        1 28G      0.042200
     51 H21         1.9070    2.2470    0.5340 h1        1 28G      0.058700
     52 H22         1.8710    1.8210    2.3220 h1        1 28G      0.058700
     53 H24        -5.2100   -1.8930   -0.4630 hn        1 28G      0.336500
     54 H25        -7.4420   -0.9220   -0.4580 hn        1 28G      0.310500
     55 H9          5.2000    4.1110    0.5850 h1        1 28G      0.042200
@<TRIPOS>BOND
     1    1    2 2   
     2    1   32 1   
     3    1   33 1   
     4    2    3 1   
     5    2   34 1   
     6    3   28 1   
     7    3   35 1   
     8    3   36 1   
     9    4   24 2   
    10    4   27 1   
    11    4   31 1   
    12    5    6 ar  
    13    5    9 ar  
    14    5   24 1   
    15    6    7 ar  
    16    6   37 1   
    17    7    8 ar  
    18    7   19 1   
    19    8   10 1   
    20    8   25 ar  
    21    9   25 ar  
    22    9   31 1   
    23   10   22 1   
    24   11   22 1   
    25   11   26 1   
    26   11   38 1   
    27   11   39 1   
    28   12   13 1   
    29   12   26 1   
    30   12   40 1   
    31   12   55 1   
    32   13   30 1   
    33   13   41 1   
    34   13   42 1   
    35   14   21 1   
    36   14   30 1   
    37   14   43 1   
    38   14   44 1   
    39   15   17 ar  
    40   15   19 ar  
    41   15   45 1   
    42   16   19 ar  
    43   16   23 ar  
    44   16   46 1   
    45   17   18 ar  
    46   17   47 1   
    47   18   23 ar  
    48   18   48 1   
    49   20   27 1   
    50   20   28 1   
    51   20   29 2   
    52   21   26 1   
    53   21   49 1   
    54   21   50 1   
    55   22   51 1   
    56   22   52 1   
    57   27   53 1   
    58   28   54 1   
@<TRIPOS>SUBSTRUCTURE
     1 28G         1 TEMP              0 ****  ****    0 ROOT
