@<TRIPOS>MOLECULE
28H
   23    20     1     0     0
SMALL
bcc


@<TRIPOS>ATOM
      1 CCB        -0.5620    0.6520    0.3370 c3        1 28H     -0.117800
      2 CCA         2.7390   -1.5100    0.3050 c3        1 28H     -0.214400
      3 CCC         2.7960   -0.5210    1.4350 c3        1 28H     -0.083100
      4 CBZ         1.5670   -2.4370    0.3600 c         1 28H      0.579900
      5 OCF         0.7820   -2.4980    1.3150 o         1 28H     -0.611100
      6 CBY         2.0080   -0.6100   -4.2590 ce        1 28H     -0.204200
      7 CCE         1.5980    0.4040   -3.5030 c2        1 28H     -0.254000
      8 CBX         2.3030   -1.9900   -3.7250 c         1 28H      0.896800
      9 OCD         2.1890   -2.2100   -2.4800 o         1 28H     -0.853300
     10 H1         -0.0990    0.7960   -0.6650 hc        1 28H      0.029200
     11 H2         -1.6670    0.7350    0.2520 hc        1 28H      0.029200
     12 H3         -0.2910   -0.3590    0.7210 hc        1 28H      0.029200
     13 H4         -0.1840    1.4290    1.0360 hc        1 28H      0.029200
     14 H5          2.6880   -0.9880   -0.6960 hc        1 28H      0.094200
     15 H6          3.7020    0.1240    1.3450 hc        1 28H      0.024033
     16 H7          1.8880    0.1330    1.4210 hc        1 28H      0.024033
     17 H8          2.8260   -1.0460    2.4200 hc        1 28H      0.024033
     18 H9          3.6690   -2.1390    0.2820 hc        1 28H      0.094200
     19 H10         1.4430   -3.0670   -0.5530 h4        1 28H      0.061200
     20 H11         2.1610   -0.5030   -5.3440 ha        1 28H      0.097000
     21 H12         1.3850    1.4030   -3.9030 ha        1 28H      0.088000
     22 H13         1.4460    0.2870   -2.4210 ha        1 28H      0.088000
     23 OXT         2.6570   -2.8780   -4.5520 o         1 28H     -0.853300
@<TRIPOS>BOND
     1    1   10 1   
     2    1   11 1   
     3    1   12 1   
     4    1   13 1   
     5    2    3 1   
     6    2    4 1   
     7    2   14 1   
     8    2   18 1   
     9    3   15 1   
    10    3   16 1   
    11    3   17 1   
    12    4    5 2   
    13    4   19 1   
    14    6    7 2   
    15    6    8 1   
    16    6   20 1   
    17    7   21 1   
    18    7   22 1   
    19    8    9 1   
    20    8   23 1   
@<TRIPOS>SUBSTRUCTURE
     1 28H         1 TEMP              0 ****  ****    0 ROOT
