@<TRIPOS>MOLECULE
28K
   20    19     1     0     0
SMALL
bcc


@<TRIPOS>ATOM
      1 CAH         1.3350    0.2950    0.2050 c3        1 28K      0.019000
      2 CBP         1.9920   -0.0340    1.5330 c3        1 28K     -0.247000
      3 CAG         0.3410   -0.7930   -0.2170 c3        1 28K     -0.039000
      4 OBO        -0.2460   -0.3910   -1.5170 os        1 28K     -0.073000
      5 CBN        -1.2710    0.3460   -1.6270 c1        1 28K     -0.077000
      6 CAF        -0.7120   -1.0670    0.7870 c2        1 28K     -0.261000
      7 CAE        -1.2850   -0.1630    1.5870 c2        1 28K     -0.149000
      8 CAD        -2.3500   -0.5170    2.6090 c2        1 28K      0.341000
      9 OBM        -2.7930   -1.6980    2.6460 o         1 28K     -0.562000
     10 H40         1.2100   -0.1520    2.3220 hc        1 28K      0.086000
     11 H41         0.7970    1.2830    0.2730 h1        1 28K      0.076000
     12 H42         2.5720   -0.9840    1.4520 hc        1 28K      0.086000
     13 H43         2.6900    0.7850    1.8300 hc        1 28K      0.086000
     14 H44         0.9040   -1.7260   -0.4940 h1        1 28K      0.118000
     15 H45        -1.7950    0.7320   -0.7230 ha        1 28K      0.049000
     16 H46        -1.0440   -2.1190    0.8430 ha        1 28K      0.152000
     17 H47        -1.0020    0.9010    1.5780 ha        1 28K      0.098000
     18 OXT        -2.7250    0.4130    3.3790 o         1 28K     -0.562000
     19 O1          2.3130    0.3740   -0.8310 oh        1 28K     -0.327000
     20 H1          2.9570    1.0300   -0.5440 ho        1 28K      0.186000
@<TRIPOS>BOND
     1    1    2 1   
     2    1    3 1   
     3    1   11 1   
     4    1   19 1   
     5    2   10 1   
     6    2   12 1   
     7    2   13 1   
     8    3    4 1   
     9    3    6 1   
    10    3   14 1   
    11    4    5 1   
    12    5   15 1   
    13    6    7 1   
    14    6   16 1   
    15    7    8 1   
    16    7   17 1   
    17    8    9 1   
    18    8   18 1   
    19   19   20 1   
@<TRIPOS>SUBSTRUCTURE
     1 28K         1 TEMP              0 ****  ****    0 ROOT
