@<TRIPOS>MOLECULE
28K
   20    19     1     0     0
SMALL
bcc


@<TRIPOS>ATOM
      1 CAH         1.3700    0.2570    0.1210 c3        1 28K      0.019000
      2 CBP         2.1080   -0.1120    1.3940 c3        1 28K     -0.247000
      3 CAG         0.3280   -0.8030   -0.2540 c3        1 28K     -0.039000
      4 OBO        -0.3370   -0.3630   -1.5030 os        1 28K     -0.073000
      5 CBN        -1.3530    0.3950   -1.5280 c1        1 28K     -0.077000
      6 CAF        -0.6600   -1.0800    0.8140 c2        1 28K     -0.261000
      7 CAE        -1.1590   -0.1830    1.6680 c2        1 28K     -0.149000
      8 CAD        -2.1600   -0.5390    2.7530 c2        1 28K      0.341000
      9 OBM        -2.6210   -1.7130    2.7980 o         1 28K     -0.561500
     10 H40         1.3790   -0.2330    2.2320 hc        1 28K      0.086000
     11 H41         0.8560    1.2540    0.2450 h1        1 28K      0.076000
     12 H42         2.6630   -1.0700    1.2550 hc        1 28K      0.086000
     13 H43         2.8400    0.6890    1.6590 hc        1 28K      0.086000
     14 H44         0.8530   -1.7400   -0.5870 h1        1 28K      0.118000
     15 H45        -1.8070    0.7710   -0.5840 ha        1 28K      0.049000
     16 H46        -1.0070   -2.1270    0.8710 ha        1 28K      0.152000
     17 H47        -0.8570    0.8770    1.6610 ha        1 28K      0.098000
     18 OXT        -2.4660    0.3820    3.5630 o         1 28K     -0.561500
     19 O1          2.2760    0.3400   -0.9770 oh        1 28K     -0.327000
     20 H1          2.9510    0.9790   -0.7220 ho        1 28K      0.186000
@<TRIPOS>BOND
     1    1    2 1   
     2    1    3 1   
     3    1   11 1   
     4    1   19 1   
     5    2   10 1   
     6    2   12 1   
     7    2   13 1   
     8    3    4 1   
     9    3    6 1   
    10    3   14 1   
    11    4    5 1   
    12    5   15 1   
    13    6    7 1   
    14    6   16 1   
    15    7    8 1   
    16    7   17 1   
    17    8    9 1   
    18    8   18 1   
    19   19   20 1   
@<TRIPOS>SUBSTRUCTURE
     1 28K         1 TEMP              0 ****  ****    0 ROOT
