@<TRIPOS>MOLECULE
28L
   65    68     1     0     0
SMALL
bcc


@<TRIPOS>ATOM
      1 C1          0.4140   -0.8760    0.2100 c3        1 28L     -0.372300
      2 S2          2.0370   -0.3950    0.0680 s6        1 28L      1.469900
      3 N3          2.4530   -0.0280    1.6020 nh        1 28L     -0.779500
      4 C4          2.0170    1.0500    2.3880 ca        1 28L      0.168600
      5 C5          2.1080    0.9790    3.7970 ca        1 28L     -0.177500
      6 C6          1.6750    2.0360    4.5860 ca        1 28L     -0.087500
      7 C7          1.4860    2.2230    1.8060 ca        1 28L     -0.177500
      8 C8          1.0540    3.2700    2.6100 ca        1 28L     -0.087500
      9 C9          1.1390    3.1950    4.0070 cp        1 28L     -0.057000
     10 C10         0.6830    4.2970    4.8410 cp        1 28L     -0.159300
     11 C11         0.9210    5.6560    4.4340 ca        1 28L      0.426200
     12 N12         0.5790    6.7150    5.1390 nb        1 28L     -0.666000
     13 C13         0.0280    4.0990    6.0380 ca        1 28L     -0.066000
     14 C14        -0.3940    5.2150    6.8150 ca        1 28L     -0.164300
     15 C15        -0.0720    6.5240    6.3450 ca        1 28L      0.414600
     16 C16        -0.4450    7.6450    7.1600 ca        1 28L     -0.099100
     17 C17        -0.1720    9.0120    6.7150 ce        1 28L     -0.134400
     18 C18         1.0530    9.4160    6.3280 c2        1 28L     -0.090200
     19 C19         1.3350   10.7840    5.8370 c3        1 28L     -0.141500
     20 C20         0.0790   11.6160    5.7770 c2        1 28L      0.673600
     21 O21         0.3540   12.8490    5.2410 os        1 28L     -0.420400
     22 C22        -0.7260   13.7770    5.0920 c3        1 28L      0.122700
     23 N23        -1.1170   11.2740    6.1640 ne        1 28L     -0.731100
     24 C24        -1.3190    9.9780    6.7130 c         1 28L      0.711700
     25 O25        -2.4300    9.6920    7.1790 o         1 28L     -0.515100
     26 C26        -1.0670    7.4320    8.3730 ca        1 28L     -0.075000
     27 C27        -1.3870    6.1410    8.8660 ca        1 28L     -0.061300
     28 C28        -1.9840    5.9860   10.2440 c3        1 28L      0.001300
     29 C29        -1.0440    5.1390   11.1020 c3        1 28L     -0.091100
     30 C30        -2.1750    7.3250   10.9520 c3        1 28L     -0.091100
     31 C31        -3.3480    5.3060   10.1660 c3        1 28L     -0.091100
     32 C32        -1.0960    5.0550    8.0480 ca        1 28L      0.114100
     33 O33        -1.3990    3.7570    8.4540 os        1 28L     -0.348900
     34 C34        -2.5110    3.1900    7.7570 c3        1 28L      0.111700
     35 O35         2.8050   -1.5140   -0.3120 o         1 28L     -0.647800
     36 O36         2.0810    0.7270   -0.7750 o         1 28L     -0.647800
     37 H1         -0.2430   -0.1160    0.6990 h1        1 28L      0.119700
     38 H2         -0.0270   -1.0590   -0.8030 h1        1 28L      0.119700
     39 H3          0.2830   -1.8280    0.7820 h1        1 28L      0.119700
     40 H4          3.0740   -0.6370    2.0910 hn        1 28L      0.458800
     41 H5          2.5310    0.0860    4.2820 ha        1 28L      0.153000
     42 H6          1.7620    1.9640    5.6820 ha        1 28L      0.142000
     43 H7          1.4260    2.3330    0.7090 ha        1 28L      0.153000
     44 H8          0.6350    4.1720    2.1350 ha        1 28L      0.142000
     45 H9          1.4400    5.8520    3.4760 h4        1 28L      0.026100
     46 H10        -0.1640    3.0830    6.4200 ha        1 28L      0.151000
     47 H11         1.9200    8.7350    6.3450 ha        1 28L      0.154000
     48 H12         1.7890   10.7350    4.8080 hc        1 28L      0.100700
     49 H13         2.0800   11.2950    6.5080 hc        1 28L      0.100700
     50 H14        -1.1660   14.0240    6.0870 h1        1 28L      0.057033
     51 H15        -0.2260   14.6700    4.6380 h1        1 28L      0.057033
     52 H16        -1.5050   13.3600    4.4100 h1        1 28L      0.057033
     53 H17        -1.3530    8.3240    8.9580 ha        1 28L      0.160000
     54 H18        -0.8770    4.1400   10.6330 hc        1 28L      0.040700
     55 H19        -1.4910    4.9910   12.1140 hc        1 28L      0.040700
     56 H20        -0.0590    5.6520   11.2160 hc        1 28L      0.040700
     57 H21        -1.2040    7.8650   11.0520 hc        1 28L      0.040700
     58 H22        -2.9020    7.9660   10.3980 hc        1 28L      0.040700
     59 H23        -2.5790    7.1470   11.9790 hc        1 28L      0.040700
     60 H24        -3.2270    4.2160    9.9580 hc        1 28L      0.040700
     61 H25        -3.9690    5.7670    9.3630 hc        1 28L      0.040700
     62 H26        -3.8840    5.4160   11.1400 hc        1 28L      0.040700
     63 H27        -2.6670    2.2070    8.2680 h1        1 28L      0.044033
     64 H28        -2.2660    3.0440    6.6770 h1        1 28L      0.044033
     65 H29        -3.4150    3.8390    7.8560 h1        1 28L      0.044033
@<TRIPOS>BOND
     1    1    2 1   
     2    1   37 1   
     3    1   38 1   
     4    1   39 1   
     5    2    3 1   
     6    2   35 2   
     7    2   36 2   
     8    3    4 1   
     9    3   40 1   
    10    4    5 ar  
    11    4    7 ar  
    12    5    6 ar  
    13    5   41 1   
    14    6    9 ar  
    15    6   42 1   
    16    7    8 ar  
    17    7   43 1   
    18    8    9 ar  
    19    8   44 1   
    20    9   10 1   
    21   10   11 ar  
    22   10   13 ar  
    23   11   12 ar  
    24   11   45 1   
    25   12   15 ar  
    26   13   14 ar  
    27   13   46 1   
    28   14   15 ar  
    29   14   32 ar  
    30   15   16 ar  
    31   16   17 1   
    32   16   26 ar  
    33   17   18 2   
    34   17   24 1   
    35   18   19 1   
    36   18   47 1   
    37   19   20 1   
    38   19   48 1   
    39   19   49 1   
    40   20   21 1   
    41   20   23 2   
    42   21   22 1   
    43   22   50 1   
    44   22   51 1   
    45   22   52 1   
    46   23   24 1   
    47   24   25 2   
    48   26   27 ar  
    49   26   53 1   
    50   27   28 1   
    51   27   32 ar  
    52   28   29 1   
    53   28   30 1   
    54   28   31 1   
    55   29   54 1   
    56   29   55 1   
    57   29   56 1   
    58   30   57 1   
    59   30   58 1   
    60   30   59 1   
    61   31   60 1   
    62   31   61 1   
    63   31   62 1   
    64   32   33 1   
    65   33   34 1   
    66   34   63 1   
    67   34   64 1   
    68   34   65 1   
@<TRIPOS>SUBSTRUCTURE
     1 28L         1 TEMP              0 ****  ****    0 ROOT
