@<TRIPOS>MOLECULE
28L
   66    69     1     0     0
SMALL
bcc


@<TRIPOS>ATOM
      1 C1          0.4020    0.8710   -0.2040 c3        1 28L     -0.463300
      2 S2          1.8530    0.1110   -0.2320 s6        1 28L      1.409900
      3 N3          2.1850   -0.1960    1.6080 n4        1 28L     -0.567300
      4 C4          1.7880    0.9050    2.4680 ca        1 28L     -0.104400
      5 C5          0.6710    0.7800    3.3170 ca        1 28L     -0.100500
      6 C6          0.3030    1.8460    4.1270 ca        1 28L     -0.115000
      7 C7          2.5530    2.0900    2.4800 ca        1 28L     -0.100500
      8 C8          2.1700    3.1440    3.2980 ca        1 28L     -0.115000
      9 C9          1.0390    3.0450    4.1290 cp        1 28L      0.069000
     10 C10         0.6340    4.1590    4.9660 cp        1 28L     -0.229300
     11 C11         0.8230    5.5100    4.5070 ca        1 28L      0.432200
     12 N12         0.4860    6.5800    5.1960 nb        1 28L     -0.627000
     13 C13         0.0630    3.9790    6.2120 ca        1 28L     -0.021000
     14 C14        -0.3300    5.1070    6.9820 ca        1 28L     -0.172300
     15 C15        -0.0980    6.4070    6.4380 ca        1 28L      0.443600
     16 C16        -0.4800    7.5460    7.2210 ca        1 28L     -0.087100
     17 C17        -0.3710    8.8900    6.6570 ce        1 28L     -0.134400
     18 C18         0.3980    9.8420    7.2160 c2        1 28L     -0.109200
     19 C19         0.5320   11.2030    6.6480 c3        1 28L     -0.142500
     20 C20        -0.2310   11.3340    5.3520 c2        1 28L      0.676600
     21 O21        -0.0220   12.5750    4.8100 os        1 28L     -0.415400
     22 C22        -0.6800   12.8970    3.5790 c3        1 28L      0.122700
     23 N23        -0.9930   10.4410    4.7850 ne        1 28L     -0.728100
     24 C24        -1.1620    9.1800    5.4130 c         1 28L      0.723700
     25 O25        -1.9600    8.3620    4.9370 o         1 28L     -0.511100
     26 C26        -0.9590    7.3650    8.5020 ca        1 28L     -0.083000
     27 C27        -1.1630    6.0850    9.0810 ca        1 28L     -0.048300
     28 C28        -1.6040    5.9680   10.5200 c3        1 28L     -0.003700
     29 C29        -0.5490    5.1840   11.3020 c3        1 28L     -0.092433
     30 C30        -1.7620    7.3270   11.1950 c3        1 28L     -0.092433
     31 C31        -2.9440    5.2450   10.6150 c3        1 28L     -0.092433
     32 C32        -0.9110    4.9750    8.2810 ca        1 28L      0.116100
     33 O33        -1.1220    3.6840    8.7560 os        1 28L     -0.345900
     34 C34        -2.2980    3.0670    8.2240 c3        1 28L      0.112700
     35 O35         1.7670   -1.1950   -0.6720 o         1 28L     -0.561300
     36 O36         2.9160    0.9180   -0.5740 o         1 28L     -0.561300
     37 H1          0.1570    1.4860    0.7080 h1        1 28L      0.180033
     38 H2          0.2940    1.6180   -1.0490 h1        1 28L      0.180033
     39 H3         -0.4810    0.1810   -0.3300 h1        1 28L      0.180033
     40 H4          1.7210   -1.0520    1.9200 hn        1 28L      0.460800
     41 H5          0.0830   -0.1510    3.3530 ha        1 28L      0.159500
     42 H6         -0.5820    1.7500    4.7790 ha        1 28L      0.172000
     43 H7          3.4510    2.1930    1.8460 ha        1 28L      0.159500
     44 H8          2.7760    4.0670    3.3060 ha        1 28L      0.172000
     45 H9          1.2700    5.6960    3.5120 h4        1 28L      0.023100
     46 H10        -0.0680    2.9740    6.6450 ha        1 28L      0.151000
     47 H11         0.9780    9.6510    8.1340 ha        1 28L      0.146000
     48 H12         1.6170   11.4380    6.4590 hc        1 28L      0.105200
     49 H13         0.1470   11.9700    7.3760 hc        1 28L      0.105200
     50 H14        -1.7880   12.8470    3.7060 h1        1 28L      0.059700
     51 H15        -0.3450   12.2080    2.7680 h1        1 28L      0.059700
     52 H16        -0.3420   13.9470    3.3850 h1        1 28L      0.059700
     53 H17        -1.2150    8.2690    9.0820 ha        1 28L      0.156000
     54 H18         0.4240    5.7300   11.2920 hc        1 28L      0.043589
     55 H19        -0.4000    4.1720   10.8570 hc        1 28L      0.043589
     56 H20        -0.8810    5.0640   12.3610 hc        1 28L      0.043589
     57 H21        -2.5730    7.9210   10.7090 hc        1 28L      0.043589
     58 H22        -0.8060    7.9030   11.1620 hc        1 28L      0.043589
     59 H23        -2.0370    7.1780   12.2680 hc        1 28L      0.043589
     60 H24        -2.8100    4.1510   10.4400 hc        1 28L      0.043589
     61 H25        -3.3780    5.3820   11.6350 hc        1 28L      0.043589
     62 H26        -3.6640    5.6520    9.8650 hc        1 28L      0.043589
     63 H27        -3.1920    3.7240    8.3580 h1        1 28L      0.044700
     64 H28        -2.1550    2.8360    7.1400 h1        1 28L      0.044700
     65 H29        -2.3970    2.1290    8.8240 h1        1 28L      0.044700
     66 H32         3.1910   -0.3440    1.7360 hn        1 28L      0.460800
@<TRIPOS>BOND
     1    1    2 1   
     2    1   37 1   
     3    1   38 1   
     4    1   39 1   
     5    2    3 1   
     6    2   35 2   
     7    2   36 2   
     8    3    4 1   
     9    3   40 1   
    10    3   66 1   
    11    4    5 ar  
    12    4    7 ar  
    13    5    6 ar  
    14    5   41 1   
    15    6    9 ar  
    16    6   42 1   
    17    7    8 ar  
    18    7   43 1   
    19    8    9 ar  
    20    8   44 1   
    21    9   10 1   
    22   10   11 ar  
    23   10   13 ar  
    24   11   12 ar  
    25   11   45 1   
    26   12   15 ar  
    27   13   14 ar  
    28   13   46 1   
    29   14   15 ar  
    30   14   32 ar  
    31   15   16 ar  
    32   16   17 1   
    33   16   26 ar  
    34   17   18 2   
    35   17   24 1   
    36   18   19 1   
    37   18   47 1   
    38   19   20 1   
    39   19   48 1   
    40   19   49 1   
    41   20   21 1   
    42   20   23 2   
    43   21   22 1   
    44   22   50 1   
    45   22   51 1   
    46   22   52 1   
    47   23   24 1   
    48   24   25 2   
    49   26   27 ar  
    50   26   53 1   
    51   27   28 1   
    52   27   32 ar  
    53   28   29 1   
    54   28   30 1   
    55   28   31 1   
    56   29   54 1   
    57   29   55 1   
    58   29   56 1   
    59   30   57 1   
    60   30   58 1   
    61   30   59 1   
    62   31   60 1   
    63   31   61 1   
    64   31   62 1   
    65   32   33 1   
    66   33   34 1   
    67   34   63 1   
    68   34   64 1   
    69   34   65 1   
@<TRIPOS>SUBSTRUCTURE
     1 28L         1 TEMP              0 ****  ****    0 ROOT
