@<TRIPOS>MOLECULE
28L
   65    68     1     0     0
SMALL
bcc


@<TRIPOS>ATOM
      1 C1          0.4220   -0.8930    0.2300 c3        1 28L     -0.372300
      2 S2          2.0430   -0.4080    0.0840 s6        1 28L      1.469900
      3 N3          2.4600   -0.0350    1.6160 nu        1 28L     -0.779500
      4 C4          2.0230    1.0440    2.3990 ca        1 28L      0.168600
      5 C5          2.1130    0.9760    3.8080 ca        1 28L     -0.177500
      6 C6          1.6790    2.0350    4.5940 ca        1 28L     -0.088000
      7 C7          1.4930    2.2160    1.8140 ca        1 28L     -0.177500
      8 C8          1.0590    3.2650    2.6160 ca        1 28L     -0.088000
      9 C9          1.1420    3.1920    4.0130 cp        1 28L     -0.057000
     10 C10         0.6850    4.2960    4.8440 cp        1 28L     -0.159300
     11 C11         0.9250    5.6540    4.4360 ca        1 28L      0.426200
     12 N12         0.5820    6.7140    5.1380 nb        1 28L     -0.666000
     13 C13         0.0280    4.0990    6.0400 ca        1 28L     -0.066000
     14 C14        -0.3960    5.2170    6.8140 ca        1 28L     -0.164300
     15 C15        -0.0720    6.5250    6.3430 ca        1 28L      0.414600
     16 C16        -0.4460    7.6470    7.1560 ca        1 28L     -0.099100
     17 C17        -0.1720    9.0140    6.7100 ce        1 28L     -0.134400
     18 C18         1.0540    9.4160    6.3250 c2        1 28L     -0.090200
     19 C19         1.3390   10.7840    5.8330 c3        1 28L     -0.141500
     20 C20         0.0830   11.6160    5.7690 c2        1 28L      0.673600
     21 O21         0.3600   12.8480    5.2320 os        1 28L     -0.420400
     22 C22        -0.7190   13.7760    5.0790 c3        1 28L      0.122700
     23 N23        -1.1140   11.2750    6.1540 ne        1 28L     -0.731100
     24 C24        -1.3180    9.9810    6.7040 c         1 28L      0.711700
     25 O25        -2.4310    9.6950    7.1670 o         1 28L     -0.515100
     26 C26        -1.0720    7.4370    8.3680 ca        1 28L     -0.075000
     27 C27        -1.3940    6.1470    8.8620 ca        1 28L     -0.061300
     28 C28        -1.9940    5.9930   10.2380 c3        1 28L      0.001300
     29 C29        -1.0560    5.1480   11.1000 c3        1 28L     -0.091100
     30 C30        -2.1870    7.3330   10.9440 c3        1 28L     -0.091100
     31 C31        -3.3580    5.3140   10.1580 c3        1 28L     -0.091100
     32 C32        -1.1010    5.0590    8.0450 ca        1 28L      0.114100
     33 O33        -1.4050    3.7620    8.4530 os        1 28L     -0.348900
     34 C34        -2.5170    3.1940    7.7530 c3        1 28L      0.111700
     35 O35         2.8130   -1.5260   -0.2950 o         1 28L     -0.647800
     36 O36         2.0820    0.7130   -0.7630 o         1 28L     -0.647800
     37 H1          0.2950   -1.8430    0.8040 h1        1 28L      0.119700
     38 H2         -0.2360   -0.1330    0.7180 h1        1 28L      0.119700
     39 H3         -0.0210   -1.0800   -0.7820 h1        1 28L      0.119700
     40 H4          3.0840   -0.6410    2.1050 hn        1 28L      0.458800
     41 H5          2.5360    0.0840    4.2950 ha        1 28L      0.153000
     42 H6          1.7650    1.9650    5.6910 ha        1 28L      0.142000
     43 H7          1.4340    2.3240    0.7160 ha        1 28L      0.153000
     44 H8          0.6400    4.1650    2.1390 ha        1 28L      0.142000
     45 H9          1.4460    5.8480    3.4790 h4        1 28L      0.026100
     46 H10        -0.1650    3.0840    6.4230 ha        1 28L      0.151000
     47 H11         1.9210    8.7350    6.3450 ha        1 28L      0.153000
     48 H12         2.0820   11.2950    6.5050 hc        1 28L      0.100700
     49 H13         1.7960   10.7330    4.8060 hc        1 28L      0.100700
     50 H14        -0.2170   14.6680    4.6250 h1        1 28L      0.057033
     51 H15        -1.4960   13.3600    4.3950 h1        1 28L      0.057033
     52 H16        -1.1620   14.0250    6.0720 h1        1 28L      0.057033
     53 H17        -1.3580    8.3290    8.9510 ha        1 28L      0.160000
     54 H18        -1.5060    5.0010   12.1110 hc        1 28L      0.040700
     55 H19        -0.0720    5.6600   11.2160 hc        1 28L      0.040700
     56 H20        -0.8890    4.1470   10.6330 hc        1 28L      0.040700
     57 H21        -1.2160    7.8730   11.0460 hc        1 28L      0.040700
     58 H22        -2.9120    7.9740   10.3860 hc        1 28L      0.040700
     59 H23        -2.5930    7.1570   11.9700 hc        1 28L      0.040700
     60 H24        -3.8970    5.4250   11.1300 hc        1 28L      0.040700
     61 H25        -3.2360    4.2230    9.9510 hc        1 28L      0.040700
     62 H26        -3.9770    5.7740    9.3520 hc        1 28L      0.040700
     63 H27        -2.2680    3.0470    6.6750 h1        1 28L      0.044033
     64 H28        -3.4200    3.8440    7.8490 h1        1 28L      0.044033
     65 H29        -2.6740    2.2120    8.2650 h1        1 28L      0.044033
@<TRIPOS>BOND
     1    1    2 1   
     2    1   37 1   
     3    1   38 1   
     4    1   39 1   
     5    2    3 1   
     6    2   35 2   
     7    2   36 2   
     8    3    4 1   
     9    3   40 1   
    10    4    5 ar  
    11    4    7 ar  
    12    5    6 ar  
    13    5   41 1   
    14    6    9 ar  
    15    6   42 1   
    16    7    8 ar  
    17    7   43 1   
    18    8    9 ar  
    19    8   44 1   
    20    9   10 1   
    21   10   11 ar  
    22   10   13 ar  
    23   11   12 ar  
    24   11   45 1   
    25   12   15 ar  
    26   13   14 ar  
    27   13   46 1   
    28   14   15 ar  
    29   14   32 ar  
    30   15   16 ar  
    31   16   17 1   
    32   16   26 ar  
    33   17   18 2   
    34   17   24 1   
    35   18   19 1   
    36   18   47 1   
    37   19   20 1   
    38   19   48 1   
    39   19   49 1   
    40   20   21 1   
    41   20   23 2   
    42   21   22 1   
    43   22   50 1   
    44   22   51 1   
    45   22   52 1   
    46   23   24 1   
    47   24   25 2   
    48   26   27 ar  
    49   26   53 1   
    50   27   28 1   
    51   27   32 ar  
    52   28   29 1   
    53   28   30 1   
    54   28   31 1   
    55   29   54 1   
    56   29   55 1   
    57   29   56 1   
    58   30   57 1   
    59   30   58 1   
    60   30   59 1   
    61   31   60 1   
    62   31   61 1   
    63   31   62 1   
    64   32   33 1   
    65   33   34 1   
    66   34   63 1   
    67   34   64 1   
    68   34   65 1   
@<TRIPOS>SUBSTRUCTURE
     1 28L         1 TEMP              0 ****  ****    0 ROOT
