@<TRIPOS>MOLECULE
28M
   67    70     1     0     0
SMALL
bcc


@<TRIPOS>ATOM
      1 C1         -0.1240   -0.2660    0.7280 ca        1 28M     -0.047100
      2 C2          1.2300   -0.3520    0.9910 ca        1 28M     -0.092000
      3 C3          1.8030   -0.0820    2.2600 ca        1 28M     -0.032300
      4 C4          0.9440    0.3560    3.2620 ca        1 28M      0.064100
      5 C5         -0.4670    0.4120    3.0620 ca        1 28M     -0.154300
      6 C6         -1.0260    0.0910    1.7890 ca        1 28M      0.408600
      7 N7         -2.3920    0.1310    1.5800 nb        1 28M     -0.636000
      8 C8         -3.1890    0.4280    2.5840 ca        1 28M      0.433200
      9 C9         -2.7240    0.7260    3.9240 ca        1 28M     -0.046700
     10 C10        -1.3550    0.7380    4.1230 ca        1 28M     -0.148000
     11 N11        -3.7010    0.9870    4.9380 nh        1 28M     -0.563000
     12 C12        -3.2610    1.9170    5.9860 c3        1 28M      0.144800
     13 C13        -2.8060    1.1020    7.2180 c3        1 28M     -0.117400
     14 C14        -3.2800   -0.3330    6.9640 c3        1 28M     -0.122700
     15 C15        -4.1080   -0.2340    5.6490 c3        1 28M      0.156800
     16 C16        -2.1480   -1.3290    6.7360 c3        1 28M      0.097800
     17 N17        -1.1850   -1.4650    7.8520 ny        1 28M     -0.708900
     18 S18         0.2360   -2.6520    7.4320 s6        1 28M      1.423900
     19 O19         0.5540   -3.1000    8.6960 o         1 28M     -0.559300
     20 O20        -0.3280   -3.4860    6.4960 o         1 28M     -0.559300
     21 C21         1.2970   -1.5690    6.8320 c3        1 28M     -0.500300
     22 O22         1.4120    0.6800    4.5380 os        1 28M     -0.394900
     23 C23         1.5380    2.0920    4.7480 c3        1 28M      0.112700
     24 C24         3.2790   -0.3050    2.4820 c3        1 28M     -0.001700
     25 C25         3.9730    1.0020    2.8520 c3        1 28M     -0.092100
     26 C26         3.4710   -1.3190    3.6090 c3        1 28M     -0.092100
     27 C27         3.9770   -0.8630    1.2430 c3        1 28M     -0.092100
     28 C28        -0.6120   -0.5220   -0.6240 cc        1 28M     -0.179400
     29 C29         0.0870    0.1630   -1.7240 c         1 28M      0.690700
     30 O30         1.0890    0.8970   -1.6070 o         1 28M     -0.647500
     31 N31        -0.4180   -0.0430   -3.0230 ns        1 28M     -0.429100
     32 C33        -1.4840   -0.8720   -3.2590 cc        1 28M      0.032600
     33 C34        -2.1110   -1.5430   -2.2360 cd        1 28M     -0.259000
     34 C35        -1.6630   -1.3550   -0.8990 cd        1 28M      0.018000
     35 H1          1.8900   -0.6070    0.1410 ha        1 28M      0.174000
     36 H2         -4.2740    0.4510    2.3610 h4        1 28M      0.047100
     37 H3         -0.9180    1.0000    5.1000 ha        1 28M      0.121000
     38 H4         -4.1590    2.5410    6.2540 h1        1 28M      0.081700
     39 H5         -2.4530    2.6050    5.6270 h1        1 28M      0.081700
     40 H6         -1.6980    1.1770    7.3300 hc        1 28M      0.050700
     41 H7         -3.2740    1.5150    8.1450 hc        1 28M      0.050700
     42 H8         -3.9360   -0.6890    7.7990 hc        1 28M      0.083700
     43 H9         -5.1940   -0.1110    5.9150 h1        1 28M      0.082700
     44 H10        -3.9970   -1.1480    5.0100 h1        1 28M      0.082700
     45 H11        -2.5910   -2.3520    6.5410 hx        1 28M      0.113200
     46 H12        -1.5610   -1.0170    5.8190 hx        1 28M      0.113200
     47 H13        -0.8350   -0.5390    8.0960 hn        1 28M      0.450300
     48 H14         2.1700   -2.0660    6.3020 h1        1 28M      0.190700
     49 H15         0.9320   -0.8580    6.0250 h1        1 28M      0.190700
     50 H16         1.7970   -0.9050    7.5910 h1        1 28M      0.190700
     51 H17         2.0350    2.5870    3.8800 h1        1 28M      0.048700
     52 H18         2.1680    2.1750    5.6680 h1        1 28M      0.048700
     53 H19         0.5270    2.5390    4.9120 h1        1 28M      0.048700
     54 H20         5.0800    0.8860    2.7560 hc        1 28M      0.042033
     55 H21         3.7450    1.2810    3.9090 hc        1 28M      0.042033
     56 H22         3.6430    1.8250    2.1740 hc        1 28M      0.042033
     57 H23         2.9910   -0.9580    4.5500 hc        1 28M      0.042033
     58 H24         3.0220   -2.3010    3.3260 hc        1 28M      0.042033
     59 H25         4.5620   -1.4660    3.7980 hc        1 28M      0.042033
     60 H26         3.5050   -1.8200    0.9170 hc        1 28M      0.042033
     61 H27         5.0500   -1.0680    1.4810 hc        1 28M      0.042033
     62 H28         3.9420   -0.1260    0.4050 hc        1 28M      0.042033
     63 H29         0.0250    0.4340   -3.7790 hn        1 28M      0.342500
     64 H30        -1.8050   -0.9710   -4.3130 h4        1 28M      0.162000
     65 H31        -2.9570   -2.2110   -2.4430 ha        1 28M      0.159000
     66 H32        -2.1840   -1.9020   -0.0960 ha        1 28M      0.147000
     67 H172       -1.6810   -1.8080    8.6770 hn        1 28M      0.450300
@<TRIPOS>BOND
     1    1    2 ar  
     2    1    6 ar  
     3    1   28 1   
     4    2    3 ar  
     5    2   35 1   
     6    3    4 ar  
     7    3   24 1   
     8    4    5 ar  
     9    4   22 1   
    10    5    6 ar  
    11    5   10 ar  
    12    6    7 ar  
    13    7    8 ar  
    14    8    9 ar  
    15    8   36 1   
    16    9   10 ar  
    17    9   11 1   
    18   10   37 1   
    19   11   12 1   
    20   11   15 1   
    21   12   13 1   
    22   12   38 1   
    23   12   39 1   
    24   13   14 1   
    25   13   40 1   
    26   13   41 1   
    27   14   15 1   
    28   14   16 1   
    29   14   42 1   
    30   15   43 1   
    31   15   44 1   
    32   16   17 1   
    33   16   45 1   
    34   16   46 1   
    35   17   18 1   
    36   17   47 1   
    37   17   67 1   
    38   18   19 2   
    39   18   20 2   
    40   18   21 1   
    41   21   48 1   
    42   21   49 1   
    43   21   50 1   
    44   22   23 1   
    45   23   51 1   
    46   23   52 1   
    47   23   53 1   
    48   24   25 1   
    49   24   26 1   
    50   24   27 1   
    51   25   54 1   
    52   25   55 1   
    53   25   56 1   
    54   26   57 1   
    55   26   58 1   
    56   26   59 1   
    57   27   60 1   
    58   27   61 1   
    59   27   62 1   
    60   28   29 1   
    61   28   34 2   
    62   29   30 2   
    63   29   31 1   
    64   31   32 1   
    65   31   63 1   
    66   32   33 2   
    67   32   64 1   
    68   33   34 1   
    69   33   65 1   
    70   34   66 1   
@<TRIPOS>SUBSTRUCTURE
     1 28M         1 TEMP              0 ****  ****    0 ROOT
