@<TRIPOS>MOLECULE
28M
   67    70     1     0     0
SMALL
bcc


@<TRIPOS>ATOM
      1 C1         -0.1350   -0.3070    0.7320 ca        1 28M     -0.047100
      2 C2          1.2200   -0.3940    0.9930 ca        1 28M     -0.092000
      3 C3          1.7960   -0.1060    2.2570 ca        1 28M     -0.032300
      4 C4          0.9410    0.3500    3.2540 ca        1 28M      0.064100
      5 C5         -0.4710    0.4070    3.0560 ca        1 28M     -0.154300
      6 C6         -1.0330    0.0680    1.7890 ca        1 28M      0.408600
      7 N7         -2.4000    0.1100    1.5830 nb        1 28M     -0.636000
      8 C8         -3.1940    0.4240    2.5830 ca        1 28M      0.433200
      9 C9         -2.7250    0.7410    3.9180 ca        1 28M     -0.046700
     10 C10        -1.3560    0.7520    4.1140 ca        1 28M     -0.148000
     11 N11        -3.7000    1.0200    4.9300 nh        1 28M     -0.563000
     12 C12        -3.2550    1.9640    5.9620 c3        1 28M      0.144800
     13 C13        -2.7990    1.1680    7.2060 c3        1 28M     -0.117400
     14 C14        -3.2770   -0.2690    6.9750 c3        1 28M     -0.122700
     15 C15        -4.1080   -0.1890    5.6600 c3        1 28M      0.156800
     16 C16        -2.1490   -1.2730    6.7600 c3        1 28M      0.097800
     17 N17        -1.1840   -1.3930    7.8760 n4        1 28M     -0.708900
     18 S18         0.2330   -2.5910    7.4720 s6        1 28M      1.423900
     19 O19         0.5510   -3.0210    8.7420 o         1 28M     -0.559300
     20 O20        -0.3360   -3.4380    6.5500 o         1 28M     -0.559300
     21 C21         1.2960   -1.5200    6.8530 c3        1 28M     -0.500300
     22 O22         1.4120    0.6910    4.5240 os        1 28M     -0.394900
     23 C23         1.5420    2.1060    4.7130 c3        1 28M      0.112700
     24 C24         3.2720   -0.3300    2.4790 c3        1 28M     -0.001700
     25 C25         3.9710    0.9800    2.8290 c3        1 28M     -0.092100
     26 C26         3.4630   -1.3280    3.6210 c3        1 28M     -0.092100
     27 C27         3.9660   -0.9090    1.2470 c3        1 28M     -0.092100
     28 C28        -0.6260   -0.5820   -0.6150 cc        1 28M     -0.179400
     29 C29         0.0730    0.0840   -1.7270 c         1 28M      0.690700
     30 O30         1.0770    0.8180   -1.6230 o         1 28M     -0.647500
     31 N31        -0.4360   -0.1400   -3.0220 n         1 28M     -0.429100
     32 C33        -1.5040   -0.9690   -3.2430 cc        1 28M      0.032600
     33 C34        -2.1320   -1.6230   -2.2090 cd        1 28M     -0.259000
     34 C35        -1.6810   -1.4160   -0.8750 cd        1 28M      0.018000
     35 H1          1.8770   -0.6630    0.1460 ha        1 28M      0.174000
     36 H2         -4.2790    0.4470    2.3620 h4        1 28M      0.047100
     37 H3         -0.9160    1.0280    5.0850 ha        1 28M      0.121000
     38 H4         -2.4450    2.6450    5.5910 h1        1 28M      0.081700
     39 H5         -4.1500    2.5950    6.2220 h1        1 28M      0.081700
     40 H6         -1.6900    1.2410    7.3140 hc        1 28M      0.050700
     41 H7         -3.2640    1.5970    8.1270 hc        1 28M      0.050700
     42 H8         -3.9330   -0.6110    7.8160 hc        1 28M      0.083700
     43 H9         -5.1930   -0.0590    5.9260 h1        1 28M      0.082700
     44 H10        -4.0000   -1.1120    5.0350 h1        1 28M      0.082700
     45 H11        -2.5950   -2.2970    6.5820 hx        1 28M      0.113200
     46 H12        -1.5630   -0.9760    5.8370 hx        1 28M      0.113200
     47 H13        -1.6790   -1.7230    8.7070 hn        1 28M      0.450300
     48 H14         1.7990   -0.8460    7.6010 h1        1 28M      0.190700
     49 H15         0.9320   -0.8220    6.0360 h1        1 28M      0.190700
     50 H16         2.1670   -2.0290    6.3300 h1        1 28M      0.190700
     51 H17         2.0400    2.5860    3.8360 h1        1 28M      0.048700
     52 H18         0.5330    2.5590    4.8720 h1        1 28M      0.048700
     53 H19         2.1750    2.2010    5.6290 h1        1 28M      0.048700
     54 H20         3.6420    1.7940    2.1390 hc        1 28M      0.042033
     55 H21         5.0770    0.8590    2.7320 hc        1 28M      0.042033
     56 H22         3.7460    1.2750    3.8810 hc        1 28M      0.042033
     57 H23         2.9860   -0.9510    4.5570 hc        1 28M      0.042033
     58 H24         3.0100   -2.3120    3.3530 hc        1 28M      0.042033
     59 H25         4.5540   -1.4750    3.8110 hc        1 28M      0.042033
     60 H26         3.4900   -1.8700    0.9360 hc        1 28M      0.042033
     61 H27         3.9320   -0.1840    0.3990 hc        1 28M      0.042033
     62 H28         5.0380   -1.1140    1.4870 hc        1 28M      0.042033
     63 H29         0.0060    0.3250   -3.7850 hn        1 28M      0.342500
     64 H30        -1.8280   -1.0830   -4.2940 h4        1 28M      0.162000
     65 H31        -2.9800   -2.2910   -2.4040 ha        1 28M      0.159000
     66 H32        -2.2010   -1.9490   -0.0640 ha        1 28M      0.147000
     67 H172       -0.8310   -0.4650    8.1050 hn        1 28M      0.450300
@<TRIPOS>BOND
     1    1    2 ar  
     2    1    6 ar  
     3    1   28 1   
     4    2    3 ar  
     5    2   35 1   
     6    3    4 ar  
     7    3   24 1   
     8    4    5 ar  
     9    4   22 1   
    10    5    6 ar  
    11    5   10 ar  
    12    6    7 ar  
    13    7    8 ar  
    14    8    9 ar  
    15    8   36 1   
    16    9   10 ar  
    17    9   11 1   
    18   10   37 1   
    19   11   12 1   
    20   11   15 1   
    21   12   13 1   
    22   12   38 1   
    23   12   39 1   
    24   13   14 1   
    25   13   40 1   
    26   13   41 1   
    27   14   15 1   
    28   14   16 1   
    29   14   42 1   
    30   15   43 1   
    31   15   44 1   
    32   16   17 1   
    33   16   45 1   
    34   16   46 1   
    35   17   18 1   
    36   17   47 1   
    37   17   67 1   
    38   18   19 2   
    39   18   20 2   
    40   18   21 1   
    41   21   48 1   
    42   21   49 1   
    43   21   50 1   
    44   22   23 1   
    45   23   51 1   
    46   23   52 1   
    47   23   53 1   
    48   24   25 1   
    49   24   26 1   
    50   24   27 1   
    51   25   54 1   
    52   25   55 1   
    53   25   56 1   
    54   26   57 1   
    55   26   58 1   
    56   26   59 1   
    57   27   60 1   
    58   27   61 1   
    59   27   62 1   
    60   28   29 1   
    61   28   34 2   
    62   29   30 2   
    63   29   31 1   
    64   31   32 1   
    65   31   63 1   
    66   32   33 2   
    67   32   64 1   
    68   33   34 1   
    69   33   65 1   
    70   34   66 1   
@<TRIPOS>SUBSTRUCTURE
     1 28M         1 TEMP              0 ****  ****    0 ROOT
