@<TRIPOS>MOLECULE
28M
   67    70     1     0     0
SMALL
bcc


@<TRIPOS>ATOM
      1 C1         -0.1200   -0.3300    0.7290 ca        1 28M     -0.047100
      2 C2          1.2350   -0.4070    0.9960 ca        1 28M     -0.092000
      3 C3          1.8050   -0.1070    2.2600 ca        1 28M     -0.032300
      4 C4          0.9430    0.3520    3.2500 ca        1 28M      0.064100
      5 C5         -0.4680    0.3990    3.0470 ca        1 28M     -0.154300
      6 C6         -1.0240    0.0490    1.7800 ca        1 28M      0.408600
      7 N7         -2.3890    0.0810    1.5680 nb        1 28M     -0.636000
      8 C8         -3.1890    0.3980    2.5630 ca        1 28M      0.433200
      9 C9         -2.7280    0.7280    3.8970 ca        1 28M     -0.046700
     10 C10        -1.3590    0.7480    4.0980 ca        1 28M     -0.148000
     11 N11        -3.7070    1.0090    4.9040 nh        1 28M     -0.563000
     12 C12        -3.2710    1.9650    5.9300 c3        1 28M      0.144800
     13 C13        -2.8160    1.1810    7.1820 c3        1 28M     -0.117400
     14 C14        -3.2850   -0.2610    6.9610 c3        1 28M     -0.122700
     15 C15        -4.1100   -0.1960    5.6420 c3        1 28M      0.156800
     16 C16        -2.1500   -1.2590    6.7590 c3        1 28M      0.097800
     17 N17        -1.1880   -1.3650    7.8800 n4        1 28M     -0.708900
     18 S18         0.2370   -2.5570    7.4920 s6        1 28M      1.423900
     19 O19         0.5520   -2.9750    8.7680 o         1 28M     -0.559300
     20 O20        -0.3220   -3.4160    6.5740 o         1 28M     -0.559300
     21 C21         1.2960   -1.4850    6.8700 c3        1 28M     -0.500300
     22 O22         1.4080    0.7050    4.5190 os        1 28M     -0.394900
     23 C23         1.5300    2.1210    4.6980 c3        1 28M      0.112700
     24 C24         3.2810   -0.3220    2.4890 c3        1 28M     -0.001700
     25 C25         3.9720    0.9940    2.8320 c3        1 28M     -0.092100
     26 C26         3.4730   -1.3120    3.6380 c3        1 28M     -0.092100
     27 C27         3.9820   -0.9050    1.2640 c3        1 28M     -0.092100
     28 C28        -0.6040   -0.6180   -0.6170 cc        1 28M     -0.179400
     29 C29         0.0950    0.0450   -1.7310 c         1 28M      0.690700
     30 O30         1.0950    0.7840   -1.6290 o         1 28M     -0.647500
     31 N31        -0.4080   -0.1910   -3.0270 n         1 28M     -0.429100
     32 C33        -1.4710   -1.0270   -3.2450 cc        1 28M      0.032600
     33 C34        -2.0990   -1.6780   -2.2090 cd        1 28M     -0.259000
     34 C35        -1.6530   -1.4590   -0.8750 cd        1 28M      0.018000
     35 H1          1.8970   -0.6790    0.1530 ha        1 28M      0.174000
     36 H2         -4.2740    0.4140    2.3380 h4        1 28M      0.047100
     37 H3         -0.9240    1.0330    5.0700 ha        1 28M      0.121000
     38 H4         -2.4640    2.6460    5.5560 h1        1 28M      0.081700
     39 H5         -4.1710    2.5920    6.1810 h1        1 28M      0.081700
     40 H6         -3.2870    1.6150    8.0980 hc        1 28M      0.050700
     41 H7         -1.7080    1.2610    7.2940 hc        1 28M      0.050700
     42 H8         -3.9420   -0.5990    7.8030 hc        1 28M      0.083700
     43 H9         -5.1970   -0.0700    5.9030 h1        1 28M      0.082700
     44 H10        -3.9950   -1.1240    5.0250 h1        1 28M      0.082700
     45 H11        -2.5890   -2.2880    6.5870 hx        1 28M      0.113200
     46 H12        -1.5620   -0.9670    5.8370 hx        1 28M      0.113200
     47 H13        -1.6860   -1.6910    8.7120 hn        1 28M      0.450300
     48 H14         2.1740   -1.9920    6.3560 h1        1 28M      0.190700
     49 H15         1.7900   -0.8010    7.6150 h1        1 28M      0.190700
     50 H16         0.9320   -0.7970    6.0440 h1        1 28M      0.190700
     51 H17         2.0290    2.5970    3.8200 h1        1 28M      0.048700
     52 H18         2.1580    2.2260    5.6170 h1        1 28M      0.048700
     53 H19         0.5180    2.5700    4.8490 h1        1 28M      0.048700
     54 H20         5.0790    0.8780    2.7400 hc        1 28M      0.042033
     55 H21         3.7410    1.2950    3.8820 hc        1 28M      0.042033
     56 H22         3.6400    1.8010    2.1370 hc        1 28M      0.042033
     57 H23         3.0260   -2.3000    3.3750 hc        1 28M      0.042033
     58 H24         2.9900   -0.9310    4.5700 hc        1 28M      0.042033
     59 H25         4.5640   -1.4510    3.8330 hc        1 28M      0.042033
     60 H26         3.5140   -1.8710    0.9580 hc        1 28M      0.042033
     61 H27         3.9470   -0.1860    0.4100 hc        1 28M      0.042033
     62 H28         5.0550   -1.1030    1.5090 hc        1 28M      0.042033
     63 H29         0.0350    0.2710   -3.7920 hn        1 28M      0.342500
     64 H30        -1.7900   -1.1510   -4.2980 h4        1 28M      0.162000
     65 H31        -2.9420   -2.3520   -2.4030 ha        1 28M      0.159000
     66 H32        -2.1740   -1.9890   -0.0620 ha        1 28M      0.147000
     67 H172       -0.8420   -0.4320    8.1030 hn        1 28M      0.450300
@<TRIPOS>BOND
     1    1    2 ar  
     2    1    6 ar  
     3    1   28 1   
     4    2    3 ar  
     5    2   35 1   
     6    3    4 ar  
     7    3   24 1   
     8    4    5 ar  
     9    4   22 1   
    10    5    6 ar  
    11    5   10 ar  
    12    6    7 ar  
    13    7    8 ar  
    14    8    9 ar  
    15    8   36 1   
    16    9   10 ar  
    17    9   11 1   
    18   10   37 1   
    19   11   12 1   
    20   11   15 1   
    21   12   13 1   
    22   12   38 1   
    23   12   39 1   
    24   13   14 1   
    25   13   40 1   
    26   13   41 1   
    27   14   15 1   
    28   14   16 1   
    29   14   42 1   
    30   15   43 1   
    31   15   44 1   
    32   16   17 1   
    33   16   45 1   
    34   16   46 1   
    35   17   18 1   
    36   17   47 1   
    37   17   67 1   
    38   18   19 2   
    39   18   20 2   
    40   18   21 1   
    41   21   48 1   
    42   21   49 1   
    43   21   50 1   
    44   22   23 1   
    45   23   51 1   
    46   23   52 1   
    47   23   53 1   
    48   24   25 1   
    49   24   26 1   
    50   24   27 1   
    51   25   54 1   
    52   25   55 1   
    53   25   56 1   
    54   26   57 1   
    55   26   58 1   
    56   26   59 1   
    57   27   60 1   
    58   27   61 1   
    59   27   62 1   
    60   28   29 1   
    61   28   34 2   
    62   29   30 2   
    63   29   31 1   
    64   31   32 1   
    65   31   63 1   
    66   32   33 2   
    67   32   64 1   
    68   33   34 1   
    69   33   65 1   
    70   34   66 1   
@<TRIPOS>SUBSTRUCTURE
     1 28M         1 TEMP              0 ****  ****    0 ROOT
