@<TRIPOS>MOLECULE
28N
   20    20     1     0     0
SMALL
bcc


@<TRIPOS>ATOM
      1 C4         -0.2050    0.4610   -0.4430 c1        1 28N     -0.231000
      2 C5          1.1910    0.7510   -0.2120 c3        1 28N      0.146000
      3 C7          4.4500   -2.4690   -0.3620 c1        1 28N      0.060000
      4 C8          4.5360   -1.0940   -0.7320 c2        1 28N     -0.149000
      5 C15         1.6390   -0.6450   -2.2050 c1        1 28N     -0.159000
      6 C11         4.0810    1.0920   -1.1970 c2        1 28N      0.341000
      7 O10         5.4870    0.7600   -1.3640 os        1 28N     -0.124000
      8 N9          5.6950   -0.4980   -1.1070 n2        1 28N      0.153000
      9 N13         3.4860   -0.0930   -0.7330 n         1 28N     -0.284000
     10 O6          1.4980    0.8890    1.1610 oh        1 28N     -0.292000
     11 C14         2.0730   -0.3870   -0.8470 c3        1 28N      0.134000
     12 C2          1.2780   -0.8760   -3.3250 c1        1 28N     -0.244000
     13 Br1         0.7430   -1.2090   -4.9460 br        1 28N      0.253000
     14 C3         -1.3690    0.2640   -0.6300 c1        1 28N     -0.142000
     15 H4          1.4740    1.7530   -0.6630 h1        1 28N      0.171000
     16 H7          1.1440    0.1220    1.6280 ho        1 28N      0.205000
     17 H7A         3.4770   -2.8140    0.0220 ha        1 28N      0.058000
     18 H15         1.9010   -1.3290   -0.2330 h1        1 28N      0.128000
     19 H3         -2.4030    0.0880   -0.8000 ha        1 28N      0.231000
     20 O12         3.7520    2.2470   -1.4100 o         1 28N     -0.255000
@<TRIPOS>BOND
     1    1    2 1   
     2    1   14 1   
     3    2   10 1   
     4    2   11 1   
     5    2   15 1   
     6    3    4 1   
     7    3   17 1   
     8    4    8 1   
     9    4    9 1   
    10    5   11 1   
    11    5   12 1   
    12    6    7 1   
    13    6    9 1   
    14    6   20 1   
    15    7    8 1   
    16    9   11 1   
    17   10   16 1   
    18   11   18 1   
    19   12   13 1   
    20   14   19 1   
@<TRIPOS>SUBSTRUCTURE
     1 28N         1 TEMP              0 ****  ****    0 ROOT
