@<TRIPOS>MOLECULE
28N
   20    22     1     0     0
SMALL
bcc


@<TRIPOS>ATOM
      1 C4          0.4420    2.4290    0.1540 ca        1 28N     -0.123000
      2 C5         -0.7370    1.6820    0.0710 ca        1 28N      0.094100
      3 C7         -3.0780    1.7790   -0.4350 c3        1 28N      0.122100
      4 C8         -3.1220    0.2990   -0.2210 cc        1 28N      0.315900
      5 C15         0.5650   -0.3830    0.0040 ca        1 28N     -0.090000
      6 C11        -2.2460   -1.7740    0.0760 c         1 28N      0.796600
      7 O10        -3.6720   -1.7800    0.0590 os        1 28N     -0.113600
      8 N9         -4.1530   -0.5410   -0.1070 n2        1 28N     -0.378200
      9 N13        -1.8950   -0.4250   -0.1430 n         1 28N     -0.310500
     10 O6         -1.9280    2.3860    0.1590 os        1 28N     -0.310900
     11 C14        -0.6810    0.2640   -0.0110 ca        1 28N      0.021600
     12 C2          1.7320    0.3790    0.0980 ca        1 28N     -0.028900
     13 BR1         3.3920   -0.4830    0.1260 br        1 28N     -0.063100
     14 C3          1.6700    1.7740    0.1710 ca        1 28N     -0.090000
     15 H4          0.3830    3.5260    0.2190 ha        1 28N      0.163000
     16 H7         -3.0750    1.9910   -1.5400 h1        1 28N      0.097700
     17 H7A        -3.9430    2.2930    0.0680 h1        1 28N      0.097700
     18 H15         0.6080   -1.4860   -0.0480 ha        1 28N      0.180000
     19 H3          2.5950    2.3700    0.2410 ha        1 28N      0.158000
     20 O12        -1.6250   -2.8160    0.2170 o         1 28N     -0.539500
@<TRIPOS>BOND
     1    1    2 ar  
     2    1   14 ar  
     3    1   15 1   
     4    2   10 1   
     5    2   11 ar  
     6    3    4 1   
     7    3   10 1   
     8    3   16 1   
     9    3   17 1   
    10    4    8 2   
    11    4    9 1   
    12    5   11 ar  
    13    5   12 ar  
    14    5   18 1   
    15    6    7 1   
    16    6    9 1   
    17    6   20 2   
    18    7    8 1   
    19    9   11 1   
    20   12   13 1   
    21   12   14 ar  
    22   14   19 1   
@<TRIPOS>SUBSTRUCTURE
     1 28N         1 TEMP              0 ****  ****    0 ROOT
