@<TRIPOS>MOLECULE
28N
   20    18     1     0     0
SMALL
bcc


@<TRIPOS>ATOM
      1 C4         -2.1500   -0.1510    0.9100 c1        1 28N     -0.123000
      2 C5         -0.7410   -0.1510    0.9100 c1        1 28N      0.049000
      3 C7          1.3910   -0.1510    2.1450 c3        1 28N      0.047000
      4 C8          2.0170   -0.1510    0.7240 c2        1 28N     -0.054000
      5 C15        -0.7630   -0.1510   -1.4940 c1        1 28N     -0.090000
      6 O12         1.9110    0.3780   -2.6350 o         1 28N     -0.264000
      7 C11         2.0600    0.4970   -1.4350 c1        1 28N      0.364000
      8 O10         3.3640    0.8520   -0.7250 os        1 28N     -0.122000
      9 N9          3.1810    0.4100    0.5210 n2        1 28N      0.008000
     10 N13         1.2240   -0.1510   -0.3590 n2        1 28N     -0.244000
     11 O6         -0.0280   -0.1510    2.1450 o         1 28N     -0.194000
     12 C14        -0.0580   -0.1510   -0.2750 c2        1 28N      0.029000
     13 C2         -2.1500   -0.1510   -1.4930 c1        1 28N     -0.169000
     14 BR1        -3.1750    0.1140   -3.0850 br        1 28N      0.077000
     15 C3         -2.8430   -0.1510   -0.2910 c1        1 28N     -0.090000
     16 H4         -2.6380   -0.1510    1.7550 ha        1 28N      0.163000
     17 H7          1.8080   -0.8900    2.6280 h1        1 28N      0.137000
     18 H7A         1.6850    0.6070    2.6850 h1        1 28N      0.137000
     19 H15        -0.2760   -0.1580   -2.3400 ha        1 28N      0.180000
     20 H3         -3.8190   -0.1510   -0.2910 ha        1 28N      0.158000
@<TRIPOS>BOND
     1    1    2 1   
     2    1   16 1   
     3    2   12 1   
     4    3    4 1   
     5    3   11 1   
     6    3   17 1   
     7    3   18 1   
     8    4    9 1   
     9    4   10 1   
    10    5   12 1   
    11    5   19 1   
    12    6    7 1   
    13    7    8 1   
    14    8    9 1   
    15   10   12 1   
    16   13   14 1   
    17   13   15 1   
    18   15   20 1   
@<TRIPOS>SUBSTRUCTURE
     1 28N         1 TEMP              0 ****  ****    0 ROOT
