@<TRIPOS>MOLECULE
28O
   38    39     1     0     0
SMALL
bcc


@<TRIPOS>ATOM
      1 C1          0.0110    0.0550   -0.0420 ca        1 28O     -0.076800
      2 C2          1.4070    0.1570   -0.0460 ca        1 28O     -0.091000
      3 C3          2.1110    0.1790    1.1530 ca        1 28O     -0.212000
      4 C4          1.4250    0.0970    2.3720 ca        1 28O      0.135100
      5 C5          0.0120   -0.0170    2.4080 ca        1 28O     -0.085300
      6 C6         -0.6620   -0.0380    1.1860 ca        1 28O     -0.071000
      7 C7         -0.7410   -0.1170    3.7110 c3        1 28O      0.006300
      8 C8         -0.4910    1.1320    4.5520 c3        1 28O     -0.088767
      9 C9         -2.2490   -0.2360    3.5000 c3        1 28O     -0.088767
     10 C10        -0.2860   -1.3540    4.4800 c3        1 28O     -0.088767
     11 O11         2.0790    0.1260    3.5900 os        1 28O     -0.326900
     12 C12         3.5000    0.1820    3.5530 c3        1 28O      0.112700
     13 C13        -0.7180    0.0650   -1.3050 cc        1 28O     -0.128400
     14 C14        -1.9050   -0.7960   -1.4490 c         1 28O      0.688700
     15 O15        -2.3950   -1.5390   -0.5760 o         1 28O     -0.642500
     16 N16        -2.5540   -0.7760   -2.7010 n         1 28O     -0.439100
     17 C18        -2.1190    0.0180   -3.7320 cc        1 28O      0.008600
     18 C19        -1.0240    0.8340   -3.5930 cd        1 28O     -0.247000
     19 C20        -0.3200    0.8490   -2.3540 cd        1 28O     -0.044000
     20 H1          1.9560    0.2110   -0.9980 ha        1 28O      0.129000
     21 H2          3.2060    0.2580    1.1260 ha        1 28O      0.135000
     22 H3         -1.7600   -0.1470    1.1550 ha        1 28O      0.161000
     23 H4         -0.8050    2.0440    3.9920 hc        1 28O      0.038367
     24 H5         -1.0800    1.0730    5.4990 hc        1 28O      0.038367
     25 H6          0.5900    1.2240    4.8130 hc        1 28O      0.038367
     26 H7         -2.7580   -0.3100    4.4920 hc        1 28O      0.038367
     27 H8         -2.4960   -1.1510    2.9110 hc        1 28O      0.038367
     28 H9         -2.6470    0.6630    2.9710 hc        1 28O      0.038367
     29 H10         0.7980   -1.2850    4.7360 hc        1 28O      0.038367
     30 H11        -0.8690   -1.4450    5.4280 hc        1 28O      0.038367
     31 H12        -0.4530   -2.2710    3.8660 hc        1 28O      0.038367
     32 H13         3.9190   -0.7070    3.0220 h1        1 28O      0.043367
     33 H14         3.7870    0.1650    4.6350 h1        1 28O      0.043367
     34 H15         3.8460    1.1280    3.0710 h1        1 28O      0.043367
     35 H17        -3.3510   -1.3620   -2.8250 hn        1 28O      0.333500
     36 H16        -2.6980   -0.0370   -4.6710 h4        1 28O      0.151000
     37 H18        -0.6890    1.4690   -4.4210 ha        1 28O      0.151000
     38 H19         0.5550    1.5120   -2.2580 ha        1 28O      0.143000
@<TRIPOS>BOND
     1    1    2 ar  
     2    1    6 ar  
     3    1   13 1   
     4    2    3 ar  
     5    2   20 1   
     6    3    4 ar  
     7    3   21 1   
     8    4    5 ar  
     9    4   11 1   
    10    5    6 ar  
    11    5    7 1   
    12    6   22 1   
    13    7    8 1   
    14    7    9 1   
    15    7   10 1   
    16    8   23 1   
    17    8   24 1   
    18    8   25 1   
    19    9   26 1   
    20    9   27 1   
    21    9   28 1   
    22   10   29 1   
    23   10   30 1   
    24   10   31 1   
    25   11   12 1   
    26   12   32 1   
    27   12   33 1   
    28   12   34 1   
    29   13   14 1   
    30   13   19 2   
    31   14   15 2   
    32   14   16 1   
    33   16   17 1   
    34   16   35 1   
    35   17   18 2   
    36   17   36 1   
    37   18   19 1   
    38   18   37 1   
    39   19   38 1   
@<TRIPOS>SUBSTRUCTURE
     1 28O         1 TEMP              0 ****  ****    0 ROOT
