@<TRIPOS>MOLECULE
28O
   38    35     1     0     0
SMALL
bcc


@<TRIPOS>ATOM
      1 C1         -0.4010   -0.0230   -1.3990 c1        1 28O     -0.065000
      2 C2          1.0070    0.0790   -1.4640 c1        1 28O     -0.151500
      3 C3          1.7500    0.2240   -0.2920 c1        1 28O     -0.151500
      4 C4          1.1030    0.2670    0.9400 c1        1 28O      0.090000
      5 C5         -0.3040    0.1640    1.0000 c1        1 28O     -0.078000
      6 C6         -1.0450    0.0210   -0.1640 c1        1 28O     -0.071000
      7 C7         -1.0010    0.1180    2.3500 c3        1 28O     -0.001000
      8 C8         -2.4550   -0.1440    2.1520 c3        1 28O     -0.206667
      9 C9         -0.8170    1.4650    3.0610 c3        1 28O     -0.206667
     10 C10        -0.3740   -1.0290    3.2210 c3        1 28O     -0.206667
     11 O11         1.8670    0.2090    2.1400 os        1 28O     -0.210000
     12 C12         3.0990    1.0000    2.0920 c3        1 28O     -0.077000
     13 C13        -1.2410   -0.0390   -2.7070 c2        1 28O     -0.121000
     14 C14        -1.4600   -1.4800   -3.2540 c2        1 28O      0.327000
     15 O15        -2.2300   -1.5120   -4.1300 o         1 28O     -0.367000
     16 N16        -0.3090   -2.1070   -3.6950 n         1 28O     -0.283000
     17 C18         0.5870   -1.2510   -4.5660 c2        1 28O      0.006000
     18 C19         0.6010    0.2930   -4.2740 c1        1 28O     -0.247000
     19 C20        -0.6290    0.8480   -3.6110 c1        1 28O     -0.044000
     20 H1          1.4610    0.0490   -2.3340 ha        1 28O      0.132000
     21 H2          2.6940    0.2920   -0.3330 ha        1 28O      0.132000
     22 H3         -2.0190   -0.0500   -0.1180 ha        1 28O      0.161000
     23 H4         -2.8760    0.6380    1.6730 hc        1 28O      0.077667
     24 H5         -2.8980   -0.2680    3.0440 hc        1 28O      0.077667
     25 H6         -2.5640   -0.9130    1.6430 hc        1 28O      0.077667
     26 H7         -0.0150    1.4540    3.5460 hc        1 28O      0.077667
     27 H8         -0.7840    2.2110    2.3700 hc        1 28O      0.077667
     28 H9         -1.5530    1.6150    3.6600 hc        1 28O      0.077667
     29 H10        -1.0820   -1.4350    3.8000 hc        1 28O      0.077667
     30 H11         0.4040   -0.6270    3.8350 hc        1 28O      0.077667
     31 H12        -0.0400   -1.6500    2.6910 hc        1 28O      0.077667
     32 H13         3.7870    0.4980    1.6600 h1        1 28O      0.082667
     33 H14         3.3790    1.2180    2.9920 h1        1 28O      0.082667
     34 H15         2.9330    1.8320    1.5870 h1        1 28O      0.082667
     35 H17        -0.3490   -3.0060   -3.9460 hn        1 28O      0.247000
     36 H16         1.3610   -1.6290   -4.9420 h4        1 28O      0.151000
     37 H18         1.0830    0.8090   -4.8150 ha        1 28O      0.151000
     38 H19        -0.6700    1.8570   -3.4130 ha        1 28O      0.143000
@<TRIPOS>BOND
     1    1    6 1   
     2    1   13 1   
     3    2    3 1   
     4    2   20 1   
     5    3   21 1   
     6    4    5 1   
     7    4   11 1   
     8    5    7 1   
     9    6   22 1   
    10    7    8 1   
    11    7    9 1   
    12    7   10 1   
    13    8   23 1   
    14    8   24 1   
    15    8   25 1   
    16    9   26 1   
    17    9   27 1   
    18    9   28 1   
    19   10   29 1   
    20   10   30 1   
    21   10   31 1   
    22   11   12 1   
    23   12   32 1   
    24   12   33 1   
    25   12   34 1   
    26   13   14 1   
    27   13   19 1   
    28   14   15 1   
    29   14   16 1   
    30   16   17 1   
    31   16   35 1   
    32   17   18 1   
    33   17   36 1   
    34   18   37 1   
    35   19   38 1   
@<TRIPOS>SUBSTRUCTURE
     1 28O         1 TEMP              0 ****  ****    0 ROOT
