@<TRIPOS>MOLECULE
28O
   38    39     1     0     0
SMALL
bcc


@<TRIPOS>ATOM
      1 C1          0.0130    0.0600   -0.0420 ca        1 28O     -0.075800
      2 C2          1.4080    0.1710   -0.0430 ca        1 28O     -0.091000
      3 C3          2.1100    0.1930    1.1570 ca        1 28O     -0.212000
      4 C4          1.4230    0.1040    2.3740 ca        1 28O      0.135100
      5 C5          0.0100   -0.0190    2.4090 ca        1 28O     -0.085300
      6 C6         -0.6620   -0.0400    1.1850 ca        1 28O     -0.071000
      7 C7         -0.7440   -0.1270    3.7090 c3        1 28O      0.006300
      8 C8         -0.5020    1.1210    4.5550 c3        1 28O     -0.088767
      9 C9         -2.2500   -0.2540    3.4970 c3        1 28O     -0.088767
     10 C10        -0.2820   -1.3640    4.4760 c3        1 28O     -0.088767
     11 O11         2.0750    0.1330    3.5940 os        1 28O     -0.326900
     12 C12         3.4960    0.1940    3.5580 c3        1 28O      0.112700
     13 C13        -0.7150    0.0700   -1.3050 cc        1 28O     -0.128400
     14 C14        -1.8970   -0.7980   -1.4540 c         1 28O      0.688700
     15 O15        -2.3840   -1.5460   -0.5830 o         1 28O     -0.642500
     16 N16        -2.5450   -0.7780   -2.7070 n         1 28O     -0.439100
     17 C18        -2.1120    0.0210   -3.7350 cc        1 28O      0.008600
     18 C19        -1.0220    0.8430   -3.5920 cd        1 28O     -0.247000
     19 C20        -0.3200    0.8590   -2.3520 cd        1 28O     -0.044000
     20 H1          1.9580    0.2310   -0.9940 ha        1 28O      0.129000
     21 H2          3.2050    0.2790    1.1310 ha        1 28O      0.135000
     22 H3         -1.7590   -0.1560    1.1530 ha        1 28O      0.161000
     23 H4         -1.0910    1.0560    5.5010 hc        1 28O      0.038367
     24 H5          0.5780    1.2190    4.8170 hc        1 28O      0.038367
     25 H6         -0.8210    2.0330    3.9970 hc        1 28O      0.038367
     26 H7         -2.6540    0.6430    2.9700 hc        1 28O      0.038367
     27 H8         -2.4910   -1.1690    2.9050 hc        1 28O      0.038367
     28 H9         -2.7600   -0.3350    4.4880 hc        1 28O      0.038367
     29 H10        -0.8660   -1.4610    5.4230 hc        1 28O      0.038367
     30 H11         0.8010   -1.2880    4.7340 hc        1 28O      0.038367
     31 H12        -0.4430   -2.2800    3.8600 hc        1 28O      0.038367
     32 H13         3.9200   -0.6910    3.0250 h1        1 28O      0.043367
     33 H14         3.7810    0.1750    4.6410 h1        1 28O      0.043367
     34 H15         3.8390    1.1440    3.0790 h1        1 28O      0.043367
     35 H17        -3.3370   -1.3680   -2.8330 hn        1 28O      0.333500
     36 H16        -2.6900   -0.0350   -4.6750 h4        1 28O      0.151000
     37 H18        -0.6900    1.4830   -4.4180 ha        1 28O      0.151000
     38 H19         0.5510    1.5260   -2.2530 ha        1 28O      0.143000
@<TRIPOS>BOND
     1    1    2 ar  
     2    1    6 ar  
     3    1   13 1   
     4    2    3 ar  
     5    2   20 1   
     6    3    4 ar  
     7    3   21 1   
     8    4    5 ar  
     9    4   11 1   
    10    5    6 ar  
    11    5    7 1   
    12    6   22 1   
    13    7    8 1   
    14    7    9 1   
    15    7   10 1   
    16    8   23 1   
    17    8   24 1   
    18    8   25 1   
    19    9   26 1   
    20    9   27 1   
    21    9   28 1   
    22   10   29 1   
    23   10   30 1   
    24   10   31 1   
    25   11   12 1   
    26   12   32 1   
    27   12   33 1   
    28   12   34 1   
    29   13   14 1   
    30   13   19 2   
    31   14   15 2   
    32   14   16 1   
    33   16   17 1   
    34   16   35 1   
    35   17   18 2   
    36   17   36 1   
    37   18   19 1   
    38   18   37 1   
    39   19   38 1   
@<TRIPOS>SUBSTRUCTURE
     1 28O         1 TEMP              0 ****  ****    0 ROOT
