@<TRIPOS>MOLECULE
28O
   38    39     1     0     0
SMALL
bcc


@<TRIPOS>ATOM
      1 C1          0.7390    0.5620   -0.1140 ca        1 28O     -0.076800
      2 C2          0.2370    1.8600    0.0340 ca        1 28O     -0.091000
      3 C3         -1.1350    2.0780    0.1000 ca        1 28O     -0.212000
      4 C4         -2.0220    0.9970    0.0210 ca        1 28O      0.135100
      5 C5         -1.5450   -0.3320   -0.1180 ca        1 28O     -0.085300
      6 C6         -0.1620   -0.5130   -0.1800 ca        1 28O     -0.071000
      7 C7         -2.4850   -1.5070   -0.1940 c3        1 28O      0.006300
      8 C8         -3.4050   -1.3600   -1.4030 c3        1 28O     -0.088767
      9 C9         -1.7440   -2.8340   -0.3380 c3        1 28O     -0.088767
     10 C10        -3.3220   -1.5850    1.0810 c3        1 28O     -0.088767
     11 O11        -3.3940    1.1630    0.0720 os        1 28O     -0.326900
     12 C12        -3.8710    2.4880    0.2700 c3        1 28O      0.112700
     13 C13         2.1780    0.3490   -0.2150 cc        1 28O     -0.128400
     14 C14         2.7690   -0.8390    0.4260 c         1 28O      0.688700
     15 O15         2.1570   -1.7330    1.0430 o         1 28O     -0.642500
     16 N16         4.1700   -0.9800    0.3290 n         1 28O     -0.439100
     17 C18         4.9460   -0.0700   -0.3430 cc        1 28O      0.008600
     18 C19         4.3940    1.0270   -0.9550 cd        1 28O     -0.247000
     19 C20         2.9850    1.2290   -0.8830 cd        1 28O     -0.044000
     20 H1          0.9250    2.7150    0.1070 ha        1 28O      0.129000
     21 H2         -1.5050    3.1050    0.2180 ha        1 28O      0.135000
     22 H3          0.2650   -1.5280   -0.2660 ha        1 28O      0.161000
     23 H4         -2.8020   -1.2850   -2.3390 hc        1 28O      0.038367
     24 H5         -4.0740   -2.2510   -1.4790 hc        1 28O      0.038367
     25 H6         -4.0400   -0.4470   -1.3100 hc        1 28O      0.038367
     26 H7         -1.0720   -3.0110    0.5370 hc        1 28O      0.038367
     27 H8         -2.4830   -3.6700   -0.3850 hc        1 28O      0.038367
     28 H9         -1.1390   -2.8510   -1.2760 hc        1 28O      0.038367
     29 H10        -3.9530   -0.6720    1.1970 hc        1 28O      0.038367
     30 H11        -3.9930   -2.4760    1.0380 hc        1 28O      0.038367
     31 H12        -2.6570   -1.6800    1.9720 hc        1 28O      0.038367
     32 H13        -3.5800    3.1460   -0.5840 h1        1 28O      0.043367
     33 H14        -4.9830    2.3590    0.3050 h1        1 28O      0.043367
     34 H15        -3.4950    2.9070    1.2350 h1        1 28O      0.043367
     35 H17         4.5910   -1.7690    0.7680 hn        1 28O      0.333500
     36 H16         6.0320   -0.2730   -0.3630 h4        1 28O      0.151000
     37 H18         5.0240    1.7440   -1.4950 ha        1 28O      0.151000
     38 H19         2.5580    2.1140   -1.3820 ha        1 28O      0.143000
@<TRIPOS>BOND
     1    1    2 ar  
     2    1    6 ar  
     3    1   13 1   
     4    2    3 ar  
     5    2   20 1   
     6    3    4 ar  
     7    3   21 1   
     8    4    5 ar  
     9    4   11 1   
    10    5    6 ar  
    11    5    7 1   
    12    6   22 1   
    13    7    8 1   
    14    7    9 1   
    15    7   10 1   
    16    8   23 1   
    17    8   24 1   
    18    8   25 1   
    19    9   26 1   
    20    9   27 1   
    21    9   28 1   
    22   10   29 1   
    23   10   30 1   
    24   10   31 1   
    25   11   12 1   
    26   12   32 1   
    27   12   33 1   
    28   12   34 1   
    29   13   14 1   
    30   13   19 2   
    31   14   15 2   
    32   14   16 1   
    33   16   17 1   
    34   16   35 1   
    35   17   18 2   
    36   17   36 1   
    37   18   19 1   
    38   18   37 1   
    39   19   38 1   
@<TRIPOS>SUBSTRUCTURE
     1 28O         1 TEMP              0 ****  ****    0 ROOT
