@<TRIPOS>MOLECULE
28O
   38    39     1     0     0
SMALL
bcc


@<TRIPOS>ATOM
      1 C1          0.0170    0.0520   -0.0420 ca        1 28O     -0.076800
      2 C2          1.4120    0.1490   -0.0410 ca        1 28O     -0.091000
      3 C3          2.1120    0.1700    1.1610 ca        1 28O     -0.212000
      4 C4          1.4220    0.0930    2.3770 ca        1 28O      0.135100
      5 C5          0.0080   -0.0160    2.4090 ca        1 28O     -0.085300
      6 C6         -0.6620   -0.0360    1.1840 ca        1 28O     -0.071000
      7 C7         -0.7500   -0.1100    3.7090 c3        1 28O      0.006300
      8 C8         -0.4970    1.1390    4.5490 c3        1 28O     -0.088767
      9 C9         -2.2570   -0.2240    3.4940 c3        1 28O     -0.088767
     10 C10        -0.3020   -1.3480    4.4820 c3        1 28O     -0.088767
     11 O11         2.0720    0.1220    3.5980 os        1 28O     -0.326900
     12 C12         3.4930    0.1720    3.5650 c3        1 28O      0.112700
     13 C13        -0.7090    0.0620   -1.3070 cc        1 28O     -0.128400
     14 C14        -1.8980   -0.7940   -1.4540 c         1 28O      0.688700
     15 O15        -2.3940   -1.5340   -0.5810 o         1 28O     -0.642500
     16 N16        -2.5430   -0.7740   -2.7080 ns        1 28O     -0.439100
     17 C18        -2.1010    0.0170   -3.7390 cc        1 28O      0.008600
     18 C19        -1.0040    0.8280   -3.5980 cd        1 28O     -0.247000
     19 C20        -0.3040    0.8430   -2.3560 cd        1 28O     -0.044000
     20 H1          1.9650    0.1990   -0.9910 ha        1 28O      0.129000
     21 H2          3.2080    0.2450    1.1370 ha        1 28O      0.135000
     22 H3         -1.7600   -0.1410    1.1500 ha        1 28O      0.161000
     23 H4         -0.8060    2.0510    3.9860 hc        1 28O      0.038367
     24 H5         -1.0900    1.0840    5.4940 hc        1 28O      0.038367
     25 H6          0.5830    1.2280    4.8140 hc        1 28O      0.038367
     26 H7         -2.7700   -0.2950    4.4840 hc        1 28O      0.038367
     27 H8         -2.5060   -1.1390    2.9050 hc        1 28O      0.038367
     28 H9         -2.6500    0.6750    2.9620 hc        1 28O      0.038367
     29 H10         0.7810   -1.2820    4.7420 hc        1 28O      0.038367
     30 H11        -0.8880   -1.4350    5.4280 hc        1 28O      0.038367
     31 H12        -0.4700   -2.2650    3.8690 hc        1 28O      0.038367
     32 H13         3.9110   -0.7200    3.0370 h1        1 28O      0.043367
     33 H14         3.7760    0.1550    4.6480 h1        1 28O      0.043367
     34 H15         3.8450    1.1150    3.0820 h1        1 28O      0.043367
     35 H17        -3.3410   -1.3570   -2.8330 hn        1 28O      0.333500
     36 H16        -2.6780   -0.0380   -4.6800 h4        1 28O      0.151000
     37 H18        -0.6630    1.4610   -4.4260 ha        1 28O      0.151000
     38 H19         0.5730    1.5020   -2.2580 ha        1 28O      0.143000
@<TRIPOS>BOND
     1    1    2 ar  
     2    1    6 ar  
     3    1   13 1   
     4    2    3 ar  
     5    2   20 1   
     6    3    4 ar  
     7    3   21 1   
     8    4    5 ar  
     9    4   11 1   
    10    5    6 ar  
    11    5    7 1   
    12    6   22 1   
    13    7    8 1   
    14    7    9 1   
    15    7   10 1   
    16    8   23 1   
    17    8   24 1   
    18    8   25 1   
    19    9   26 1   
    20    9   27 1   
    21    9   28 1   
    22   10   29 1   
    23   10   30 1   
    24   10   31 1   
    25   11   12 1   
    26   12   32 1   
    27   12   33 1   
    28   12   34 1   
    29   13   14 1   
    30   13   19 2   
    31   14   15 2   
    32   14   16 1   
    33   16   17 1   
    34   16   35 1   
    35   17   18 2   
    36   17   36 1   
    37   18   19 1   
    38   18   37 1   
    39   19   38 1   
@<TRIPOS>SUBSTRUCTURE
     1 28O         1 TEMP              0 ****  ****    0 ROOT
