@<TRIPOS>MOLECULE
28P
   48    44     1     0     0
SMALL
bcc


@<TRIPOS>ATOM
      1 CAQ         1.8200    5.3820   -2.1850 c1        1 28P     -0.133000
      2 CAR         0.9320    6.0900   -2.9890 c1        1 28P     -0.129750
      3 CAS         0.6920    5.6770   -4.2860 c1        1 28P     -0.129750
      4 CAT         1.3350    4.5610   -4.7850 c1        1 28P     -0.129750
      5 CAU         2.2230    3.8520   -3.9820 c1        1 28P     -0.129750
      6 CAP         2.4620    4.2660   -2.6830 c1        1 28P     -0.063000
      7 CAO         3.4600    3.5250   -1.8240 c3        1 28P     -0.078000
      8 CAN         2.7830    2.3190   -1.1840 c2        1 28P     -0.121000
      9 CAV         2.0960    2.4650    0.0060 c2        1 28P     -0.085000
     10 CAW         1.4620    1.3760    0.5790 c1        1 28P     -0.208000
     11 CAM         2.8390    1.0740   -1.8080 c1        1 28P     -0.100000
     12 CAL         2.2090   -0.0090   -1.2390 c1        1 28P     -0.162000
     13 CAK         1.5170    0.1400   -0.0400 c1        1 28P      0.098000
     14 OAJ         0.8100   -0.9700    0.5200 os        1 28P     -0.206000
     15 CAI        -0.6090   -0.9460    0.2640 c3        1 28P     -0.024000
     16 CAH        -1.2290   -2.3500    0.6030 c3        1 28P     -0.168000
     17 CAG        -2.2460   -2.1950    1.7230 c3        1 28P     -0.053000
     18 N1         -2.8990   -3.4630    1.9640 n3        1 28P     -0.267000
     19 CAX        -4.3420   -3.2740    1.9560 c3        1 28P     -0.111000
     20 CAB        -2.4790   -3.9970    3.2780 c3        1 28P     -0.064000
     21 CAC        -1.7030   -5.3400    3.0740 c3        1 28P     -0.227000
     22 CAD        -1.1820   -5.8630    4.4560 c2        1 28P      0.329000
     23 OAF        -1.7360   -6.8620    5.0030 o         1 28P     -0.584000
     24 OAE        -0.1390   -5.3540    4.9730 o         1 28P     -0.584000
     25 HAQ         2.0560    5.7260   -1.2960 ha        1 28P      0.127000
     26 HAR         0.4790    6.8770   -2.6380 ha        1 28P      0.130500
     27 HAS         0.0820    6.1820   -4.8520 ha        1 28P      0.130500
     28 HAT         1.1660    4.2720   -5.6960 ha        1 28P      0.130500
     29 HAU         2.6780    3.0630   -4.3340 ha        1 28P      0.130500
     30 HAO         4.2090    3.2250   -2.3770 hc        1 28P      0.091000
     31 HAOA        3.7900    4.1200   -1.1250 hc        1 28P      0.091000
     32 HAV         2.0570    3.3300    0.4390 ha        1 28P      0.128000
     33 HAW         0.9810    1.4800    1.4110 ha        1 28P      0.140000
     34 HAM         3.2760    0.9820   -2.6660 ha        1 28P      0.127000
     35 HAL         2.2470   -0.8720   -1.6710 ha        1 28P      0.150000
     36 HAI        -0.7670   -0.7380   -0.6870 h1        1 28P      0.073500
     37 HAIA       -1.0340   -0.2550    0.8260 h1        1 28P      0.073500
     38 HAH        -1.6680   -2.7080   -0.1850 hc        1 28P      0.111500
     39 HAHA       -0.5210   -2.9610    0.8880 hc        1 28P      0.111500
     40 HAG        -2.9110   -1.5320    1.4660 h1        1 28P      0.053500
     41 HAGA       -1.7910   -1.9030    2.5390 h1        1 28P      0.053500
     42 HAX        -4.7850   -4.1350    1.7750 h1        1 28P      0.059667
     43 HAXA       -4.5840   -2.6250    1.2520 h1        1 28P      0.059667
     44 HAXB       -4.6340   -2.9330    2.8280 h1        1 28P      0.059667
     45 HAB        -3.2670   -4.1590    3.8300 h1        1 28P      0.081000
     46 HABA       -1.8930   -3.3450    3.7250 h1        1 28P      0.081000
     47 HAC        -2.3030   -6.0060    2.6790 hc        1 28P      0.067500
     48 HACA       -0.9390   -5.1890    2.4720 hc        1 28P      0.067500
@<TRIPOS>BOND
     1    1    6 1   
     2    1   25 1   
     3    2    3 1   
     4    2   26 1   
     5    3   27 1   
     6    4    5 1   
     7    4   28 1   
     8    5   29 1   
     9    6    7 1   
    10    7    8 1   
    11    7   30 1   
    12    7   31 1   
    13    8    9 1   
    14    8   11 1   
    15    9   10 1   
    16    9   32 1   
    17   10   33 1   
    18   11   34 1   
    19   12   13 1   
    20   12   35 1   
    21   13   14 1   
    22   14   15 1   
    23   15   16 1   
    24   15   36 1   
    25   15   37 1   
    26   16   17 1   
    27   16   38 1   
    28   16   39 1   
    29   17   18 1   
    30   17   40 1   
    31   17   41 1   
    32   18   19 1   
    33   18   20 1   
    34   19   42 1   
    35   19   43 1   
    36   19   44 1   
    37   20   21 1   
    38   20   45 1   
    39   20   46 1   
    40   21   22 1   
    41   21   47 1   
    42   21   48 1   
    43   22   23 1   
    44   22   24 1   
@<TRIPOS>SUBSTRUCTURE
     1 28P         1 TEMP              0 ****  ****    0 ROOT
