@<TRIPOS>MOLECULE
28P
   49    50     1     0     0
SMALL
bcc


@<TRIPOS>ATOM
      1 CAQ         0.0700   -0.1780    0.0030 ca        1 28P     -0.124000
      2 CAR         1.4640   -0.1720   -0.0160 ca        1 28P     -0.127000
      3 CAS         2.1800   -0.0770    1.1770 ca        1 28P     -0.131000
      4 CAT         1.4990    0.0100    2.3900 ca        1 28P     -0.127000
      5 CAU         0.1050    0.0040    2.4120 ca        1 28P     -0.124000
      6 CAP        -0.6200   -0.0900    1.2180 ca        1 28P     -0.074300
      7 CAO        -2.1110   -0.0820    1.2390 c3        1 28P      0.011200
      8 CAN        -2.6890   -1.4550    1.3070 ca        1 28P     -0.107300
      9 CAV        -2.9390   -2.1760    0.1310 ca        1 28P     -0.090500
     10 CAW        -3.5550   -3.3100    2.6140 ca        1 28P     -0.177500
     11 CAM        -3.0010   -2.0320    2.5400 ca        1 28P     -0.090500
     12 CAL        -3.4900   -3.4490    0.1800 ca        1 28P     -0.177500
     13 CAK        -3.7990   -4.0170    1.4310 ca        1 28P      0.125100
     14 OAJ        -4.3490   -5.2830    1.3680 os        1 28P     -0.331900
     15 CAI        -4.6290   -5.9050    2.6270 c3        1 28P      0.129400
     16 CAH        -5.1690   -7.2850    2.2880 c3        1 28P     -0.089400
     17 CAG        -5.6710   -7.9500    3.5670 c3        1 28P      0.174800
     18 N1         -5.9900   -9.3630    3.4150 n3        1 28P     -0.760600
     19 CAX        -6.8910   -9.6450    2.3210 c3        1 28P      0.150100
     20 CAB        -6.4130   -9.9740    4.6690 c3        1 28P      0.170800
     21 CAC        -5.9020  -11.4080    4.8280 c3        1 28P     -0.178400
     22 CAD        -4.4250  -11.4480    5.0810 c         1 28P      0.632100
     23 OAF        -3.8780  -11.6970    6.1570 o         1 28P     -0.503000
     24 OAE        -3.5490  -11.2250    4.0600 oh        1 28P     -0.581100
     25 HAQ        -0.4930   -0.2550   -0.9390 ha        1 28P      0.129000
     26 HAR         1.9980   -0.2420   -0.9750 ha        1 28P      0.131000
     27 HAS         3.2800   -0.0730    1.1600 ha        1 28P      0.131000
     28 HAT         2.0610    0.0840    3.3330 ha        1 28P      0.131000
     29 HAU        -0.4300    0.0710    3.3710 ha        1 28P      0.129000
     30 HAO        -2.4680    0.5170    2.1220 hc        1 28P      0.054200
     31 HAOA       -2.4910    0.4350    0.3150 hc        1 28P      0.054200
     32 HAV        -2.6910   -1.7280   -0.8440 ha        1 28P      0.132500
     33 HAW        -3.7910   -3.7420    3.5950 ha        1 28P      0.142000
     34 HAM        -2.8050   -1.4750    3.4700 ha        1 28P      0.132500
     35 HAL        -3.6870   -4.0210   -0.7370 ha        1 28P      0.142000
     36 HAI        -5.3900   -5.2960    3.1830 h1        1 28P      0.041700
     37 HAIA       -3.6870   -5.9760    3.2330 h1        1 28P      0.041700
     38 HAH        -4.3590   -7.8930    1.8090 hc        1 28P      0.064700
     39 HAHA       -6.0010   -7.1830    1.5430 hc        1 28P      0.064700
     40 HAG        -6.5620   -7.3650    3.9430 h1        1 28P      0.037200
     41 HAGA       -4.8600   -7.8770    4.3480 h1        1 28P      0.037200
     42 HAX        -6.3780   -9.3880    1.3570 h1        1 28P      0.036700
     43 HAXA       -7.1360  -10.7390    2.3140 h1        1 28P      0.036700
     44 HAXB       -7.8530   -9.0650    2.3800 h1        1 28P      0.036700
     45 HAB        -6.0280   -9.3690    5.5400 h1        1 28P      0.049700
     46 HABA       -7.5390  -10.0020    4.7540 h1        1 28P      0.049700
     47 HAC        -6.4230  -11.8680    5.7100 hc        1 28P      0.078700
     48 HACA       -6.1380  -12.0240    3.9220 hc        1 28P      0.078700
     49 H11        -4.0270  -10.9530    3.2640 ho        1 28P      0.442000
@<TRIPOS>BOND
     1    1    2 ar  
     2    1    6 ar  
     3    1   25 1   
     4    2    3 ar  
     5    2   26 1   
     6    3    4 ar  
     7    3   27 1   
     8    4    5 ar  
     9    4   28 1   
    10    5    6 ar  
    11    5   29 1   
    12    6    7 1   
    13    7    8 1   
    14    7   30 1   
    15    7   31 1   
    16    8    9 ar  
    17    8   11 ar  
    18    9   12 ar  
    19    9   32 1   
    20   10   11 ar  
    21   10   13 ar  
    22   10   33 1   
    23   11   34 1   
    24   12   13 ar  
    25   12   35 1   
    26   13   14 1   
    27   14   15 1   
    28   15   16 1   
    29   15   36 1   
    30   15   37 1   
    31   16   17 1   
    32   16   38 1   
    33   16   39 1   
    34   17   18 1   
    35   17   40 1   
    36   17   41 1   
    37   18   19 1   
    38   18   20 1   
    39   19   42 1   
    40   19   43 1   
    41   19   44 1   
    42   20   21 1   
    43   20   45 1   
    44   20   46 1   
    45   21   22 1   
    46   21   47 1   
    47   21   48 1   
    48   22   23 2   
    49   22   24 1   
    50   24   49 1   
@<TRIPOS>SUBSTRUCTURE
     1 28P         1 TEMP              0 ****  ****    0 ROOT
