@<TRIPOS>MOLECULE
28P
   48    49     1     0     0
SMALL
bcc


@<TRIPOS>ATOM
      1 CAQ        -7.4280   -0.0100    0.1500 ca        1 28P     -0.126000
      2 CAR        -8.1520   -0.9680    0.8600 ca        1 28P     -0.129500
      3 CAS        -7.5970   -2.2230    1.1080 ca        1 28P     -0.136000
      4 CAT        -6.3140   -2.5170    0.6440 ca        1 28P     -0.129500
      5 CAU        -5.5900   -1.5620   -0.0660 ca        1 28P     -0.126000
      6 CAP        -6.1420   -0.3000   -0.3190 ca        1 28P     -0.072300
      7 CAO        -5.3880    0.7170   -1.1080 c3        1 28P      0.015200
      8 CAN        -3.9610    0.8480   -0.7030 ca        1 28P     -0.126300
      9 CAV        -2.9580    0.1730   -1.4050 ca        1 28P     -0.092500
     10 CAW        -1.6180    0.3060   -1.0470 ca        1 28P     -0.184500
     11 CAM        -3.6040    1.6680    0.3770 ca        1 28P     -0.092500
     12 CAL        -2.2760    1.8140    0.7510 ca        1 28P     -0.184500
     13 CAK        -1.2750    1.1280    0.0340 ca        1 28P      0.141100
     14 OAJ         0.0080    1.3430    0.4830 os        1 28P     -0.329900
     15 CAI         1.0480    0.6520   -0.2270 c3        1 28P      0.126400
     16 CAH         2.3470    1.0360    0.4590 c3        1 28P     -0.088400
     17 CAG         3.5160    0.4880   -0.3610 c3        1 28P      0.175800
     18 N1          4.7950    0.5380    0.3310 n3        1 28P     -0.736600
     19 CAX         5.2420    1.8840    0.5920 c3        1 28P      0.158100
     20 CAB         5.7910   -0.2870   -0.3590 c3        1 28P      0.173800
     21 CAC         7.1610   -0.3430    0.2930 c3        1 28P     -0.199400
     22 CAD         8.0280   -1.4250   -0.3830 c         1 28P      0.910600
     23 OAF         7.4590   -2.4290   -0.9000 o         1 28P     -0.849300
     24 OAE         9.2800   -1.2510   -0.3690 o         1 28P     -0.849300
     25 HAQ        -7.8710    0.9790   -0.0400 ha        1 28P      0.134500
     26 HAR        -9.1610   -0.7310    1.2250 ha        1 28P      0.128000
     27 HAS        -8.1670   -2.9770    1.6690 ha        1 28P      0.126000
     28 HAT        -5.8710   -3.5040    0.8420 ha        1 28P      0.128000
     29 HAU        -4.5740   -1.7880   -0.4250 ha        1 28P      0.134500
     30 HAO        -5.4460    0.4290   -2.1950 hc        1 28P      0.051700
     31 HAOA       -5.8900    1.7190   -1.0070 hc        1 28P      0.051700
     32 HAV        -3.2260   -0.4730   -2.2550 ha        1 28P      0.129000
     33 HAW        -0.8480   -0.2350   -1.6150 ha        1 28P      0.145500
     34 HAM        -4.3880    2.2020    0.9350 ha        1 28P      0.129000
     35 HAL        -1.9890    2.4530    1.5980 ha        1 28P      0.145500
     36 HAI         0.8690   -0.4540   -0.1670 h1        1 28P      0.039700
     37 HAIA        1.0420    0.9790   -1.3000 h1        1 28P      0.039700
     38 HAH         2.4080    2.1510    0.5410 hc        1 28P      0.059700
     39 HAHA        2.3610    0.6190    1.4980 hc        1 28P      0.059700
     40 HAG         3.3030   -0.5930   -0.6010 h1        1 28P      0.025200
     41 HAGA        3.5460    1.0480   -1.3440 h1        1 28P      0.025200
     42 HAX         4.4600    2.4300    1.1830 h1        1 28P      0.021033
     43 HAXA        6.1820    1.8390    1.2020 h1        1 28P      0.021033
     44 HAXB        5.4530    2.4760   -0.3430 h1        1 28P      0.021033
     45 HAB         5.3900   -1.3430   -0.3950 h1        1 28P      0.041700
     46 HABA        5.9220    0.0600   -1.4270 h1        1 28P      0.041700
     47 HAC         7.6870    0.6400    0.2090 hc        1 28P      0.028200
     48 HACA        7.0750   -0.6010    1.3780 hc        1 28P      0.028200
@<TRIPOS>BOND
     1    1    2 ar  
     2    1    6 ar  
     3    1   25 1   
     4    2    3 ar  
     5    2   26 1   
     6    3    4 ar  
     7    3   27 1   
     8    4    5 ar  
     9    4   28 1   
    10    5    6 ar  
    11    5   29 1   
    12    6    7 1   
    13    7    8 1   
    14    7   30 1   
    15    7   31 1   
    16    8    9 ar  
    17    8   11 ar  
    18    9   10 ar  
    19    9   32 1   
    20   10   13 ar  
    21   10   33 1   
    22   11   12 ar  
    23   11   34 1   
    24   12   13 ar  
    25   12   35 1   
    26   13   14 1   
    27   14   15 1   
    28   15   16 1   
    29   15   36 1   
    30   15   37 1   
    31   16   17 1   
    32   16   38 1   
    33   16   39 1   
    34   17   18 1   
    35   17   40 1   
    36   17   41 1   
    37   18   19 1   
    38   18   20 1   
    39   19   42 1   
    40   19   43 1   
    41   19   44 1   
    42   20   21 1   
    43   20   45 1   
    44   20   46 1   
    45   21   22 1   
    46   21   47 1   
    47   21   48 1   
    48   22   23 1   
    49   22   24 1   
@<TRIPOS>SUBSTRUCTURE
     1 28P         1 TEMP              0 ****  ****    0 ROOT
