@<TRIPOS>MOLECULE
28P
   49    50     1     0     0
SMALL
bcc


@<TRIPOS>ATOM
      1 CAQ         0.0990   -0.2350    0.0330 ca        1 28P     -0.124500
      2 CAR         1.4930   -0.2300    0.0440 ca        1 28P     -0.127500
      3 CAS         2.1830   -0.0840    1.2470 ca        1 28P     -0.131000
      4 CAT         1.4750    0.0570    2.4400 ca        1 28P     -0.127500
      5 CAU         0.0810    0.0520    2.4320 ca        1 28P     -0.124500
      6 CAP        -0.6170   -0.0940    1.2270 ca        1 28P     -0.074300
      7 CAO        -2.1090   -0.0840    1.2140 c3        1 28P      0.011200
      8 CAN        -2.6900   -1.4560    1.2850 ca        1 28P     -0.107300
      9 CAV        -2.9500   -2.1750    0.1100 ca        1 28P     -0.090500
     10 CAW        -3.5510   -3.3100    2.5960 ca        1 28P     -0.177500
     11 CAM        -2.9940   -2.0340    2.5200 ca        1 28P     -0.090500
     12 CAL        -3.5030   -3.4470    0.1620 ca        1 28P     -0.177500
     13 CAK        -3.8040   -4.0150    1.4150 ca        1 28P      0.125100
     14 OAJ        -4.3580   -5.2800    1.3550 os        1 28P     -0.331900
     15 CAI        -4.6290   -5.9030    2.6160 c3        1 28P      0.129400
     16 CAH        -5.1750   -7.2810    2.2790 c3        1 28P     -0.089400
     17 CAG        -5.6670   -7.9470    3.5620 c3        1 28P      0.174800
     18 N1         -5.9910   -9.3590    3.4100 n3        1 28P     -0.760600
     19 CAX        -6.9030   -9.6360    2.3230 c3        1 28P      0.150100
     20 CAB        -6.4050   -9.9710    4.6670 c3        1 28P      0.170800
     21 CAC        -5.8970  -11.4060    4.8190 c3        1 28P     -0.178400
     22 CAD        -4.4180  -11.4510    5.0590 c         1 28P      0.632100
     23 OAF        -3.8620  -11.7040    6.1300 o         1 28P     -0.503000
     24 OAE        -3.5500  -11.2290    4.0310 oh        1 28P     -0.581100
     25 HAQ        -0.4440   -0.3530   -0.9170 ha        1 28P      0.129000
     26 HAR         2.0480   -0.3420   -0.8990 ha        1 28P      0.131000
     27 HAS         3.2830   -0.0800    1.2550 ha        1 28P      0.131000
     28 HAT         2.0160    0.1710    3.3910 ha        1 28P      0.131000
     29 HAU        -0.4740    0.1610    3.3750 ha        1 28P      0.129000
     30 HAO        -2.4850    0.5240    2.0820 hc        1 28P      0.054200
     31 HAOA       -2.4670    0.4220    0.2760 hc        1 28P      0.054200
     32 HAV        -2.7080   -1.7270   -0.8660 ha        1 28P      0.132500
     33 HAW        -3.7800   -3.7430    3.5790 ha        1 28P      0.142000
     34 HAM        -2.7900   -1.4780    3.4480 ha        1 28P      0.132500
     35 HAL        -3.7080   -4.0180   -0.7540 ha        1 28P      0.142000
     36 HAI        -5.3850   -5.2930    3.1780 h1        1 28P      0.041700
     37 HAIA       -3.6830   -5.9770    3.2140 h1        1 28P      0.041700
     38 HAH        -4.3700   -7.8910    1.7930 hc        1 28P      0.064700
     39 HAHA       -6.0130   -7.1760    1.5420 hc        1 28P      0.064700
     40 HAG        -6.5540   -7.3610    3.9470 h1        1 28P      0.037200
     41 HAGA       -4.8500   -7.8780    4.3360 h1        1 28P      0.037200
     42 HAX        -6.3970   -9.3800    1.3550 h1        1 28P      0.036700
     43 HAXA       -7.1510  -10.7300    2.3180 h1        1 28P      0.036700
     44 HAXB       -7.8630   -9.0550    2.3920 h1        1 28P      0.036700
     45 HAB        -6.0100   -9.3690    5.5350 h1        1 28P      0.049700
     46 HABA       -7.5300   -9.9950    4.7620 h1        1 28P      0.049700
     47 HAC        -6.4120  -11.8660    5.7050 hc        1 28P      0.078700
     48 HACA       -6.1430  -12.0200    3.9140 hc        1 28P      0.078700
     49 H11        -4.0350  -10.9550    3.2390 ho        1 28P      0.442000
@<TRIPOS>BOND
     1    1    2 ar  
     2    1    6 ar  
     3    1   25 1   
     4    2    3 ar  
     5    2   26 1   
     6    3    4 ar  
     7    3   27 1   
     8    4    5 ar  
     9    4   28 1   
    10    5    6 ar  
    11    5   29 1   
    12    6    7 1   
    13    7    8 1   
    14    7   30 1   
    15    7   31 1   
    16    8    9 ar  
    17    8   11 ar  
    18    9   12 ar  
    19    9   32 1   
    20   10   11 ar  
    21   10   13 ar  
    22   10   33 1   
    23   11   34 1   
    24   12   13 ar  
    25   12   35 1   
    26   13   14 1   
    27   14   15 1   
    28   15   16 1   
    29   15   36 1   
    30   15   37 1   
    31   16   17 1   
    32   16   38 1   
    33   16   39 1   
    34   17   18 1   
    35   17   40 1   
    36   17   41 1   
    37   18   19 1   
    38   18   20 1   
    39   19   42 1   
    40   19   43 1   
    41   19   44 1   
    42   20   21 1   
    43   20   45 1   
    44   20   46 1   
    45   21   22 1   
    46   21   47 1   
    47   21   48 1   
    48   22   23 2   
    49   22   24 1   
    50   24   49 1   
@<TRIPOS>SUBSTRUCTURE
     1 28P         1 TEMP              0 ****  ****    0 ROOT
