@<TRIPOS>MOLECULE
28Q
   62    53     1     0     0
SMALL
bcc


@<TRIPOS>ATOM
      1 C1         -1.9770   -1.0000   -3.3020 c1        1 28Q     -0.093000
      2 C2         -0.5720   -0.9760   -3.2550 c1        1 28Q     -0.057000
      3 C3          0.0840   -0.9580   -2.0250 c1        1 28Q      0.058000
      4 C4         -0.6590   -0.9630   -0.8330 c1        1 28Q     -0.012000
      5 C5         -2.0640   -0.9870   -0.8810 c1        1 28Q     -0.140500
      6 C6         -2.7200   -1.0050   -2.1100 c1        1 28Q     -0.033000
      7 C7         -4.2800   -1.2150   -2.1630 c2        1 28Q     -0.132000
      8 C8         -4.7300   -1.3270   -0.8470 c1        1 28Q     -0.036000
      9 C9         -4.8270   -0.0010   -0.1130 c1        1 28Q     -0.128500
     10 C10        -5.2250    1.2130   -0.9670 c1        1 28Q     -0.128500
     11 N11        -4.9290    1.1400   -2.4550 n2        1 28Q     -0.282000
     12 C13        -4.9890   -0.1340   -2.9990 c2        1 28Q      0.328000
     13 O14        -6.1650   -0.3910   -3.1940 o         1 28Q     -0.366000
     14 C15         0.0720   -0.9540    0.5360 c2        1 28Q     -0.121000
     15 C16        -0.3920    0.2640    1.3600 c3        1 28Q     -0.120000
     16 C17         0.6260    0.5300    2.5200 c1        1 28Q     -0.089000
     17 C18         0.1600    0.8640    3.7900 c1        1 28Q     -0.128500
     18 C19         1.0610    1.2290    4.7920 c1        1 28Q     -0.128500
     19 C20         2.4300    1.2580    4.5230 c1        1 28Q     -0.012000
     20 C21         2.8950    0.9250    3.2550 c1        1 28Q     -0.140500
     21 C22         1.9910    0.5600    2.2520 c1        1 28Q     -0.103000
     22 N23         3.3540    1.8080    5.5120 n2        1 28Q     -0.832000
     23 S24         3.3960    1.1770    7.0500 s4        1 28Q      2.041800
     24 O25         3.3710   -0.2640    7.0240 o         1 28Q     -0.537900
     25 O26         2.1810    1.4650    7.7650 o         1 28Q     -0.537900
     26 C27         4.8270    1.7850    7.9330 c2        1 28Q     -0.949000
     27 O28         1.4770   -1.1030   -1.9770 os        1 28Q     -0.230000
     28 C29         2.1540    0.0540   -1.5690 c3        1 28Q     -0.076000
     29 C30         0.2560   -1.0490   -4.5820 c3        1 28Q     -0.005000
     30 C31        -0.4470   -0.2420   -5.6660 c3        1 28Q     -0.207667
     31 C32         1.6490   -0.4760   -4.3440 c3        1 28Q     -0.207667
     32 C33         0.3730   -2.5030   -5.0290 c3        1 28Q     -0.207667
     33 H1         -2.4330   -1.0130   -4.1580 ha        1 28Q      0.161000
     34 H2         -2.5810   -0.9900   -0.0510 ha        1 28Q      0.132500
     35 H3         -4.4900   -2.1300   -0.3390 ha        1 28Q      0.145000
     36 H4         -5.0700    0.0160    0.8360 ha        1 28Q      0.152750
     37 H5         -5.2520    2.0810   -0.5280 ha        1 28Q      0.152750
     38 H6         -5.2460    1.8490   -2.9410 hn        1 28Q      0.248000
     39 H7         -0.1360   -1.7710    1.0200 ha        1 28Q      0.099000
     40 H8          1.0340   -0.8990    0.3900 ha        1 28Q      0.099000
     41 H9         -0.4390    1.0520    0.7790 hc        1 28Q      0.091000
     42 H10        -1.2820    0.0840    1.7400 hc        1 28Q      0.091000
     43 H11        -0.7980    0.8440    3.9780 ha        1 28Q      0.152750
     44 H12         0.7330    1.4630    5.6830 ha        1 28Q      0.152750
     45 H13         3.8560    0.9450    3.0640 ha        1 28Q      0.132500
     46 H14         2.3170    0.3270    1.3640 ha        1 28Q      0.136000
     47 H15         3.9520    2.4550    5.2670 hn        1 28Q      0.254000
     48 H16         5.5820    1.8780    7.3100 ha        1 28Q      0.157333
     49 H17         4.6190    2.6630    8.3320 ha        1 28Q      0.157333
     50 H18         5.0650    1.1530    8.6420 ha        1 28Q      0.157333
     51 H19         2.0530    0.1690   -0.6010 h1        1 28Q      0.079000
     52 H20         1.7770    0.8360   -2.0330 h1        1 28Q      0.079000
     53 H21         3.1000   -0.0280   -1.7890 h1        1 28Q      0.079000
     54 H22        -0.9510    0.4870   -5.2550 hc        1 28Q      0.078333
     55 H23        -1.0530   -0.8180   -6.1540 hc        1 28Q      0.078333
     56 H24         0.2210    0.1300   -6.2840 hc        1 28Q      0.078333
     57 H25         2.2200   -1.1610   -3.9390 hc        1 28Q      0.078333
     58 H26         1.5860    0.2940   -3.7430 hc        1 28Q      0.078333
     59 H27         2.0380   -0.1900   -5.2060 hc        1 28Q      0.078333
     60 H28        -0.4210   -2.7500   -5.5580 hc        1 28Q      0.078333
     61 H29         1.1870   -2.6130   -5.5850 hc        1 28Q      0.078333
     62 H30         0.4340   -3.0840   -4.2410 hc        1 28Q      0.078333
@<TRIPOS>BOND
     1    1    6 1   
     2    1   33 1   
     3    2    3 1   
     4    2   29 1   
     5    3   27 1   
     6    4    5 1   
     7    5   34 1   
     8    6    7 1   
     9    7    8 1   
    10    7   12 1   
    11    8   35 1   
    12    9   10 1   
    13    9   36 1   
    14   10   37 1   
    15   11   12 1   
    16   11   38 1   
    17   12   13 1   
    18   14   15 1   
    19   14   39 1   
    20   14   40 1   
    21   15   16 1   
    22   15   41 1   
    23   15   42 1   
    24   16   21 1   
    25   17   18 1   
    26   17   43 1   
    27   18   44 1   
    28   19   20 1   
    29   20   45 1   
    30   21   46 1   
    31   22   23 1   
    32   22   47 1   
    33   23   24 1   
    34   23   25 1   
    35   26   48 1   
    36   26   49 1   
    37   26   50 1   
    38   27   28 1   
    39   28   51 1   
    40   28   52 1   
    41   28   53 1   
    42   29   30 1   
    43   29   31 1   
    44   29   32 1   
    45   30   54 1   
    46   30   55 1   
    47   30   56 1   
    48   31   57 1   
    49   31   58 1   
    50   31   59 1   
    51   32   60 1   
    52   32   61 1   
    53   32   62 1   
@<TRIPOS>SUBSTRUCTURE
     1 28Q         1 TEMP              0 ****  ****    0 ROOT
