@<TRIPOS>MOLECULE
28Q
   62    64     1     0     0
SMALL
bcc


@<TRIPOS>ATOM
      1 C1         -0.0460   -0.1260   -0.0230 ca        1 28Q     -0.092000
      2 C2          1.3420    0.0410    0.0270 ca        1 28Q     -0.064300
      3 C3          1.9510    0.1160    1.3020 ca        1 28Q      0.109100
      4 C4          1.1830    0.0690    2.4820 ca        1 28Q     -0.109300
      5 C5         -0.2000   -0.0980    2.3860 ca        1 28Q     -0.114000
      6 C6         -0.8240   -0.2000    1.1390 ca        1 28Q     -0.047800
      7 C7         -2.2730   -0.3550    1.0670 cc        1 28Q     -0.137400
      8 C8         -3.1070    0.2920    1.9390 cd        1 28Q     -0.037000
      9 C9         -4.5190    0.1160    1.8740 cd        1 28Q     -0.249000
     10 C10        -5.0470   -0.7190    0.9200 cc        1 28Q      0.012600
     11 N11        -4.2460   -1.3790    0.0240 n         1 28Q     -0.438100
     12 C13        -2.8420   -1.2350    0.0320 c         1 28Q      0.689700
     13 O14        -2.2090   -1.8650   -0.8380 o         1 28Q     -0.641500
     14 C15         1.7860    0.1930    3.8400 c3        1 28Q     -0.026100
     15 C16         2.3750    1.5770    4.0730 c3        1 28Q     -0.040100
     16 C17         2.9540    1.6980    5.4370 ca        1 28Q     -0.094300
     17 C18         4.2070    1.1490    5.7280 ca        1 28Q     -0.101000
     18 C19         4.7660    1.2580    6.9960 ca        1 28Q     -0.171500
     19 C20         4.0740    1.9450    8.0180 ca        1 28Q      0.153600
     20 C21         2.8060    2.4950    7.7240 ca        1 28Q     -0.171500
     21 C22         2.2620    2.3670    6.4520 ca        1 28Q     -0.101000
     22 N23         4.6160    2.0820    9.3070 nh        1 28Q     -0.782500
     23 S24         6.1860    2.0820    9.7380 s6        1 28Q      1.469900
     24 O25         6.2330    2.1900   11.1430 o         1 28Q     -0.650800
     25 O26         6.8970    1.0170    9.1580 o         1 28Q     -0.650800
     26 C27         6.7770    3.5270    9.0670 c3        1 28Q     -0.370300
     27 O28         3.3200    0.3560    1.3740 os        1 28Q     -0.350900
     28 C29         4.0970   -0.7090    1.9240 c3        1 28Q      0.115700
     29 C30         2.1360    0.1480   -1.2520 c3        1 28Q      0.002300
     30 C31         1.2420    0.1510   -2.4920 c3        1 28Q     -0.089100
     31 C32         2.9350    1.4490   -1.2680 c3        1 28Q     -0.089100
     32 C33         3.0820   -1.0420   -1.3770 c3        1 28Q     -0.089100
     33 H1         -0.5670   -0.2260   -0.9900 ha        1 28Q      0.162000
     34 H2         -0.8030   -0.1560    3.3060 ha        1 28Q      0.131000
     35 H3         -2.6990    0.9670    2.7090 ha        1 28Q      0.144000
     36 H4         -5.1710    0.6430    2.5820 ha        1 28Q      0.152000
     37 H5         -6.1350   -0.8960    0.8290 h4        1 28Q      0.152000
     38 H6         -4.6510   -1.9800   -0.6590 hn        1 28Q      0.334500
     39 H7          2.5870   -0.5830    3.9720 hc        1 28Q      0.049200
     40 H8          1.0070   -0.0100    4.6230 hc        1 28Q      0.049200
     41 H9          3.1710    1.7680    3.3020 hc        1 28Q      0.062700
     42 H10         1.5740    2.3490    3.9240 hc        1 28Q      0.062700
     43 H11         4.7620    0.6160    4.9390 ha        1 28Q      0.136500
     44 H12         5.7460    0.7890    7.1930 ha        1 28Q      0.150000
     45 H13         2.2360    3.0250    8.5020 ha        1 28Q      0.150000
     46 H14         1.2720    2.8030    6.2420 ha        1 28Q      0.136500
     47 H15         3.9210    2.2310   10.0070 hn        1 28Q      0.457800
     48 H16         6.3640    4.4420    9.5580 h1        1 28Q      0.118367
     49 H17         7.8890    3.5850    9.1850 h1        1 28Q      0.118367
     50 H18         6.5780    3.6340    7.9730 h1        1 28Q      0.118367
     51 H19         5.0130   -0.7600    1.2810 h1        1 28Q      0.040367
     52 H20         3.5550   -1.6830    1.9150 h1        1 28Q      0.040367
     53 H21         4.3830   -0.4250    2.9680 h1        1 28Q      0.040367
     54 H22         0.6800   -0.8100   -2.5810 hc        1 28Q      0.038922
     55 H23         1.8750    0.2680   -3.4050 hc        1 28Q      0.038922
     56 H24         0.5200    1.0010   -2.4560 hc        1 28Q      0.038922
     57 H25         2.2540    2.3190   -1.1150 hc        1 28Q      0.038922
     58 H26         3.7100    1.4530   -0.4650 hc        1 28Q      0.038922
     59 H27         3.4490    1.5640   -2.2530 hc        1 28Q      0.038922
     60 H28         3.6550   -0.9710   -2.3330 hc        1 28Q      0.038922
     61 H29         2.5050   -1.9970   -1.3760 hc        1 28Q      0.038922
     62 H30         3.8080   -1.0570   -0.5300 hc        1 28Q      0.038922
@<TRIPOS>BOND
     1    1    2 ar  
     2    1    6 ar  
     3    1   33 1   
     4    2    3 ar  
     5    2   29 1   
     6    3    4 ar  
     7    3   27 1   
     8    4    5 ar  
     9    4   14 1   
    10    5    6 ar  
    11    5   34 1   
    12    6    7 1   
    13    7    8 2   
    14    7   12 1   
    15    8    9 1   
    16    8   35 1   
    17    9   10 2   
    18    9   36 1   
    19   10   11 1   
    20   10   37 1   
    21   11   12 1   
    22   11   38 1   
    23   12   13 2   
    24   14   15 1   
    25   14   39 1   
    26   14   40 1   
    27   15   16 1   
    28   15   41 1   
    29   15   42 1   
    30   16   17 ar  
    31   16   21 ar  
    32   17   18 ar  
    33   17   43 1   
    34   18   19 ar  
    35   18   44 1   
    36   19   20 ar  
    37   19   22 1   
    38   20   21 ar  
    39   20   45 1   
    40   21   46 1   
    41   22   23 1   
    42   22   47 1   
    43   23   24 2   
    44   23   25 2   
    45   23   26 1   
    46   26   48 1   
    47   26   49 1   
    48   26   50 1   
    49   27   28 1   
    50   28   51 1   
    51   28   52 1   
    52   28   53 1   
    53   29   30 1   
    54   29   31 1   
    55   29   32 1   
    56   30   54 1   
    57   30   55 1   
    58   30   56 1   
    59   31   57 1   
    60   31   58 1   
    61   31   59 1   
    62   32   60 1   
    63   32   61 1   
    64   32   62 1   
@<TRIPOS>SUBSTRUCTURE
     1 28Q         1 TEMP              0 ****  ****    0 ROOT
