@<TRIPOS>MOLECULE
28Q
   62    64     1     0     0
SMALL
bcc


@<TRIPOS>ATOM
      1 C1         -4.2070    0.5980    0.2450 ca        1 28Q     -0.092000
      2 C2         -3.3060    1.6650    0.3250 ca        1 28Q     -0.064300
      3 C3         -1.9480    1.4040    0.0250 ca        1 28Q      0.109100
      4 C4         -1.5080    0.1060   -0.3010 ca        1 28Q     -0.109300
      5 C5         -2.4420   -0.9310   -0.3680 ca        1 28Q     -0.114000
      6 C6         -3.7940   -0.6950   -0.1000 ca        1 28Q     -0.047800
      7 C7         -4.7450   -1.8000   -0.1590 cc        1 28Q     -0.137400
      8 C8         -4.4110   -3.0570    0.2690 cd        1 28Q     -0.037000
      9 C9         -5.3400   -4.1330    0.1860 cd        1 28Q     -0.249000
     10 C10        -6.5890   -3.9020   -0.3340 cc        1 28Q      0.012600
     11 N11        -6.9650   -2.6560   -0.7670 n         1 28Q     -0.438100
     12 C13        -6.0920   -1.5490   -0.6990 c         1 28Q      0.689700
     13 O14        -6.5390   -0.4560   -1.1010 o         1 28Q     -0.641500
     14 C15        -0.0790   -0.2130   -0.5750 c3        1 28Q     -0.026100
     15 C16         0.7870   -0.0430    0.6640 c3        1 28Q     -0.040100
     16 C17         2.2080   -0.3880    0.3880 ca        1 28Q     -0.094300
     17 C18         3.0340    0.5070   -0.3010 ca        1 28Q     -0.101000
     18 C19         4.3650    0.2030   -0.5630 ca        1 28Q     -0.171500
     19 C20         4.9120   -1.0220   -0.1200 ca        1 28Q      0.153600
     20 C21         4.0750   -1.9260    0.5700 ca        1 28Q     -0.171500
     21 C22         2.7440   -1.6070    0.8140 ca        1 28Q     -0.101000
     22 N23         6.2570   -1.3540   -0.3590 nh        1 28Q     -0.782500
     23 S24         7.5140   -0.3420   -0.5760 s6        1 28Q      1.469900
     24 O25         8.6490   -1.1380   -0.8390 o         1 28Q     -0.650800
     25 O26         7.2240    0.6760   -1.5010 o         1 28Q     -0.650800
     26 C27         7.7050    0.3800    0.9500 c3        1 28Q     -0.370300
     27 O28        -1.0240    2.4350    0.1680 os        1 28Q     -0.350900
     28 C29        -0.4040    2.8700   -1.0430 c3        1 28Q      0.115700
     29 C30        -3.7920    3.0340    0.7330 c3        1 28Q      0.002300
     30 C31        -5.2720    3.0360    1.1140 c3        1 28Q     -0.089100
     31 C32        -3.0120    3.5290    1.9490 c3        1 28Q     -0.089100
     32 C33        -3.6200    4.0130   -0.4240 c3        1 28Q     -0.089100
     33 H1         -5.2820    0.7530    0.4350 ha        1 28Q      0.162000
     34 H2         -2.1070   -1.9440   -0.6410 ha        1 28Q      0.131000
     35 H3         -3.4130   -3.2580    0.6910 ha        1 28Q      0.144000
     36 H4         -5.0540   -5.1330    0.5340 ha        1 28Q      0.152000
     37 H5         -7.3470   -4.7010   -0.4270 h4        1 28Q      0.152000
     38 H6         -7.8760   -2.5100   -1.1420 hn        1 28Q      0.334500
     39 H7          0.0120   -1.2710   -0.9430 hc        1 28Q      0.049200
     40 H8          0.3070    0.4470   -1.3970 hc        1 28Q      0.049200
     41 H9          0.7160    1.0240    1.0140 hc        1 28Q      0.062700
     42 H10         0.3870   -0.6910    1.4880 hc        1 28Q      0.062700
     43 H11         2.6230    1.4680   -0.6470 ha        1 28Q      0.136500
     44 H12         4.9790    0.9240   -1.1310 ha        1 28Q      0.150000
     45 H13         4.4680   -2.8940    0.9170 ha        1 28Q      0.150000
     46 H14         2.1070   -2.3250    1.3540 ha        1 28Q      0.136500
     47 H15         6.4210   -2.3370   -0.3500 hn        1 28Q      0.457800
     48 H16         6.7730    0.8490    1.3490 h1        1 28Q      0.118367
     49 H17         8.0650   -0.3320    1.7320 h1        1 28Q      0.118367
     50 H18         8.4660    1.2000    0.9000 h1        1 28Q      0.118367
     51 H19         0.6360    2.4580   -1.0670 h1        1 28Q      0.040367
     52 H20        -0.9710    2.5580   -1.9500 h1        1 28Q      0.040367
     53 H21        -0.3670    3.9860   -0.9630 h1        1 28Q      0.040367
     54 H22        -5.4630    2.3300    1.9570 hc        1 28Q      0.038922
     55 H23        -5.5700    4.0620    1.4420 hc        1 28Q      0.038922
     56 H24        -5.9090    2.7530    0.2410 hc        1 28Q      0.038922
     57 H25        -1.9360    3.6840    1.6990 hc        1 28Q      0.038922
     58 H26        -3.4370    4.5000    2.3000 hc        1 28Q      0.038922
     59 H27        -3.0840    2.7860    2.7790 hc        1 28Q      0.038922
     60 H28        -4.1950    3.6630   -1.3150 hc        1 28Q      0.038922
     61 H29        -3.9980    5.0210   -0.1270 hc        1 28Q      0.038922
     62 H30        -2.5440    4.1060   -0.7030 hc        1 28Q      0.038922
@<TRIPOS>BOND
     1    1    2 ar  
     2    1    6 ar  
     3    1   33 1   
     4    2    3 ar  
     5    2   29 1   
     6    3    4 ar  
     7    3   27 1   
     8    4    5 ar  
     9    4   14 1   
    10    5    6 ar  
    11    5   34 1   
    12    6    7 1   
    13    7    8 2   
    14    7   12 1   
    15    8    9 1   
    16    8   35 1   
    17    9   10 2   
    18    9   36 1   
    19   10   11 1   
    20   10   37 1   
    21   11   12 1   
    22   11   38 1   
    23   12   13 2   
    24   14   15 1   
    25   14   39 1   
    26   14   40 1   
    27   15   16 1   
    28   15   41 1   
    29   15   42 1   
    30   16   17 ar  
    31   16   21 ar  
    32   17   18 ar  
    33   17   43 1   
    34   18   19 ar  
    35   18   44 1   
    36   19   20 ar  
    37   19   22 1   
    38   20   21 ar  
    39   20   45 1   
    40   21   46 1   
    41   22   23 1   
    42   22   47 1   
    43   23   24 2   
    44   23   25 2   
    45   23   26 1   
    46   26   48 1   
    47   26   49 1   
    48   26   50 1   
    49   27   28 1   
    50   28   51 1   
    51   28   52 1   
    52   28   53 1   
    53   29   30 1   
    54   29   31 1   
    55   29   32 1   
    56   30   54 1   
    57   30   55 1   
    58   30   56 1   
    59   31   57 1   
    60   31   58 1   
    61   31   59 1   
    62   32   60 1   
    63   32   61 1   
    64   32   62 1   
@<TRIPOS>SUBSTRUCTURE
     1 28Q         1 TEMP              0 ****  ****    0 ROOT
