@<TRIPOS>MOLECULE
28Q
   62    64     1     0     0
SMALL
bcc


@<TRIPOS>ATOM
      1 C1         -0.0510   -0.1180   -0.0210 ca        1 28Q     -0.092000
      2 C2          1.3370    0.0560    0.0250 ca        1 28Q     -0.064300
      3 C3          1.9490    0.1270    1.2990 ca        1 28Q      0.109100
      4 C4          1.1850    0.0690    2.4810 ca        1 28Q     -0.109300
      5 C5         -0.1980   -0.1040    2.3880 ca        1 28Q     -0.114000
      6 C6         -0.8250   -0.2020    1.1420 ca        1 28Q     -0.047800
      7 C7         -2.2740   -0.3640    1.0730 cc        1 28Q     -0.137400
      8 C8         -3.1080    0.2730    1.9520 cd        1 28Q     -0.037000
      9 C9         -4.5190    0.0900    1.8900 cd        1 28Q     -0.249000
     10 C10        -5.0460   -0.7410    0.9330 cc        1 28Q      0.012600
     11 N11        -4.2440   -1.3910    0.0300 ns        1 28Q     -0.438100
     12 C13        -2.8410   -1.2410    0.0350 c         1 28Q      0.689700
     13 O14        -2.2070   -1.8620   -0.8410 o         1 28Q     -0.641500
     14 C15         1.7910    0.1890    3.8370 c3        1 28Q     -0.026100
     15 C16         2.3740    1.5730    4.0760 c3        1 28Q     -0.040100
     16 C17         2.9550    1.6920    5.4400 ca        1 28Q     -0.094300
     17 C18         4.2060    1.1350    5.7290 ca        1 28Q     -0.101000
     18 C19         4.7660    1.2410    6.9970 ca        1 28Q     -0.171500
     19 C20         4.0800    1.9320    8.0200 ca        1 28Q      0.153600
     20 C21         2.8150    2.4900    7.7270 ca        1 28Q     -0.171500
     21 C22         2.2680    2.3650    6.4550 ca        1 28Q     -0.101000
     22 N23         4.6250    2.0670    9.3080 nu        1 28Q     -0.782500
     23 S24         6.1950    2.0580    9.7360 s6        1 28Q      1.469900
     24 O25         6.2450    2.1660   11.1420 o         1 28Q     -0.650800
     25 O26         6.8980    0.9880    9.1570 o         1 28Q     -0.650800
     26 C27         6.7940    3.4980    9.0640 c3        1 28Q     -0.370300
     27 O28         3.3170    0.3720    1.3680 os        1 28Q     -0.350900
     28 C29         4.1010   -0.6930    1.9090 c3        1 28Q      0.115700
     29 C30         2.1260    0.1740   -1.2560 c3        1 28Q      0.002300
     30 C31         1.2290    0.1810   -2.4930 c3        1 28Q     -0.089100
     31 C32         2.9190    1.4790   -1.2660 c3        1 28Q     -0.089100
     32 C33         3.0780   -1.0100   -1.3910 c3        1 28Q     -0.089100
     33 H1         -0.5740   -0.2150   -0.9880 ha        1 28Q      0.162000
     34 H2         -0.7980   -0.1710    3.3090 ha        1 28Q      0.131000
     35 H3         -2.7010    0.9450    2.7250 ha        1 28Q      0.144000
     36 H4         -5.1720    0.6100    2.6030 ha        1 28Q      0.152000
     37 H5         -6.1330   -0.9230    0.8430 h4        1 28Q      0.152000
     38 H6         -4.6480   -1.9910   -0.6560 hn        1 28Q      0.334500
     39 H7          1.0160   -0.0220    4.6220 hc        1 28Q      0.049200
     40 H8          2.5960   -0.5850    3.9630 hc        1 28Q      0.049200
     41 H9          3.1690    1.7720    3.3050 hc        1 28Q      0.062700
     42 H10         1.5700    2.3430    3.9320 hc        1 28Q      0.062700
     43 H11         4.7560    0.5980    4.9400 ha        1 28Q      0.136500
     44 H12         5.7440    0.7660    7.1930 ha        1 28Q      0.150000
     45 H13         2.2490    3.0230    8.5060 ha        1 28Q      0.150000
     46 H14         1.2810    2.8060    6.2470 ha        1 28Q      0.136500
     47 H15         3.9310    2.2200   10.0080 hn        1 28Q      0.457800
     48 H16         7.9070    3.5490    9.1800 h1        1 28Q      0.118367
     49 H17         6.3870    4.4160    9.5550 h1        1 28Q      0.118367
     50 H18         6.5940    3.6060    7.9700 h1        1 28Q      0.118367
     51 H19         3.5630   -1.6690    1.8940 h1        1 28Q      0.040367
     52 H20         5.0150   -0.7350    1.2630 h1        1 28Q      0.040367
     53 H21         4.3880   -0.4150    2.9540 h1        1 28Q      0.040367
     54 H22         0.6710   -0.7820   -2.5860 hc        1 28Q      0.038922
     55 H23         0.5030    1.0270   -2.4490 hc        1 28Q      0.038922
     56 H24         1.8580    0.3070   -3.4070 hc        1 28Q      0.038922
     57 H25         2.2350    2.3450   -1.1060 hc        1 28Q      0.038922
     58 H26         3.4290    1.6030   -2.2520 hc        1 28Q      0.038922
     59 H27         3.6960    1.4830   -0.4660 hc        1 28Q      0.038922
     60 H28         3.6470   -0.9310   -2.3490 hc        1 28Q      0.038922
     61 H29         2.5050   -1.9680   -1.3930 hc        1 28Q      0.038922
     62 H30         3.8060   -1.0270   -0.5460 hc        1 28Q      0.038922
@<TRIPOS>BOND
     1    1    2 ar  
     2    1    6 ar  
     3    1   33 1   
     4    2    3 ar  
     5    2   29 1   
     6    3    4 ar  
     7    3   27 1   
     8    4    5 ar  
     9    4   14 1   
    10    5    6 ar  
    11    5   34 1   
    12    6    7 1   
    13    7    8 2   
    14    7   12 1   
    15    8    9 1   
    16    8   35 1   
    17    9   10 2   
    18    9   36 1   
    19   10   11 1   
    20   10   37 1   
    21   11   12 1   
    22   11   38 1   
    23   12   13 2   
    24   14   15 1   
    25   14   39 1   
    26   14   40 1   
    27   15   16 1   
    28   15   41 1   
    29   15   42 1   
    30   16   17 ar  
    31   16   21 ar  
    32   17   18 ar  
    33   17   43 1   
    34   18   19 ar  
    35   18   44 1   
    36   19   20 ar  
    37   19   22 1   
    38   20   21 ar  
    39   20   45 1   
    40   21   46 1   
    41   22   23 1   
    42   22   47 1   
    43   23   24 2   
    44   23   25 2   
    45   23   26 1   
    46   26   48 1   
    47   26   49 1   
    48   26   50 1   
    49   27   28 1   
    50   28   51 1   
    51   28   52 1   
    52   28   53 1   
    53   29   30 1   
    54   29   31 1   
    55   29   32 1   
    56   30   54 1   
    57   30   55 1   
    58   30   56 1   
    59   31   57 1   
    60   31   58 1   
    61   31   59 1   
    62   32   60 1   
    63   32   61 1   
    64   32   62 1   
@<TRIPOS>SUBSTRUCTURE
     1 28Q         1 TEMP              0 ****  ****    0 ROOT
