@<TRIPOS>MOLECULE
28Q
   63    65     1     0     0
SMALL
bcc


@<TRIPOS>ATOM
      1 C1         -0.0300   -0.0170    0.0780 ca        1 28Q     -0.087000
      2 C2          1.3690   -0.0140    0.1410 ca        1 28Q     -0.056300
      3 C3          1.9620   -0.1070    1.4180 ca        1 28Q      0.097100
      4 C4          1.1810   -0.0720    2.5910 ca        1 28Q     -0.119300
      5 C5         -0.2100   -0.0530    2.4870 ca        1 28Q     -0.117000
      6 C6         -0.8260   -0.0510    1.2300 ca        1 28Q     -0.030800
      7 C7         -2.2820   -0.0590    1.1350 cc        1 28Q     -0.157400
      8 C8         -3.0670    0.6450    2.0090 cd        1 28Q     -0.026000
      9 C9         -4.4870    0.6100    1.9110 cd        1 28Q     -0.258000
     10 C10        -5.0730   -0.1440    0.9230 cc        1 28Q      0.027600
     11 N11        -4.3220   -0.8590    0.0280 n         1 28Q     -0.432100
     12 C13        -2.9110   -0.8540    0.0670 c         1 28Q      0.690700
     13 O14        -2.3170   -1.5210   -0.8030 o         1 28Q     -0.636500
     14 C15         1.8080   -0.0300    3.9410 c3        1 28Q     -0.013100
     15 C16         2.5040    1.3060    4.1660 c3        1 28Q     -0.067100
     16 C17         3.2290    1.3370    5.4630 ca        1 28Q      0.003700
     17 C18         4.6260    1.2120    5.4990 ca        1 28Q     -0.113000
     18 C19         5.3150    1.2420    6.7060 ca        1 28Q     -0.105000
     19 C20         4.6000    1.4200    7.9080 ca        1 28Q     -0.099400
     20 C21         3.1970    1.5260    7.8860 ca        1 28Q     -0.105000
     21 C22         2.5270    1.4930    6.6680 ca        1 28Q     -0.113000
     22 N23         5.3190    1.4460    9.1710 n4        1 28Q     -0.569300
     23 S24         6.3410    3.0160    9.4430 s6        1 28Q      1.410900
     24 O25         6.3940    3.0230   10.8220 o         1 28Q     -0.560800
     25 O26         7.4580    2.7570    8.6790 o         1 28Q     -0.560800
     26 C27         5.3590    4.1790    8.8360 c3        1 28Q     -0.461300
     27 O28         3.3510   -0.1370    1.5550 os        1 28Q     -0.362900
     28 C29         3.8810   -1.4540    1.7240 c3        1 28Q      0.115700
     29 C30         2.1800    0.1390   -1.1240 c3        1 28Q     -0.000700
     30 C31         1.2970    0.3380   -2.3550 c3        1 28Q     -0.091100
     31 C32         3.0770    1.3710   -1.0040 c3        1 28Q     -0.091100
     32 C33         3.0410   -1.0960   -1.3710 c3        1 28Q     -0.091100
     33 H1         -0.5490   -0.0150   -0.8970 ha        1 28Q      0.170000
     34 H2         -0.8270   -0.0540    3.3980 ha        1 28Q      0.129000
     35 H3         -2.6120    1.2580    2.8040 ha        1 28Q      0.136000
     36 H4         -5.1010    1.1820    2.6170 ha        1 28Q      0.155000
     37 H5         -6.1710   -0.2080    0.8040 h4        1 28Q      0.160000
     38 H6         -4.7670   -1.3980   -0.6830 hn        1 28Q      0.341500
     39 H7          1.0310   -0.1840    4.7370 hc        1 28Q      0.049200
     40 H8          2.5550   -0.8620    4.0400 hc        1 28Q      0.049200
     41 H9          1.7410    2.1310    4.1450 hc        1 28Q      0.083200
     42 H10         3.2190    1.4850    3.3140 hc        1 28Q      0.083200
     43 H11         5.1870    1.0800    4.5570 ha        1 28Q      0.174500
     44 H12         6.4140    1.1320    6.7070 ha        1 28Q      0.159500
     45 H13         2.6160    1.6270    8.8180 ha        1 28Q      0.159500
     46 H14         1.4280    1.5800    6.6490 ha        1 28Q      0.174500
     47 H15         4.6580    1.3100    9.9380 hn        1 28Q      0.461300
     48 H16         5.9430    5.0580    8.4250 h1        1 28Q      0.178700
     49 H17         4.6940    3.8920    7.9720 h1        1 28Q      0.178700
     50 H18         4.6630    4.6390    9.5950 h1        1 28Q      0.178700
     51 H19         3.8040   -1.7580    2.7960 h1        1 28Q      0.041700
     52 H20         4.9540   -1.3550    1.4220 h1        1 28Q      0.041700
     53 H21         3.3540   -2.1980    1.0780 h1        1 28Q      0.041700
     54 H22         1.9420    0.5140   -3.2500 hc        1 28Q      0.041144
     55 H23         0.6320    1.2250   -2.2280 hc        1 28Q      0.041144
     56 H24         0.6750   -0.5690   -2.5460 hc        1 28Q      0.041144
     57 H25         3.7670    1.2770   -0.1320 hc        1 28Q      0.041144
     58 H26         3.6890    1.4790   -1.9320 hc        1 28Q      0.041144
     59 H27         2.4560    2.2880   -0.8770 hc        1 28Q      0.041144
     60 H28         3.9410   -1.0830   -0.7120 hc        1 28Q      0.041144
     61 H29         3.3920   -1.1100   -2.4320 hc        1 28Q      0.041144
     62 H30         2.4560   -2.0260   -1.1790 hc        1 28Q      0.041144
     63 H232        5.9530    0.6400    9.1840 hn        1 28Q      0.461300
@<TRIPOS>BOND
     1    1    2 ar  
     2    1    6 ar  
     3    1   33 1   
     4    2    3 ar  
     5    2   29 1   
     6    3    4 ar  
     7    3   27 1   
     8    4    5 ar  
     9    4   14 1   
    10    5    6 ar  
    11    5   34 1   
    12    6    7 1   
    13    7    8 2   
    14    7   12 1   
    15    8    9 1   
    16    8   35 1   
    17    9   10 2   
    18    9   36 1   
    19   10   11 1   
    20   10   37 1   
    21   11   12 1   
    22   11   38 1   
    23   12   13 2   
    24   14   15 1   
    25   14   39 1   
    26   14   40 1   
    27   15   16 1   
    28   15   41 1   
    29   15   42 1   
    30   16   17 ar  
    31   16   21 ar  
    32   17   18 ar  
    33   17   43 1   
    34   18   19 ar  
    35   18   44 1   
    36   19   20 ar  
    37   19   22 1   
    38   20   21 ar  
    39   20   45 1   
    40   21   46 1   
    41   22   23 1   
    42   22   47 1   
    43   22   63 1   
    44   23   24 2   
    45   23   25 2   
    46   23   26 1   
    47   26   48 1   
    48   26   49 1   
    49   26   50 1   
    50   27   28 1   
    51   28   51 1   
    52   28   52 1   
    53   28   53 1   
    54   29   30 1   
    55   29   31 1   
    56   29   32 1   
    57   30   54 1   
    58   30   55 1   
    59   30   56 1   
    60   31   57 1   
    61   31   58 1   
    62   31   59 1   
    63   32   60 1   
    64   32   61 1   
    65   32   62 1   
@<TRIPOS>SUBSTRUCTURE
     1 28Q         1 TEMP              0 ****  ****    0 ROOT
