@<TRIPOS>MOLECULE
28R
   59    62     1     0     0
SMALL
bcc


@<TRIPOS>ATOM
      1 C1         -0.0490    0.0780   -0.0270 ca        1 28R     -0.040800
      2 C2          1.3530    0.0980    0.0400 ca        1 28R     -0.078000
      3 C3          2.0450    0.2280    1.2500 ca        1 28R     -0.069300
      4 C4          1.2800    0.3420    2.4310 ca        1 28R      0.150100
      5 C5         -0.1280    0.2520    2.3860 ca        1 28R     -0.194900
      6 C6         -0.7900    0.1420    1.1560 ca        1 28R     -0.038000
      7 C7         -0.9390    0.2170    3.5900 cc        1 28R      0.672200
      8 N8         -2.1730    0.6730    3.8230 nd        1 28R     -0.561100
      9 C9         -2.4870    0.2650    5.1350 ca        1 28R      0.084400
     10 C10        -1.3530   -0.4470    5.6790 ca        1 28R      0.070100
     11 O11        -0.3680   -0.4790    4.7100 os        1 28R     -0.262700
     12 C12        -1.3410   -0.9880    6.9570 ca        1 28R     -0.075000
     13 C13        -2.4940   -0.8220    7.7190 ca        1 28R     -0.111000
     14 C14        -3.6140   -0.1210    7.2060 ca        1 28R     -0.099400
     15 C15        -3.6370    0.4160    5.9040 ca        1 28R     -0.067000
     16 N16        -4.7980    0.0030    8.0430 n4        1 28R     -0.569300
     17 S17        -4.6070    1.2600    9.4430 s6        1 28R      1.409900
     18 O18        -5.9370    1.5130    9.7130 o         1 28R     -0.561300
     19 O19        -3.8120    0.5730   10.3340 o         1 28R     -0.561300
     20 C20        -3.8620    2.5100    8.6880 c3        1 28R     -0.463300
     21 O21         1.9200    0.4500    3.6590 os        1 28R     -0.335900
     22 C22         1.7560    1.7250    4.2850 c3        1 28R      0.117700
     23 C23         3.5540    0.2020    1.2800 c3        1 28R     -0.000700
     24 C24         4.0230   -0.9910    2.1110 c3        1 28R     -0.092100
     25 C25         4.1590    0.0590   -0.1150 c3        1 28R     -0.092100
     26 C26         4.0970    1.4930    1.8870 c3        1 28R     -0.092100
     27 C27        -0.7100   -0.0200   -1.3230 cc        1 28R     -0.170400
     28 C28        -1.9430   -0.8160   -1.4260 c         1 28R      0.692700
     29 O29        -2.5260   -1.3950   -0.4870 o         1 28R     -0.652500
     30 N30        -2.5200   -0.9270   -2.7080 n         1 28R     -0.428100
     31 C32        -1.9800   -0.3020   -3.8010 cc        1 28R      0.029600
     32 C33        -0.8440    0.4660   -3.7010 cd        1 28R     -0.253000
     33 C34        -0.2060    0.6000   -2.4380 cd        1 28R     -0.013000
     34 H1          1.9100   -0.0020   -0.9070 ha        1 28R      0.152000
     35 H2         -1.8920    0.0760    1.1190 ha        1 28R      0.181000
     36 H3         -0.4670   -1.5340    7.3460 ha        1 28R      0.191000
     37 H4         -2.5180   -1.2460    8.7390 ha        1 28R      0.171000
     38 H5         -4.5200    0.9240    5.4840 ha        1 28R      0.171000
     39 H6         -5.6040    0.2320    7.4560 hn        1 28R      0.462300
     40 H7         -3.2650    2.2770    7.7600 h1        1 28R      0.179033
     41 H8         -3.1060    3.0230    9.3550 h1        1 28R      0.179033
     42 H9         -4.5640    3.3340    8.3730 h1        1 28R      0.179033
     43 H10         2.0510    2.5510    3.5930 h1        1 28R      0.043367
     44 H11         2.4440    1.6750    5.1650 h1        1 28R      0.043367
     45 H12         0.6960    1.8550    4.6140 h1        1 28R      0.043367
     46 H13         3.6660   -1.9440    1.6530 hc        1 28R      0.042700
     47 H14         5.1390   -1.0060    2.1480 hc        1 28R      0.042700
     48 H15         3.6320   -0.9240    3.1550 hc        1 28R      0.042700
     49 H16         3.8250   -0.8900   -0.5990 hc        1 28R      0.042700
     50 H17         3.8800    0.9260   -0.7600 hc        1 28R      0.042700
     51 H18         5.2730    0.0300   -0.0340 hc        1 28R      0.042700
     52 H19         3.9180    1.5130    2.9890 hc        1 28R      0.042700
     53 H20         5.1990    1.5590    1.7140 hc        1 28R      0.042700
     54 H21         3.6090    2.3810    1.4210 hc        1 28R      0.042700
     55 H22        -3.3440   -1.4820   -2.8020 hn        1 28R      0.341500
     56 H23        -2.5090   -0.4490   -4.7620 h4        1 28R      0.163000
     57 H24        -0.4290    0.9670   -4.5840 ha        1 28R      0.162000
     58 H25         0.7050    1.2180   -2.3750 ha        1 28R      0.145000
     59 H162       -4.9880   -0.9170    8.4520 hn        1 28R      0.462300
@<TRIPOS>BOND
     1    1    2 ar  
     2    1    6 ar  
     3    1   27 1   
     4    2    3 ar  
     5    2   34 1   
     6    3    4 ar  
     7    3   23 1   
     8    4    5 ar  
     9    4   21 1   
    10    5    6 ar  
    11    5    7 1   
    12    6   35 1   
    13    7    8 2   
    14    7   11 1   
    15    8    9 1   
    16    9   10 ar  
    17    9   15 ar  
    18   10   11 1   
    19   10   12 ar  
    20   12   13 ar  
    21   12   36 1   
    22   13   14 ar  
    23   13   37 1   
    24   14   15 ar  
    25   14   16 1   
    26   15   38 1   
    27   16   17 1   
    28   16   39 1   
    29   16   59 1   
    30   17   18 2   
    31   17   19 2   
    32   17   20 1   
    33   20   40 1   
    34   20   41 1   
    35   20   42 1   
    36   21   22 1   
    37   22   43 1   
    38   22   44 1   
    39   22   45 1   
    40   23   24 1   
    41   23   25 1   
    42   23   26 1   
    43   24   46 1   
    44   24   47 1   
    45   24   48 1   
    46   25   49 1   
    47   25   50 1   
    48   25   51 1   
    49   26   52 1   
    50   26   53 1   
    51   26   54 1   
    52   27   28 1   
    53   27   33 2   
    54   28   29 2   
    55   28   30 1   
    56   30   31 1   
    57   30   55 1   
    58   31   32 2   
    59   31   56 1   
    60   32   33 1   
    61   32   57 1   
    62   33   58 1   
@<TRIPOS>SUBSTRUCTURE
     1 28R         1 TEMP              0 ****  ****    0 ROOT
