@<TRIPOS>MOLECULE
28R
   58    50     1     0     0
SMALL
bcc


@<TRIPOS>ATOM
      1 C1          0.6580    0.2040   -2.7820 c1        1 28R     -0.045000
      2 C2          2.0440    0.2000   -2.8000 c2        1 28R     -0.067000
      3 C3          2.7520    0.1950   -1.6090 c1        1 28R     -0.069000
      4 C4          2.0750    0.1940   -0.3990 c2        1 28R      0.106000
      5 C5          0.6890    0.1980   -0.3810 c1        1 28R     -0.079000
      6 C6         -0.0200    0.2030   -1.5720 c1        1 28R     -0.071000
      7 C7         -0.0510    0.2580    0.9400 c2        1 28R      0.103000
      8 N8         -1.1240   -0.5700    1.0840 n2        1 28R     -0.136000
      9 C9         -1.8090   -0.1840    2.2000 c1        1 28R     -0.063000
     10 C10        -1.1560    0.8860    2.7460 c1        1 28R     -0.032000
     11 O11        -0.0700    1.1580    1.9670 o         1 28R     -0.106000
     12 C12        -1.6330    1.4680    3.9350 c1        1 28R     -0.120500
     13 C13        -2.7650    0.9570    4.5520 c1        1 28R     -0.120500
     14 C14        -3.4270   -0.1270    3.9990 c1        1 28R      0.057000
     15 C15        -2.9580   -0.7020    2.8270 c1        1 28R     -0.108000
     16 N16        -4.6970   -0.6580    4.3520 n3        1 28R     -0.835000
     17 S17        -4.9940   -1.1150    5.9030 s4        1 28R      2.042800
     18 O18        -4.7440   -2.5180    6.0910 o         1 28R     -0.537900
     19 O19        -4.0400   -0.5370    6.8090 o         1 28R     -0.537900
     20 C20        -6.6550   -0.6910    6.3610 c2        1 28R     -0.950000
     21 O21         2.7930    0.1760    0.8090 os        1 28R     -0.220000
     22 C22         2.7070   -1.0470    1.5070 c3        1 28R     -0.073000
     23 C23         4.2650    0.2960   -1.6280 c2        1 28R     -0.004000
     24 C24         4.8610   -0.9300   -0.9720 c3        1 28R     -0.209000
     25 C25         4.7460    0.3850   -3.0610 c3        1 28R     -0.209000
     26 C26         4.6970    1.5330   -0.8730 c3        1 28R     -0.209000
     27 C27        -0.1150    0.2000   -4.0810 c1        1 28R     -0.137000
     28 C28        -0.5930   -1.1080   -4.6730 c1        1 28R      0.329000
     29 O29        -0.3100   -2.1580   -4.1330 o         1 28R     -0.368000
     30 N30        -1.4190   -1.1080   -5.8820 n2        1 28R     -0.280000
     31 C32        -1.7740    0.1560   -6.5270 c2        1 28R      0.013000
     32 C33        -1.2990    1.4670   -5.9400 c1        1 28R     -0.250000
     33 C34        -0.4710    1.4700   -4.7280 c1        1 28R     -0.030000
     34 H1          2.5200    0.2010   -3.6520 ha        1 28R      0.167000
     35 H2         -0.9960    0.2060   -1.5600 ha        1 28R      0.151000
     36 H3         -1.1660    2.2320    4.3250 ha        1 28R      0.169500
     37 H4         -3.0950    1.3620    5.3770 ha        1 28R      0.169500
     38 H5         -3.4240   -1.4650    2.4370 ha        1 28R      0.155000
     39 H6         -5.3390   -0.7690    3.7130 hn        1 28R      0.255000
     40 H7         -6.6870    0.2470    6.6390 ha        1 28R      0.158000
     41 H8         -6.9460   -1.2630    7.1030 ha        1 28R      0.158000
     42 H9         -7.2500   -0.8250    5.5930 ha        1 28R      0.158000
     43 H10         2.2760   -1.7200    0.9360 h1        1 28R      0.084667
     44 H11         3.6090   -1.3500    1.7480 h1        1 28R      0.084667
     45 H12         2.1750   -0.9210    2.3220 h1        1 28R      0.084667
     46 H13         5.5320   -1.3270   -1.5670 hc        1 28R      0.079778
     47 H14         5.2850   -0.6740   -0.1260 hc        1 28R      0.079778
     48 H15         4.1520   -1.5830   -0.7960 hc        1 28R      0.079778
     49 H16         4.6150   -0.4780   -3.5040 hc        1 28R      0.079778
     50 H17         4.2370    1.0760   -3.5340 hc        1 28R      0.079778
     51 H18         5.6980    0.6170   -3.0720 hc        1 28R      0.079778
     52 H19         4.0500    2.2530   -1.0280 hc        1 28R      0.079778
     53 H20         5.5820    1.8160   -1.1880 hc        1 28R      0.079778
     54 H21         4.7390    1.3330    0.0850 hc        1 28R      0.079778
     55 H22        -1.7060   -1.8970   -6.2370 hn        1 28R      0.249000
     56 H23        -2.3250    0.1540   -7.3330 h4        1 28R      0.154000
     57 H24        -1.5370    2.3100   -6.3720 ha        1 28R      0.154000
     58 H25        -0.1640    2.3150   -4.3480 ha        1 28R      0.146000
@<TRIPOS>BOND
     1    1    2 1   
     2    1    6 1   
     3    2    3 1   
     4    2   34 1   
     5    3    4 1   
     6    4    5 1   
     7    4   21 1   
     8    5    7 1   
     9    6   35 1   
    10    7    8 1   
    11    7   11 1   
    12    8    9 1   
    13    9   10 1   
    14   12   13 1   
    15   12   36 1   
    16   13   37 1   
    17   14   15 1   
    18   14   16 1   
    19   15   38 1   
    20   16   17 1   
    21   16   39 1   
    22   17   18 1   
    23   17   19 1   
    24   20   40 1   
    25   20   41 1   
    26   20   42 1   
    27   21   22 1   
    28   22   43 1   
    29   22   44 1   
    30   22   45 1   
    31   23   24 1   
    32   23   25 1   
    33   23   26 1   
    34   24   46 1   
    35   24   47 1   
    36   24   48 1   
    37   25   49 1   
    38   25   50 1   
    39   25   51 1   
    40   26   52 1   
    41   26   53 1   
    42   26   54 1   
    43   27   33 1   
    44   28   29 1   
    45   30   31 1   
    46   30   55 1   
    47   31   32 1   
    48   31   56 1   
    49   32   57 1   
    50   33   58 1   
@<TRIPOS>SUBSTRUCTURE
     1 28R         1 TEMP              0 ****  ****    0 ROOT
