@<TRIPOS>MOLECULE
28R
   58    61     1     0     0
SMALL
bcc


@<TRIPOS>ATOM
      1 C1          0.0240   -0.0510   -0.1110 ca        1 28R     -0.057800
      2 C2          1.4230    0.0160   -0.0370 ca        1 28R     -0.093000
      3 C3          2.0980    0.2070    1.1720 ca        1 28R     -0.079300
      4 C4          1.3190    0.3380    2.3460 ca        1 28R      0.149100
      5 C5         -0.0830    0.2140    2.2930 ca        1 28R     -0.159900
      6 C6         -0.7280    0.0300    1.0640 ca        1 28R     -0.042000
      7 C7         -0.9160    0.2490    3.4880 cc        1 28R      0.608200
      8 N8         -2.0770    0.8690    3.7040 nd        1 28R     -0.557100
      9 C9         -2.4600    0.5060    5.0150 ca        1 28R      0.075400
     10 C10        -1.4520   -0.3620    5.5580 ca        1 28R      0.016100
     11 O11        -0.4630   -0.5330    4.5930 os        1 28R     -0.284700
     12 C12        -1.5320   -0.9030    6.8320 ca        1 28R     -0.085000
     13 C13        -2.6510   -0.5680    7.5880 ca        1 28R     -0.154000
     14 C14        -3.6610    0.3000    7.0880 ca        1 28R      0.134600
     15 C15        -3.5710    0.8410    5.7870 ca        1 28R     -0.105000
     16 N16        -4.7790    0.6180    7.8820 nu        1 28R     -0.786500
     17 S17        -4.8190    0.8660    9.4890 s6        1 28R      1.470900
     18 O18        -6.1650    1.0810    9.8500 o         1 28R     -0.650800
     19 O19        -4.1230   -0.1330   10.1930 o         1 28R     -0.650800
     20 C20        -3.9720    2.3260    9.6850 c3        1 28R     -0.370300
     21 O21         1.9700    0.4920    3.5620 os        1 28R     -0.335900
     22 C22         1.6960    1.7260    4.2300 c3        1 28R      0.115700
     23 C23         3.6060    0.2380    1.2130 c3        1 28R      0.003300
     24 C24         4.1170   -0.8960    2.1000 c3        1 28R     -0.089767
     25 C25         4.2290    0.0540   -0.1700 c3        1 28R     -0.089767
     26 C26         4.0940    1.5760    1.7600 c3        1 28R     -0.089767
     27 C27        -0.6240   -0.1990   -1.4100 cc        1 28R     -0.144400
     28 C28        -1.8140   -1.0610   -1.5110 c         1 28R      0.689700
     29 O29        -2.3600   -1.6800   -0.5770 o         1 28R     -0.636500
     30 N30        -2.3900   -1.1970   -2.7910 ns        1 28R     -0.436100
     31 C32        -1.8840   -0.5450   -3.8860 cc        1 28R      0.017600
     32 C33        -0.7840    0.2710   -3.7900 cd        1 28R     -0.252000
     33 C34        -0.1520    0.4390   -2.5250 cd        1 28R     -0.031000
     34 H1          1.9880   -0.0930   -0.9770 ha        1 28R      0.141000
     35 H2         -1.8270   -0.0720    1.0260 ha        1 28R      0.176000
     36 H3         -0.7550   -1.5730    7.2240 ha        1 28R      0.162000
     37 H4         -2.7480   -1.0000    8.6010 ha        1 28R      0.177000
     38 H5         -4.3520    1.4990    5.3790 ha        1 28R      0.155000
     39 H6         -5.6140    0.7310    7.3470 hn        1 28R      0.460800
     40 H7         -3.8210    2.5440   10.7730 h1        1 28R      0.117700
     41 H8         -2.9530    2.3270    9.2280 h1        1 28R      0.117700
     42 H9         -4.5130    3.2080    9.2630 h1        1 28R      0.117700
     43 H10         0.6450    1.7390    4.6080 h1        1 28R      0.044367
     44 H11         2.4210    1.7250    5.0820 h1        1 28R      0.044367
     45 H12         1.8780    2.5940    3.5520 h1        1 28R      0.044367
     46 H13         5.2330   -0.8800    2.1250 hc        1 28R      0.039700
     47 H14         3.7360   -0.7860    3.1430 hc        1 28R      0.039700
     48 H15         3.7800   -1.8810    1.6970 hc        1 28R      0.039700
     49 H16         3.9240    0.8800   -0.8560 hc        1 28R      0.039700
     50 H17         3.9330   -0.9260   -0.6120 hc        1 28R      0.039700
     51 H18         5.3430    0.0710   -0.0800 hc        1 28R      0.039700
     52 H19         3.8280    1.6790    2.8390 hc        1 28R      0.039700
     53 H20         3.6350    2.4190    1.1910 hc        1 28R      0.039700
     54 H21         5.2050    1.6420    1.6650 hc        1 28R      0.039700
     55 H22        -3.1900   -1.7840   -2.8830 hn        1 28R      0.336500
     56 H23        -2.4100   -0.7150   -4.8440 h4        1 28R      0.154000
     57 H24        -0.3930    0.7910   -4.6730 ha        1 28R      0.153000
     58 H25         0.7280    1.1010   -2.4640 ha        1 28R      0.143000
@<TRIPOS>BOND
     1    1    2 ar  
     2    1    6 ar  
     3    1   27 1   
     4    2    3 ar  
     5    2   34 1   
     6    3    4 ar  
     7    3   23 1   
     8    4    5 ar  
     9    4   21 1   
    10    5    6 ar  
    11    5    7 1   
    12    6   35 1   
    13    7    8 2   
    14    7   11 1   
    15    8    9 1   
    16    9   10 ar  
    17    9   15 ar  
    18   10   11 1   
    19   10   12 ar  
    20   12   13 ar  
    21   12   36 1   
    22   13   14 ar  
    23   13   37 1   
    24   14   15 ar  
    25   14   16 1   
    26   15   38 1   
    27   16   17 1   
    28   16   39 1   
    29   17   18 2   
    30   17   19 2   
    31   17   20 1   
    32   20   40 1   
    33   20   41 1   
    34   20   42 1   
    35   21   22 1   
    36   22   43 1   
    37   22   44 1   
    38   22   45 1   
    39   23   24 1   
    40   23   25 1   
    41   23   26 1   
    42   24   46 1   
    43   24   47 1   
    44   24   48 1   
    45   25   49 1   
    46   25   50 1   
    47   25   51 1   
    48   26   52 1   
    49   26   53 1   
    50   26   54 1   
    51   27   28 1   
    52   27   33 2   
    53   28   29 2   
    54   28   30 1   
    55   30   31 1   
    56   30   55 1   
    57   31   32 2   
    58   31   56 1   
    59   32   33 1   
    60   32   57 1   
    61   33   58 1   
@<TRIPOS>SUBSTRUCTURE
     1 28R         1 TEMP              0 ****  ****    0 ROOT
