@<TRIPOS>MOLECULE
28R
   58    61     1     0     0
SMALL
bcc


@<TRIPOS>ATOM
      1 C1          3.6060   -0.7060   -0.0950 ca        1 28R     -0.057800
      2 C2          4.1740    0.5750   -0.1650 ca        1 28R     -0.093000
      3 C3          3.3940    1.7330   -0.2440 ca        1 28R     -0.079300
      4 C4          1.9880    1.5790   -0.2570 ca        1 28R      0.149100
      5 C5          1.4050    0.3030   -0.1290 ca        1 28R     -0.159900
      6 C6          2.2150   -0.8370   -0.0590 ca        1 28R     -0.042000
      7 C7         -0.0360    0.1060   -0.0440 cc        1 28R      0.608200
      8 N8         -0.8110   -0.8030   -0.6330 nd        1 28R     -0.557100
      9 C9         -2.1150   -0.5620   -0.1440 ca        1 28R      0.075400
     10 C10        -2.0590    0.5470    0.7670 ca        1 28R      0.016100
     11 O11        -0.7380    0.9820    0.8380 os        1 28R     -0.284700
     12 C12        -3.1760    1.0350    1.4270 ca        1 28R     -0.085000
     13 C13        -4.3860    0.3960    1.1730 ca        1 28R     -0.154000
     14 C14        -4.4800   -0.6950    0.2670 ca        1 28R      0.134600
     15 C15        -3.3360   -1.1860   -0.3980 ca        1 28R     -0.105000
     16 N16        -5.7220   -1.3160    0.0320 nh        1 28R     -0.786500
     17 S17        -7.1850   -0.6110   -0.0600 s6        1 28R      1.470900
     18 O18        -8.1380   -1.6350   -0.2320 o         1 28R     -0.650800
     19 O19        -7.4020    0.2890    0.9990 o         1 28R     -0.650800
     20 C20        -7.1000    0.2890   -1.4990 c3        1 28R     -0.370300
     21 O21         1.1950    2.7170   -0.2990 os        1 28R     -0.335900
     22 C22         0.3690    2.8230   -1.4600 c3        1 28R      0.115700
     23 C23         4.0440    3.0950   -0.2810 c3        1 28R      0.003300
     24 C24         3.5910    3.9110    0.9280 c3        1 28R     -0.089767
     25 C25         5.5680    3.0130   -0.2350 c3        1 28R     -0.089767
     26 C26         3.6640    3.8270   -1.5650 c3        1 28R     -0.089767
     27 C27         4.4730   -1.8780   -0.0670 cc        1 28R     -0.144400
     28 C28         4.0950   -3.0150    0.7890 c         1 28R      0.689700
     29 O29         3.0740   -3.0990    1.4980 o         1 28R     -0.636500
     30 N30         4.9780   -4.1160    0.8060 n         1 28R     -0.436100
     31 C32         6.1220   -4.1390    0.0500 cc        1 28R      0.017600
     32 C33         6.4660   -3.0860   -0.7610 cd        1 28R     -0.252000
     33 C34         5.6200   -1.9420   -0.8120 cd        1 28R     -0.031000
     34 H1          5.2730    0.6460   -0.1490 ha        1 28R      0.141000
     35 H2          1.7570   -1.8350    0.0470 ha        1 28R      0.176000
     36 H3         -3.1100    1.8780    2.1280 ha        1 28R      0.162000
     37 H4         -5.2880    0.7550    1.7010 ha        1 28R      0.177000
     38 H5         -3.3890   -2.0410   -1.0870 ha        1 28R      0.155000
     39 H6         -5.6400   -2.2970   -0.1270 hn        1 28R      0.460800
     40 H7         -7.0510   -0.3490   -2.4140 h1        1 28R      0.117700
     41 H8         -8.0140    0.9270   -1.6120 h1        1 28R      0.117700
     42 H9         -6.2300    0.9880   -1.5480 h1        1 28R      0.117700
     43 H10        -0.0530    3.8570   -1.3840 h1        1 28R      0.044367
     44 H11         0.9750    2.7080   -2.3910 h1        1 28R      0.044367
     45 H12        -0.4470    2.0620   -1.4290 h1        1 28R      0.044367
     46 H13         4.0780    4.9160    0.9070 hc        1 28R      0.039700
     47 H14         2.4840    4.0510    0.9200 hc        1 28R      0.039700
     48 H15         3.8800    3.3910    1.8720 hc        1 28R      0.039700
     49 H16         5.9950    4.0460   -0.2510 hc        1 28R      0.039700
     50 H17         5.9110    2.5120    0.7010 hc        1 28R      0.039700
     51 H18         5.9630    2.4600   -1.1200 hc        1 28R      0.039700
     52 H19         3.8850    3.1920   -2.4550 hc        1 28R      0.039700
     53 H20         2.5780    4.0850   -1.5630 hc        1 28R      0.039700
     54 H21         4.2480    4.7750   -1.6470 hc        1 28R      0.039700
     55 H22         4.7460   -4.8910    1.3880 hn        1 28R      0.336500
     56 H23         6.7440   -5.0490    0.1310 h4        1 28R      0.154000
     57 H24         7.3810   -3.1200   -1.3650 ha        1 28R      0.153000
     58 H25         5.9090   -1.1070   -1.4710 ha        1 28R      0.143000
@<TRIPOS>BOND
     1    1    2 ar  
     2    1    6 ar  
     3    1   27 1   
     4    2    3 ar  
     5    2   34 1   
     6    3    4 ar  
     7    3   23 1   
     8    4    5 ar  
     9    4   21 1   
    10    5    6 ar  
    11    5    7 1   
    12    6   35 1   
    13    7    8 2   
    14    7   11 1   
    15    8    9 1   
    16    9   10 ar  
    17    9   15 ar  
    18   10   11 1   
    19   10   12 ar  
    20   12   13 ar  
    21   12   36 1   
    22   13   14 ar  
    23   13   37 1   
    24   14   15 ar  
    25   14   16 1   
    26   15   38 1   
    27   16   17 1   
    28   16   39 1   
    29   17   18 2   
    30   17   19 2   
    31   17   20 1   
    32   20   40 1   
    33   20   41 1   
    34   20   42 1   
    35   21   22 1   
    36   22   43 1   
    37   22   44 1   
    38   22   45 1   
    39   23   24 1   
    40   23   25 1   
    41   23   26 1   
    42   24   46 1   
    43   24   47 1   
    44   24   48 1   
    45   25   49 1   
    46   25   50 1   
    47   25   51 1   
    48   26   52 1   
    49   26   53 1   
    50   26   54 1   
    51   27   28 1   
    52   27   33 2   
    53   28   29 2   
    54   28   30 1   
    55   30   31 1   
    56   30   55 1   
    57   31   32 2   
    58   31   56 1   
    59   32   33 1   
    60   32   57 1   
    61   33   58 1   
@<TRIPOS>SUBSTRUCTURE
     1 28R         1 TEMP              0 ****  ****    0 ROOT
