@<TRIPOS>MOLECULE
28S
   25    26     1     0     0
SMALL
bcc


@<TRIPOS>ATOM
      1 C1          0.0120    0.0070   -0.0610 ca        1 28S     -0.047900
      2 N1          0.0560    0.0270    4.8200 nb        1 28S     -0.789000
      3 Br1        -0.8970    0.0020   -1.6970 br        1 28S     -0.083100
      4 C2          1.4270    0.0040   -0.0560 ca        1 28S     -0.082000
      5 N2          2.1430    0.0360    3.5610 nb        1 28S     -0.728000
      6 C3          2.1200    0.0130    1.1290 ca        1 28S     -0.181300
      7 N3         -2.0540    0.0790    3.7350 nu        1 28S     -0.853900
      8 C4          1.4250    0.0220    2.3790 ca        1 28S      0.451600
      9 C5         -0.0050    0.0180    2.3650 ca        1 28S     -0.302600
     10 C6         -0.6870    0.0160    1.1290 ca        1 28S     -0.060000
     11 C7         -0.6730    0.0230    3.6730 ca        1 28S      0.713200
     12 C8          1.4200    0.0410    4.6820 ca        1 28S      0.683900
     13 C9         -2.7600   -0.0480    4.9900 c3        1 28S      0.240000
     14 C10        -4.2470    0.0100    4.8210 c2        1 28S     -0.198200
     15 C11        -5.0670   -0.8820    5.3690 c2        1 28S     -0.195000
     16 H2          1.9740   -0.0030   -1.0130 ha        1 28S      0.151000
     17 H3          3.2220    0.0140    1.1330 ha        1 28S      0.160000
     18 HN3        -2.5520   -0.1870    2.9170 hn        1 28S      0.431800
     19 H6         -1.7880    0.0290    1.0970 ha        1 28S      0.140000
     20 H8          1.9800    0.0520    5.6420 h5        1 28S      0.053100
     21 H9         -2.4640   -1.0080    5.5080 h1        1 28S      0.063700
     22 H9A        -2.4430    0.8070    5.6600 h1        1 28S      0.063700
     23 H10        -4.6290    0.8690    4.2440 ha        1 28S      0.132000
     24 H11        -4.7110   -1.7450    5.9480 ha        1 28S      0.118000
     25 H11A       -6.1590   -0.8020    5.2810 ha        1 28S      0.118000
@<TRIPOS>BOND
     1    1    3 1   
     2    1    4 ar  
     3    1   10 ar  
     4    2   11 ar  
     5    2   12 ar  
     6    4    6 ar  
     7    4   16 1   
     8    5    8 ar  
     9    5   12 ar  
    10    6    8 ar  
    11    6   17 1   
    12    7   11 1   
    13    7   13 1   
    14    7   18 1   
    15    8    9 ar  
    16    9   10 ar  
    17    9   11 ar  
    18   10   19 1   
    19   12   20 1   
    20   13   14 1   
    21   13   21 1   
    22   13   22 1   
    23   14   15 2   
    24   14   23 1   
    25   15   24 1   
    26   15   25 1   
@<TRIPOS>SUBSTRUCTURE
     1 28S         1 TEMP              0 ****  ****    0 ROOT
