@<TRIPOS>MOLECULE
28S
   25    26     1     0     0
SMALL
bcc


@<TRIPOS>ATOM
      1 C1          1.8510    0.1550    0.0250 ca        1 28S     -0.047900
      2 N1         -2.8120    1.5950   -0.0960 nb        1 28S     -0.789000
      3 BR1         3.1580   -1.1840    0.0190 br        1 28S     -0.083100
      4 C2          2.2490    1.5110    0.1010 ca        1 28S     -0.082000
      5 N2         -1.0110    3.2330    0.0290 nb        1 28S     -0.728000
      6 C3          1.3120    2.5140    0.1020 ca        1 28S     -0.181300
      7 N3         -2.3710   -0.7320   -0.2330 nh        1 28S     -0.853900
      8 C4         -0.0840    2.2070    0.0310 ca        1 28S      0.451600
      9 C5         -0.4780    0.8340   -0.0370 ca        1 28S     -0.302600
     10 C6          0.5120   -0.1730   -0.0440 ca        1 28S     -0.060000
     11 C7         -1.9210    0.5700   -0.1050 ca        1 28S      0.713200
     12 C8         -2.2900    2.8620   -0.0370 ca        1 28S      0.683900
     13 C9         -3.7790   -1.0540   -0.1690 c3        1 28S      0.240000
     14 C10        -4.0390   -2.5230   -0.2990 c2        1 28S     -0.198200
     15 C11        -4.8280   -3.1900    0.5390 c2        1 28S     -0.195000
     16 H2          3.3210    1.7600    0.1560 ha        1 28S      0.151000
     17 H3          1.6220    3.5700    0.1580 ha        1 28S      0.160000
     18 HN3        -1.7400   -1.4550    0.0250 hn        1 28S      0.431800
     19 H6          0.2290   -1.2360   -0.1130 ha        1 28S      0.140000
     20 H8         -3.0500    3.6740   -0.0400 h5        1 28S      0.053100
     21 H9         -4.2250   -0.6640    0.7940 h1        1 28S      0.063700
     22 H9A        -4.3010   -0.5220   -1.0200 h1        1 28S      0.063700
     23 H10        -3.5670   -3.0170   -1.1640 ha        1 28S      0.132000
     24 H11        -5.3110   -2.7210    1.4070 ha        1 28S      0.118000
     25 H11A       -5.0520   -4.2560    0.4050 ha        1 28S      0.118000
@<TRIPOS>BOND
     1    1    3 1   
     2    1    4 ar  
     3    1   10 ar  
     4    2   11 ar  
     5    2   12 ar  
     6    4    6 ar  
     7    4   16 1   
     8    5    8 ar  
     9    5   12 ar  
    10    6    8 ar  
    11    6   17 1   
    12    7   11 1   
    13    7   13 1   
    14    7   18 1   
    15    8    9 ar  
    16    9   10 ar  
    17    9   11 ar  
    18   10   19 1   
    19   12   20 1   
    20   13   14 1   
    21   13   21 1   
    22   13   22 1   
    23   14   15 2   
    24   14   23 1   
    25   15   24 1   
    26   15   25 1   
@<TRIPOS>SUBSTRUCTURE
     1 28S         1 TEMP              0 ****  ****    0 ROOT
