@<TRIPOS>MOLECULE
28S
   25    26     1     0     0
SMALL
bcc


@<TRIPOS>ATOM
      1 C1          0.0130    0.0050   -0.0600 ca        1 28S     -0.047900
      2 N1          0.0540    0.0320    4.8200 nb        1 28S     -0.789000
      3 BR1        -0.8960   -0.0040   -1.6970 br        1 28S     -0.083100
      4 C2          1.4290    0.0040   -0.0550 ca        1 28S     -0.082000
      5 N2          2.1420    0.0420    3.5620 nb        1 28S     -0.728000
      6 C3          2.1200    0.0150    1.1300 ca        1 28S     -0.181300
      7 N3         -2.0540    0.0790    3.7340 nh        1 28S     -0.853900
      8 C4          1.4250    0.0250    2.3800 ca        1 28S      0.451600
      9 C5         -0.0050    0.0190    2.3650 ca        1 28S     -0.302600
     10 C6         -0.6870    0.0140    1.1290 ca        1 28S     -0.060000
     11 C7         -0.6730    0.0250    3.6730 ca        1 28S      0.713200
     12 C8          1.4190    0.0480    4.6830 ca        1 28S      0.683900
     13 C9         -2.7610   -0.0480    4.9890 c3        1 28S      0.240000
     14 C10        -4.2470    0.0060    4.8190 c2        1 28S     -0.198200
     15 C11        -5.0650   -0.8880    5.3680 c2        1 28S     -0.195000
     16 H2          1.9760   -0.0040   -1.0120 ha        1 28S      0.151000
     17 H3          3.2230    0.0180    1.1350 ha        1 28S      0.160000
     18 HN3        -2.5520   -0.1890    2.9170 hn        1 28S      0.431800
     19 H6         -1.7880    0.0260    1.0970 ha        1 28S      0.140000
     20 H8          1.9790    0.0610    5.6430 h5        1 28S      0.053100
     21 H9         -2.4470    0.8090    5.6570 h1        1 28S      0.063700
     22 H9A        -2.4620   -1.0060    5.5090 h1        1 28S      0.063700
     23 H10        -4.6320    0.8630    4.2420 ha        1 28S      0.132000
     24 H11        -4.7070   -1.7500    5.9480 ha        1 28S      0.118000
     25 H11A       -6.1570   -0.8110    5.2790 ha        1 28S      0.118000
@<TRIPOS>BOND
     1    1    3 1   
     2    1    4 ar  
     3    1   10 ar  
     4    2   11 ar  
     5    2   12 ar  
     6    4    6 ar  
     7    4   16 1   
     8    5    8 ar  
     9    5   12 ar  
    10    6    8 ar  
    11    6   17 1   
    12    7   11 1   
    13    7   13 1   
    14    7   18 1   
    15    8    9 ar  
    16    9   10 ar  
    17    9   11 ar  
    18   10   19 1   
    19   12   20 1   
    20   13   14 1   
    21   13   21 1   
    22   13   22 1   
    23   14   15 2   
    24   14   23 1   
    25   15   24 1   
    26   15   25 1   
@<TRIPOS>SUBSTRUCTURE
     1 28S         1 TEMP              0 ****  ****    0 ROOT
