@<TRIPOS>MOLECULE
28S
   25    20     1     0     0
SMALL
bcc


@<TRIPOS>ATOM
      1 C1          0.9370    0.1450   -3.2330 c1        1 28S     -0.188000
      2 N1          1.0270    0.1570    1.5640 n1        1 28S     -0.263000
      3 BR1         0.1970    0.2160   -4.9800 br        1 28S      0.057000
      4 C2          2.3300    0.1950   -3.2600 c1        1 28S     -0.082000
      5 N2          3.0600    0.1860    0.3400 n1        1 28S     -0.202000
      6 C3          3.0470    0.1820   -2.0700 c1        1 28S     -0.116000
      7 N3         -1.0380    0.2670    0.6810 n3        1 28S     -0.298000
      8 C4          2.3600    0.1180   -0.8270 c1        1 28S      0.058000
      9 C5          0.9950    0.0690   -0.8010 c1        1 28S     -0.172000
     10 C6          0.2640    0.0820   -2.0090 c2        1 28S     -0.060000
     11 C7          0.3290    0.0900    0.4090 c1        1 28S      0.192000
     12 C8          2.3950    0.2060    1.5370 c1        1 28S      0.021000
     13 C9         -1.6630   -0.4850    1.7260 c3        1 28S     -0.001000
     14 C10        -3.0590    0.1220    2.0250 c2        1 28S     -0.194000
     15 C11        -3.9480   -0.5590    2.7990 c1        1 28S     -0.195000
     16 H2          2.8170    0.1830   -4.1400 ha        1 28S      0.151000
     17 H3          4.0380    0.2170   -2.0870 ha        1 28S      0.160000
     18 HN3        -1.5330    0.8160    0.1620 hn        1 28S      0.227000
     19 H6         -0.7310    0.0070   -1.9910 ha        1 28S      0.140000
     20 H8          2.8900    0.2550    2.3600 ha        1 28S      0.190000
     21 H9         -1.7660   -1.4350    1.4380 h1        1 28S      0.103000
     22 H9A        -1.0960   -0.4460    2.5530 h1        1 28S      0.103000
     23 H10        -3.3090    1.0250    1.6440 ha        1 28S      0.132000
     24 H11        -3.7040   -1.4440    3.1730 DU        1 28S      0.117000
     25 H11A       -4.8390   -0.1710    2.9880 ha        1 28S      0.119000
@<TRIPOS>BOND
     1    1    4 1   
     2    1   10 1   
     3    2   12 1   
     4    4   16 1   
     5    5    8 1   
     6    6    8 1   
     7    6   17 1   
     8    7   11 1   
     9    7   13 1   
    10    7   18 1   
    11    9   10 1   
    12    9   11 1   
    13   10   19 1   
    14   12   20 1   
    15   13   14 1   
    16   13   21 1   
    17   13   22 1   
    18   14   15 1   
    19   14   23 1   
    20   15   25 1   
@<TRIPOS>SUBSTRUCTURE
     1 28S         1 TEMP              0 ****  ****    0 ROOT
