@<TRIPOS>MOLECULE
28S
   26    27     1     0     0
SMALL
bcc


@<TRIPOS>ATOM
      1 C1          0.0350    0.0070   -0.0780 ca        1 28S      0.018100
      2 N1          0.0170   -0.0110    4.7920 nb        1 28S     -0.663000
      3 BR1        -0.8500    0.0080   -1.7210 br        1 28S     -0.005100
      4 C2          1.4550    0.0140   -0.0520 ca        1 28S     -0.073000
      5 N2          2.1200    0.0020    3.5740 nb        1 28S     -0.609000
      6 C3          2.1390    0.0130    1.1370 ca        1 28S     -0.140300
      7 N3         -2.1370   -0.0130    3.6680 n4        1 28S     -0.756700
      8 C4          1.4290    0.0040    2.3810 ca        1 28S      0.434600
      9 C5         -0.0090   -0.0010    2.3450 ca        1 28S     -0.252600
     10 C6         -0.6800   -0.0010    1.1010 ca        1 28S     -0.130000
     11 C7         -0.6540   -0.0080    3.6390 ca        1 28S      0.521200
     12 C8          1.3990   -0.0060    4.6930 ca        1 28S      0.658900
     13 C9         -2.7680    0.0370    5.0330 c3        1 28S      0.165000
     14 C10        -4.2530    0.0680    4.9170 c2        1 28S     -0.283200
     15 C11        -5.0290   -0.9210    5.3600 c2        1 28S     -0.099000
     16 H2          2.0140    0.0210   -1.0070 ha        1 28S      0.184000
     17 H3          3.2440    0.0180    1.1540 ha        1 28S      0.190000
     18 HN3        -2.4500   -0.8660    3.1860 hn        1 28S      0.460800
     19 H6         -1.7810   -0.0080    1.0590 ha        1 28S      0.136000
     20 H8          1.9380   -0.0090    5.6690 h5        1 28S      0.099100
     21 H9         -2.3980    0.9690    5.5540 hx        1 28S      0.121200
     22 H9A        -2.4120   -0.8630    5.6140 hx        1 28S      0.121200
     23 H10        -4.6820    1.0000    4.5110 ha        1 28S      0.153000
     24 H11        -4.6360   -1.8520    5.7950 ha        1 28S      0.145000
     25 H11A       -6.1280   -0.8510    5.3280 ha        1 28S      0.145000
     26 H32        -2.4560    0.8010    3.1250 hn        1 28S      0.460800
@<TRIPOS>BOND
     1    1    3 1   
     2    1    4 ar  
     3    1   10 ar  
     4    2   11 ar  
     5    2   12 ar  
     6    4    6 ar  
     7    4   16 1   
     8    5    8 ar  
     9    5   12 ar  
    10    6    8 ar  
    11    6   17 1   
    12    7   11 1   
    13    7   13 1   
    14    7   18 1   
    15    7   26 1   
    16    8    9 ar  
    17    9   10 ar  
    18    9   11 ar  
    19   10   19 1   
    20   12   20 1   
    21   13   14 1   
    22   13   21 1   
    23   13   22 1   
    24   14   15 2   
    25   14   23 1   
    26   15   24 1   
    27   15   25 1   
@<TRIPOS>SUBSTRUCTURE
     1 28S         1 TEMP              0 ****  ****    0 ROOT
