@<TRIPOS>MOLECULE
28T
   38    39     1     0     0
SMALL
bcc


@<TRIPOS>ATOM
      1 OAA        -0.6170    0.8330   -0.6840 o         1 28T     -0.832800
      2 CAN         0.5390    0.6650   -0.2130 c         1 28T      0.912600
      3 OAD         0.8710    0.8660    0.9880 o         1 28T     -0.832800
      4 CAR         1.7020    0.2070   -1.1610 c3        1 28T     -0.035300
      5 CAK         2.6700    1.3970   -1.3490 c3        1 28T     -0.071400
      6 CAF         2.3860    1.9530   -2.7430 c3        1 28T     -0.081400
      7 CAL         1.4070    0.9640   -3.4040 c3        1 28T      0.087000
      8 NAS         1.3070   -0.1810   -2.5180 n         1 28T     -0.426800
      9 CAP         0.4540   -1.2350   -2.7700 c         1 28T      0.680100
     10 OAC         0.4000   -2.2310   -2.0150 o         1 28T     -0.634100
     11 CAI        -0.3200   -1.2310   -4.0850 c3        1 28T     -0.149400
     12 CAH        -1.4060   -2.2810   -4.0630 c3        1 28T     -0.175400
     13 C          -1.9010   -2.6610   -5.4210 c         1 28T      0.591100
     14 O          -1.3700   -2.3280   -6.4830 o         1 28T     -0.547100
     15 CA         -3.1390   -3.5660   -5.3890 c3        1 28T      0.058500
     16 CB         -3.2580   -4.4380   -6.6580 c3        1 28T     -0.093400
     17 CG         -4.6650   -4.2140   -7.1960 c3        1 28T     -0.097400
     18 CD         -5.2420   -3.0490   -6.3760 c3        1 28T      0.153800
     19 N          -4.3550   -2.7520   -5.2570 n7        1 28T     -0.792200
     20 H2          2.2110   -0.6700   -0.6800 h1        1 28T      0.067700
     21 H3          3.7300    1.0550   -1.2700 hc        1 28T      0.045200
     22 H4          2.4870    2.1570   -0.5510 hc        1 28T      0.045200
     23 H5          1.9220    2.9670   -2.6830 hc        1 28T      0.030200
     24 H6          3.3230    2.0350   -3.3440 hc        1 28T      0.030200
     25 H7          1.7830    0.6250   -4.4070 h1        1 28T      0.028700
     26 H8          0.4070    1.4610   -3.5510 h1        1 28T      0.028700
     27 H9         -0.7810   -0.2230   -4.2570 hc        1 28T      0.066200
     28 H10         0.3960   -1.4280   -4.9260 hc        1 28T      0.066200
     29 H11        -2.2710   -1.9120   -3.4470 hc        1 28T      0.092200
     30 H12        -1.0190   -3.2110   -3.5560 hc        1 28T      0.092200
     31 H13        -3.0160   -4.2430   -4.4920 h1        1 28T      0.049700
     32 H14        -3.0840   -5.5110   -6.4070 hc        1 28T      0.058700
     33 H15        -2.4920   -4.1270   -7.4130 hc        1 28T      0.058700
     34 H16        -5.2920   -5.1310   -7.0700 hc        1 28T      0.040700
     35 H17        -4.6480   -3.9580   -8.2820 hc        1 28T      0.040700
     36 H18        -5.2940   -2.1220   -7.0110 h1        1 28T      0.042200
     37 H19        -6.2830   -3.2840   -6.0270 h1        1 28T      0.042200
     38 H20        -4.8000   -2.9420   -4.3800 hn        1 28T      0.359800
@<TRIPOS>BOND
     1    1    2 1   
     2    2    3 1   
     3    2    4 1   
     4    4    5 1   
     5    4    8 1   
     6    4   20 1   
     7    5    6 1   
     8    5   21 1   
     9    5   22 1   
    10    6    7 1   
    11    6   23 1   
    12    6   24 1   
    13    7    8 1   
    14    7   25 1   
    15    7   26 1   
    16    8    9 1   
    17    9   10 2   
    18    9   11 1   
    19   11   12 1   
    20   11   27 1   
    21   11   28 1   
    22   12   13 1   
    23   12   29 1   
    24   12   30 1   
    25   13   14 2   
    26   13   15 1   
    27   15   16 1   
    28   15   19 1   
    29   15   31 1   
    30   16   17 1   
    31   16   32 1   
    32   16   33 1   
    33   17   18 1   
    34   17   34 1   
    35   17   35 1   
    36   18   19 1   
    37   18   36 1   
    38   18   37 1   
    39   19   38 1   
@<TRIPOS>SUBSTRUCTURE
     1 28T         1 TEMP              0 ****  ****    0 ROOT
