@<TRIPOS>MOLECULE
28T
   38    39     1     0     0
SMALL
bcc


@<TRIPOS>ATOM
      1 OAA        -0.6160    0.7880   -0.6560 o         1 28T     -0.832800
      2 CAN         0.5430    0.6210   -0.1920 c         1 28T      0.912600
      3 OAD         0.8780    0.8080    1.0100 o         1 28T     -0.832800
      4 CAR         1.7050    0.1830   -1.1510 c3        1 28T     -0.035300
      5 CAK         2.6650    1.3810   -1.3260 c3        1 28T     -0.071400
      6 CAF         2.3730    1.9540   -2.7110 c3        1 28T     -0.081400
      7 CAL         1.3970    0.9690   -3.3810 c3        1 28T      0.087000
      8 NAS         1.3070   -0.1890   -2.5110 n         1 28T     -0.426800
      9 CAP         0.4590   -1.2440   -2.7750 c         1 28T      0.680100
     10 OAC         0.4140   -2.2510   -2.0340 o         1 28T     -0.634100
     11 CAI        -0.3190   -1.2270   -4.0870 c3        1 28T     -0.149400
     12 CAH        -1.4010   -2.2830   -4.0740 c3        1 28T     -0.175400
     13 C          -1.9000   -2.6470   -5.4350 c         1 28T      0.591100
     14 O          -1.3740   -2.2980   -6.4950 o         1 28T     -0.547100
     15 CA         -3.1340   -3.5570   -5.4100 c3        1 28T      0.058500
     16 CB         -3.2530   -4.4130   -6.6900 c3        1 28T     -0.093400
     17 CG         -4.6640   -4.1890   -7.2190 c3        1 28T     -0.097400
     18 CD         -5.2420   -3.0370   -6.3830 c3        1 28T      0.153800
     19 N          -4.3520   -2.7500   -5.2640 n3        1 28T     -0.792200
     20 H2          2.2200   -0.6980   -0.6840 h1        1 28T      0.067700
     21 H3          3.7280    1.0440   -1.2560 hc        1 28T      0.045200
     22 H4          2.4810    2.1280   -0.5160 hc        1 28T      0.045200
     23 H5          1.9030    2.9640   -2.6350 hc        1 28T      0.030200
     24 H6          3.3070    2.0500   -3.3150 hc        1 28T      0.030200
     25 H7          0.3930    1.4620   -3.5180 h1        1 28T      0.028700
     26 H8          1.7710    0.6460   -4.3910 h1        1 28T      0.028700
     27 H9         -0.7860   -0.2190   -4.2440 hc        1 28T      0.065700
     28 H10         0.3940   -1.4110   -4.9330 hc        1 28T      0.065700
     29 H11        -2.2650   -1.9250   -3.4500 hc        1 28T      0.092200
     30 H12        -1.0070   -3.2170   -3.5810 hc        1 28T      0.092200
     31 H13        -3.0050   -4.2450   -4.5220 h1        1 28T      0.049700
     32 H14        -2.4920   -4.0900   -7.4440 hc        1 28T      0.058700
     33 H15        -3.0740   -5.4890   -6.4530 hc        1 28T      0.058700
     34 H16        -4.6510   -3.9200   -8.3020 hc        1 28T      0.040700
     35 H17        -5.2860   -5.1100   -7.1020 hc        1 28T      0.040700
     36 H18        -6.2810   -3.2810   -6.0330 h1        1 28T      0.042200
     37 H19        -5.3010   -2.1020   -7.0060 h1        1 28T      0.042200
     38 H20        -4.7940   -2.9520   -4.3880 hn        1 28T      0.359800
@<TRIPOS>BOND
     1    1    2 1   
     2    2    3 1   
     3    2    4 1   
     4    4    5 1   
     5    4    8 1   
     6    4   20 1   
     7    5    6 1   
     8    5   21 1   
     9    5   22 1   
    10    6    7 1   
    11    6   23 1   
    12    6   24 1   
    13    7    8 1   
    14    7   25 1   
    15    7   26 1   
    16    8    9 1   
    17    9   10 2   
    18    9   11 1   
    19   11   12 1   
    20   11   27 1   
    21   11   28 1   
    22   12   13 1   
    23   12   29 1   
    24   12   30 1   
    25   13   14 2   
    26   13   15 1   
    27   15   16 1   
    28   15   19 1   
    29   15   31 1   
    30   16   17 1   
    31   16   32 1   
    32   16   33 1   
    33   17   18 1   
    34   17   34 1   
    35   17   35 1   
    36   18   19 1   
    37   18   36 1   
    38   18   37 1   
    39   19   38 1   
@<TRIPOS>SUBSTRUCTURE
     1 28T         1 TEMP              0 ****  ****    0 ROOT
