@<TRIPOS>MOLECULE
28T
   38    39     1     0     0
SMALL
bcc


@<TRIPOS>ATOM
      1 OAA        -0.6530    0.9130   -0.7220 o         1 28T     -0.832800
      2 CAN         0.4880    0.7350   -0.2190 c         1 28T      0.911600
      3 OAD         0.7940    0.9590    0.9850 o         1 28T     -0.832800
      4 CAR         1.6640    0.2300   -1.1270 c3        1 28T     -0.035300
      5 CAK         2.6590    1.3950   -1.3200 c3        1 28T     -0.071400
      6 CAF         2.4210    1.9220   -2.7340 c3        1 28T     -0.081400
      7 CAL         1.4380    0.9360   -3.3930 c3        1 28T      0.087000
      8 NAS         1.2930   -0.1850   -2.4830 n         1 28T     -0.426800
      9 CAP         0.4250   -1.2270   -2.7290 c         1 28T      0.680100
     10 OAC         0.3330   -2.2030   -1.9520 o         1 28T     -0.634100
     11 CAI        -0.3160   -1.2400   -4.0620 c3        1 28T     -0.149400
     12 CAH        -1.4210   -2.2720   -4.0430 c3        1 28T     -0.175400
     13 C          -1.8900   -2.6750   -5.4040 c         1 28T      0.591100
     14 O          -1.3280   -2.3750   -6.4600 o         1 28T     -0.547100
     15 CA         -3.1430   -3.5590   -5.3820 c3        1 28T      0.058500
     16 CB         -3.2460   -4.4570   -6.6340 c3        1 28T     -0.093400
     17 CG         -4.6360   -4.2230   -7.2100 c3        1 28T     -0.097400
     18 CD         -5.2130   -3.0310   -6.4300 c3        1 28T      0.153800
     19 N          -4.3480   -2.7230   -5.2970 n3        1 28T     -0.792200
     20 H2          2.1430   -0.6440   -0.6120 h1        1 28T      0.067700
     21 H3          2.4730    2.1790   -0.5450 hc        1 28T      0.045200
     22 H4          3.7110    1.0350   -1.2070 hc        1 28T      0.045200
     23 H5          1.9750    2.9450   -2.7100 hc        1 28T      0.030200
     24 H6          3.3730    1.9700   -3.3140 hc        1 28T      0.030200
     25 H7          1.8310    0.5650   -4.3790 h1        1 28T      0.028700
     26 H8          0.4520    1.4480   -3.5780 h1        1 28T      0.028700
     27 H9          0.4150   -1.4700   -4.8810 hc        1 28T      0.066200
     28 H10        -0.7560   -0.2290   -4.2680 hc        1 28T      0.066200
     29 H11        -2.2940   -1.8730   -3.4580 hc        1 28T      0.092200
     30 H12        -1.0630   -3.1960   -3.5060 hc        1 28T      0.092200
     31 H13        -3.0520   -4.2180   -4.4670 h1        1 28T      0.049700
     32 H14        -2.4570   -4.1760   -7.3770 hc        1 28T      0.058700
     33 H15        -3.0950   -5.5280   -6.3550 hc        1 28T      0.058700
     34 H16        -4.5880   -3.9920   -8.3010 hc        1 28T      0.040700
     35 H17        -5.2810   -5.1270   -7.0790 hc        1 28T      0.040700
     36 H18        -6.2660   -3.2420   -6.1020 h1        1 28T      0.042200
     37 H19        -5.2340   -2.1170   -7.0870 h1        1 28T      0.042200
     38 H20        -4.8170   -2.8870   -4.4270 hn        1 28T      0.359800
@<TRIPOS>BOND
     1    1    2 1   
     2    2    3 1   
     3    2    4 1   
     4    4    5 1   
     5    4    8 1   
     6    4   20 1   
     7    5    6 1   
     8    5   21 1   
     9    5   22 1   
    10    6    7 1   
    11    6   23 1   
    12    6   24 1   
    13    7    8 1   
    14    7   25 1   
    15    7   26 1   
    16    8    9 1   
    17    9   10 2   
    18    9   11 1   
    19   11   12 1   
    20   11   27 1   
    21   11   28 1   
    22   12   13 1   
    23   12   29 1   
    24   12   30 1   
    25   13   14 2   
    26   13   15 1   
    27   15   16 1   
    28   15   19 1   
    29   15   31 1   
    30   16   17 1   
    31   16   32 1   
    32   16   33 1   
    33   17   18 1   
    34   17   34 1   
    35   17   35 1   
    36   18   19 1   
    37   18   36 1   
    38   18   37 1   
    39   19   38 1   
@<TRIPOS>SUBSTRUCTURE
     1 28T         1 TEMP              0 ****  ****    0 ROOT
