@<TRIPOS>MOLECULE
28U
   42    41     1     0     0
SMALL
bcc


@<TRIPOS>ATOM
      1 C4          1.0160   -1.1910   -0.7720 c3        1 28U     -0.121100
      2 C5          0.1090    0.1750    1.1610 c3        1 28U     -0.058400
      3 C6         -0.4560   -1.0470    1.8540 c3        1 28U     -0.047200
      4 C7         -0.6230   -0.8300    3.3100 c2        1 28U     -0.169200
      5 C8         -0.9530   -1.8070    4.1710 c2        1 28U     -0.127400
      6 C10        -1.1640   -3.2080    3.7340 c3        1 28U     -0.058900
      7 C13        -3.9050   -1.0300    8.0870 c2        1 28U     -0.124400
      8 C15        -5.1730   -0.9940    7.3200 c3        1 28U     -0.057900
      9 O16        -1.1770   -0.1790   -0.7960 oh        1 28U     -0.594800
     10 C3          0.1710    0.0140   -0.3650 c3        1 28U      0.180000
     11 C2          0.7720    1.2590   -0.9590 c2        1 28U     -0.204200
     12 C1          0.0870    2.1860   -1.6210 c2        1 28U     -0.207000
     13 C9         -1.1010   -1.5380    5.6300 c3        1 28U     -0.038200
     14 C11        -2.5620   -1.4840    6.0430 c3        1 28U     -0.043200
     15 C12        -2.7180   -1.2500    7.4970 c2        1 28U     -0.177200
     16 C14        -4.0220   -0.8050    9.5470 c3        1 28U     -0.057900
     17 H1          0.4790   -2.1340   -0.5120 hc        1 28U      0.044367
     18 H2          1.2020   -1.1790   -1.8720 hc        1 28U      0.044367
     19 H3          1.9960   -1.1690   -0.2400 hc        1 28U      0.044367
     20 H4         -0.5330    1.0650    1.3920 hc        1 28U      0.051200
     21 H5          1.1450    0.3850    1.5330 hc        1 28U      0.051200
     22 H6         -1.4510   -1.3020    1.3930 hc        1 28U      0.056700
     23 H7          0.2200   -1.9290    1.6810 hc        1 28U      0.056700
     24 H8         -0.4680    0.2010    3.6680 ha        1 28U      0.122000
     25 H11        -1.6610   -3.8120    4.5310 hc        1 28U      0.040700
     26 H12        -1.8010   -3.2420    2.8140 hc        1 28U      0.040700
     27 H13        -0.1810   -3.6850    3.4910 hc        1 28U      0.040700
     28 H15        -6.0580   -0.9370    7.9990 hc        1 28U      0.040200
     29 H16        -5.1890   -0.1020    6.6430 hc        1 28U      0.040200
     30 H17        -5.2720   -1.9090    6.6830 hc        1 28U      0.040200
     31 H18        -1.1500   -0.2690   -1.7560 ho        1 28U      0.399000
     32 H19         1.8570    1.3500   -0.7890 ha        1 28U      0.125000
     33 H20        -0.9970    2.1150   -1.7850 ha        1 28U      0.117500
     34 H21         0.5650    3.0820   -2.0370 ha        1 28U      0.117500
     35 H22        -0.6080   -0.5660    5.8990 hc        1 28U      0.045200
     36 H23        -0.5790   -2.3470    6.2080 hc        1 28U      0.045200
     37 H24        -3.0670   -2.4500    5.7640 hc        1 28U      0.050700
     38 H25        -3.0830   -0.6700    5.4700 hc        1 28U      0.050700
     39 H26        -1.7920   -1.2670    8.0950 ha        1 28U      0.121000
     40 H28        -4.6560   -1.6030   10.0090 hc        1 28U      0.040200
     41 H29        -3.0240   -0.8130   10.0490 hc        1 28U      0.040200
     42 H30        -4.5090    0.1830    9.7450 hc        1 28U      0.040200
@<TRIPOS>BOND
     1    1   10 1   
     2    1   17 1   
     3    1   18 1   
     4    1   19 1   
     5    2    3 1   
     6    2   10 1   
     7    2   20 1   
     8    2   21 1   
     9    3    4 1   
    10    3   22 1   
    11    3   23 1   
    12    4    5 2   
    13    4   24 1   
    14    5    6 1   
    15    5   13 1   
    16    6   25 1   
    17    6   26 1   
    18    6   27 1   
    19    7    8 1   
    20    7   15 2   
    21    7   16 1   
    22    8   28 1   
    23    8   29 1   
    24    8   30 1   
    25    9   10 1   
    26    9   31 1   
    27   10   11 1   
    28   11   12 2   
    29   11   32 1   
    30   12   33 1   
    31   12   34 1   
    32   13   14 1   
    33   13   35 1   
    34   13   36 1   
    35   14   15 1   
    36   14   37 1   
    37   14   38 1   
    38   15   39 1   
    39   16   40 1   
    40   16   41 1   
    41   16   42 1   
@<TRIPOS>SUBSTRUCTURE
     1 28U         1 TEMP              0 ****  ****    0 ROOT
