@<TRIPOS>MOLECULE
28U
   42    41     1     0     0
SMALL
bcc


@<TRIPOS>ATOM
      1 C4          1.1060   -1.1390   -0.7240 c3        1 28U     -0.121100
      2 C5          0.1070    0.2090    1.1760 c3        1 28U     -0.058400
      3 C6         -0.4180   -1.0270    1.8740 c3        1 28U     -0.047200
      4 C7         -0.6190   -0.8010    3.3240 c2        1 28U     -0.169200
      5 C8         -0.9240   -1.7800    4.1910 c2        1 28U     -0.127400
      6 C10        -1.0710   -3.1930    3.7670 c3        1 28U     -0.058900
      7 C13        -3.9730   -1.0760    8.0460 c2        1 28U     -0.124400
      8 C15        -5.2280   -1.0970    7.2570 c3        1 28U     -0.057900
      9 O16        -1.1290   -0.2230   -0.7990 oh        1 28U     -0.594800
     10 C3          0.2020    0.0340   -0.3470 c3        1 28U      0.180000
     11 C2          0.7600    1.2960   -0.9460 c2        1 28U     -0.204200
     12 C1          0.0470    2.1840   -1.6320 c2        1 28U     -0.207000
     13 C9         -1.1090   -1.5010    5.6440 c3        1 28U     -0.038200
     14 C11        -2.5770   -1.5020    6.0320 c3        1 28U     -0.043200
     15 C12        -2.7680   -1.2570    7.4800 c2        1 28U     -0.177200
     16 C14        -4.1250   -0.8390    9.5020 c3        1 28U     -0.057900
     17 H1          2.0740   -1.0690   -0.1760 hc        1 28U      0.044367
     18 H2          0.6050   -2.1010   -0.4620 hc        1 28U      0.044367
     19 H3          1.3100   -1.1320   -1.8210 hc        1 28U      0.044367
     20 H4         -0.5760    1.0740    1.3840 hc        1 28U      0.051200
     21 H5          1.1260    0.4680    1.5620 hc        1 28U      0.051200
     22 H6         -1.3930   -1.3300    1.3990 hc        1 28U      0.056700
     23 H7          0.2970   -1.8820    1.7230 hc        1 28U      0.056700
     24 H8         -0.5120    0.2400    3.6720 ha        1 28U      0.122000
     25 H11        -1.5570   -3.8080    4.5640 hc        1 28U      0.040700
     26 H12        -0.0650   -3.6330    3.5470 hc        1 28U      0.040700
     27 H13        -1.6890   -3.2640    2.8370 hc        1 28U      0.040700
     28 H15        -5.2660   -0.2120    6.5710 hc        1 28U      0.040200
     29 H16        -5.2800   -2.0210    6.6280 hc        1 28U      0.040200
     30 H17        -6.1260   -1.0680    7.9200 hc        1 28U      0.040200
     31 H18        -1.0810   -0.3230   -1.7570 ho        1 28U      0.399000
     32 H19         1.8370    1.4360   -0.7590 ha        1 28U      0.125000
     33 H20        -1.0300    2.0650   -1.8130 ha        1 28U      0.117500
     34 H21         0.4940    3.0960   -2.0500 ha        1 28U      0.117500
     35 H22        -0.5650   -2.2820    6.2400 hc        1 28U      0.045200
     36 H23        -0.6590   -0.5070    5.9090 hc        1 28U      0.045200
     37 H24        -3.0380   -2.4900    5.7560 hc        1 28U      0.050700
     38 H25        -3.1210   -0.7160    5.4390 hc        1 28U      0.050700
     39 H26        -1.8530   -1.2330    8.0930 ha        1 28U      0.121000
     40 H28        -4.6520    0.1320    9.6790 hc        1 28U      0.040200
     41 H29        -4.7360   -1.6560    9.9610 hc        1 28U      0.040200
     42 H30        -3.1360   -0.8040   10.0210 hc        1 28U      0.040200
@<TRIPOS>BOND
     1    1   10 1   
     2    1   17 1   
     3    1   18 1   
     4    1   19 1   
     5    2    3 1   
     6    2   10 1   
     7    2   20 1   
     8    2   21 1   
     9    3    4 1   
    10    3   22 1   
    11    3   23 1   
    12    4    5 2   
    13    4   24 1   
    14    5    6 1   
    15    5   13 1   
    16    6   25 1   
    17    6   26 1   
    18    6   27 1   
    19    7    8 1   
    20    7   15 2   
    21    7   16 1   
    22    8   28 1   
    23    8   29 1   
    24    8   30 1   
    25    9   10 1   
    26    9   31 1   
    27   10   11 1   
    28   11   12 2   
    29   11   32 1   
    30   12   33 1   
    31   12   34 1   
    32   13   14 1   
    33   13   35 1   
    34   13   36 1   
    35   14   15 1   
    36   14   37 1   
    37   14   38 1   
    38   15   39 1   
    39   16   40 1   
    40   16   41 1   
    41   16   42 1   
@<TRIPOS>SUBSTRUCTURE
     1 28U         1 TEMP              0 ****  ****    0 ROOT
