@<TRIPOS>MOLECULE
28V
   60    62     1     0     0
SMALL
bcc


@<TRIPOS>ATOM
      1 S1          0.2320   -0.2590   -0.5130 s6        1 28V      1.408900
      2 O2          1.5840   -0.0880   -0.7360 o         1 28V     -0.562300
      3 O3         -0.2410   -0.7820    0.6710 o         1 28V     -0.562300
      4 N4         -0.3050    1.5460   -0.3870 n4        1 28V     -0.566300
      5 C5         -1.7200    1.7510   -0.6510 ca        1 28V     -0.116400
      6 C6         -2.6730    1.3370    0.3030 ca        1 28V     -0.096000
      7 C7         -4.0210    1.5500    0.0580 ca        1 28V     -0.123500
      8 C8         -4.4600    2.1870   -1.1210 ca        1 28V      0.048200
      9 C9         -3.4940    2.6100   -2.0510 ca        1 28V     -0.123500
     10 C10        -2.1390    2.4070   -1.8230 ca        1 28V     -0.096000
     11 C11        -5.8750    2.4070   -1.3160 ce        1 28V     -0.200200
     12 C12        -6.4410    2.7320   -2.4960 cf        1 28V      0.004800
     13 C13        -7.8480    3.0180   -2.6920 ca        1 28V     -0.133800
     14 C14        -8.4080    2.9280   -3.9900 ca        1 28V      0.133100
     15 C15        -9.7240    3.3580   -4.2550 ca        1 28V     -0.062300
     16 C16       -10.4900    3.8030   -3.1700 ca        1 28V     -0.059000
     17 C17        -9.9780    3.8380   -1.8650 ca        1 28V     -0.058800
     18 C18        -8.6510    3.4610   -1.6360 ca        1 28V     -0.083000
     19 C19       -10.8090    4.2710   -0.7480 cc        1 28V     -0.111400
     20 C20       -11.7670    5.3800   -0.9520 c         1 28V      0.668700
     21 O21       -11.9750    5.9950   -2.0110 o         1 28V     -0.613500
     22 N22       -12.5150    5.7590    0.1950 n         1 28V     -0.279900
     23 N24       -12.4280    5.1970    1.3790 nc        1 28V     -0.399300
     24 C25       -11.5770    4.1960    1.5470 cd        1 28V      0.313500
     25 C26       -10.7340    3.6950    0.4890 cd        1 28V     -0.164600
     26 C27       -10.2880    3.3970   -5.6550 c3        1 28V     -0.001700
     27 C28       -11.7260    3.9090   -5.6850 c3        1 28V     -0.092767
     28 C29        -9.4430    4.3420   -6.5090 c3        1 28V     -0.092767
     29 C30       -10.2790    2.0040   -6.2770 c3        1 28V     -0.092767
     30 O31        -7.5930    2.4960   -5.0320 os        1 28V     -0.347900
     31 C32        -7.3490    1.0870   -5.0200 c3        1 28V      0.113700
     32 C33        -0.5730   -0.7660   -1.8490 c3        1 28V     -0.459300
     33 H1          0.2430    2.1350   -1.0180 hn        1 28V      0.461300
     34 H2         -2.3620    0.8410    1.2400 ha        1 28V      0.158500
     35 H3         -4.7630    1.2200    0.8050 ha        1 28V      0.170000
     36 H4         -3.8070    3.1340   -2.9700 ha        1 28V      0.170000
     37 H5         -1.4090    2.7770   -2.5620 ha        1 28V      0.158500
     38 H6         -6.4970    2.2830   -0.4110 ha        1 28V      0.146000
     39 H7         -5.8310    2.8100   -3.4180 ha        1 28V      0.141000
     40 H8        -11.5260    4.1550   -3.3220 ha        1 28V      0.177000
     41 H9         -8.2290    3.5430   -0.6220 ha        1 28V      0.135000
     42 H10       -13.1780    6.5110    0.1200 hn        1 28V      0.368500
     43 H11       -11.5410    3.7490    2.5550 h4        1 28V      0.055800
     44 H12       -10.0560    2.8570    0.7050 ha        1 28V      0.148000
     45 H13       -12.0870    3.9390   -6.7420 hc        1 28V      0.043367
     46 H14       -12.3990    3.2320   -5.1060 hc        1 28V      0.043367
     47 H15       -11.7910    4.9430   -5.2690 hc        1 28V      0.043367
     48 H16        -9.4840    5.3770   -6.0940 hc        1 28V      0.043367
     49 H17        -9.8400    4.3580   -7.5520 hc        1 28V      0.043367
     50 H18        -8.3800    4.0050   -6.5360 hc        1 28V      0.043367
     51 H19       -10.9130    1.9940   -7.1960 hc        1 28V      0.043367
     52 H20       -10.6830    1.2510   -5.5590 hc        1 28V      0.043367
     53 H21        -9.2420    1.7130   -6.5690 hc        1 28V      0.043367
     54 H22        -8.3090    0.5160   -4.9960 h1        1 28V      0.044033
     55 H23        -6.7170    0.8120   -4.1400 h1        1 28V      0.044033
     56 H24        -6.8020    0.9070   -5.9790 h1        1 28V      0.044033
     57 H25         0.0160   -0.6700   -2.8050 h1        1 28V      0.177367
     58 H26        -0.8400   -1.8640   -1.7940 h1        1 28V      0.177367
     59 H27        -1.5630   -0.2740   -2.0700 h1        1 28V      0.177367
     60 H42        -0.1150    1.8790    0.5630 hn        1 28V      0.461300
@<TRIPOS>BOND
     1    1    2 2   
     2    1    3 2   
     3    1    4 1   
     4    1   32 1   
     5    4    5 1   
     6    4   33 1   
     7    4   60 1   
     8    5    6 ar  
     9    5   10 ar  
    10    6    7 ar  
    11    6   34 1   
    12    7    8 ar  
    13    7   35 1   
    14    8    9 ar  
    15    8   11 1   
    16    9   10 ar  
    17    9   36 1   
    18   10   37 1   
    19   11   12 2   
    20   11   38 1   
    21   12   13 1   
    22   12   39 1   
    23   13   14 ar  
    24   13   18 ar  
    25   14   15 ar  
    26   14   30 1   
    27   15   16 ar  
    28   15   26 1   
    29   16   17 ar  
    30   16   40 1   
    31   17   18 ar  
    32   17   19 1   
    33   18   41 1   
    34   19   20 1   
    35   19   25 2   
    36   20   21 2   
    37   20   22 1   
    38   22   23 1   
    39   22   42 1   
    40   23   24 2   
    41   24   25 1   
    42   24   43 1   
    43   25   44 1   
    44   26   27 1   
    45   26   28 1   
    46   26   29 1   
    47   27   45 1   
    48   27   46 1   
    49   27   47 1   
    50   28   48 1   
    51   28   49 1   
    52   28   50 1   
    53   29   51 1   
    54   29   52 1   
    55   29   53 1   
    56   30   31 1   
    57   31   54 1   
    58   31   55 1   
    59   31   56 1   
    60   32   57 1   
    61   32   58 1   
    62   32   59 1   
@<TRIPOS>SUBSTRUCTURE
     1 28V         1 TEMP              0 ****  ****    0 ROOT
