@<TRIPOS>MOLECULE
28V
   59    61     1     0     0
SMALL
bcc


@<TRIPOS>ATOM
      1 S1         -7.6230    0.4430   -0.2780 s6        1 28V      1.469900
      2 O2         -8.8430    0.3520    0.4220 o         1 28V     -0.648800
      3 O3         -7.3840    1.6290   -0.9930 o         1 28V     -0.648800
      4 N4         -6.4320    0.1150    0.7850 nh        1 28V     -0.780500
      5 C5         -5.0450    0.1590    0.5760 ca        1 28V      0.163600
      6 C6         -4.4740    0.9720   -0.4290 ca        1 28V     -0.175500
      7 C7         -3.0980    0.9860   -0.6170 ca        1 28V     -0.090500
      8 C8         -2.2440    0.2070    0.1790 ca        1 28V     -0.077800
      9 C9         -2.8090   -0.5830    1.1880 ca        1 28V     -0.090500
     10 C10        -4.1840   -0.6140    1.3880 ca        1 28V     -0.175500
     11 C11        -0.8110    0.2590   -0.0530 ce        1 28V     -0.109200
     12 C12         0.0580   -0.6900    0.3330 cf        1 28V     -0.101200
     13 C13         1.4960   -0.6170    0.1220 ca        1 28V     -0.089800
     14 C14         2.2560   -1.7980   -0.0340 ca        1 28V      0.121100
     15 C15         3.6640   -1.7600   -0.1150 ca        1 28V     -0.068300
     16 C16         4.2820   -0.5040   -0.1040 ca        1 28V     -0.081000
     17 C17         3.5440    0.6820   -0.0030 ca        1 28V     -0.068800
     18 C18         2.1520    0.6170    0.1290 ca        1 28V     -0.098000
     19 C19         4.2000    1.9830   -0.0340 cc        1 28V     -0.090400
     20 C20         5.5300    2.1440    0.5950 c         1 28V      0.669700
     21 O21         6.2080    1.2640    1.1520 o         1 28V     -0.618500
     22 N22         6.0770    3.4550    0.5420 n         1 28V     -0.286900
     23 N24         5.5060    4.4980   -0.0190 nc        1 28V     -0.417300
     24 C25         4.3220    4.3380   -0.5910 cd        1 28V      0.321500
     25 C26         3.6250    3.0750   -0.6210 cd        1 28V     -0.177600
     26 C27         4.4940   -3.0200   -0.1650 c3        1 28V      0.002300
     27 C28         5.9900   -2.7250   -0.2540 c3        1 28V     -0.090767
     28 C29         4.2580   -3.8300    1.1080 c3        1 28V     -0.090767
     29 C30         4.1170   -3.8610   -1.3810 c3        1 28V     -0.090767
     30 O31         1.6050   -3.0270   -0.0020 os        1 28V     -0.345900
     31 C32         0.8090   -3.2910   -1.1590 c3        1 28V      0.112700
     32 C33        -7.5330   -0.8520   -1.3740 c3        1 28V     -0.371300
     33 H1         -6.6760   -0.1890    1.7040 hn        1 28V      0.458800
     34 H2         -5.1080    1.6170   -1.0630 ha        1 28V      0.152500
     35 H3         -2.6730    1.6270   -1.4060 ha        1 28V      0.139500
     36 H4         -2.1600   -1.1870    1.8410 ha        1 28V      0.139500
     37 H5         -4.5950   -1.2420    2.1940 ha        1 28V      0.152500
     38 H6         -0.4610    1.1510   -0.6030 ha        1 28V      0.126000
     39 H7         -0.2810   -1.6050    0.8530 ha        1 28V      0.141000
     40 H8          5.3810   -0.4200   -0.1620 ha        1 28V      0.165000
     41 H9          1.5680    1.5400    0.2640 ha        1 28V      0.136000
     42 H10         6.9700    3.6290    0.9690 hn        1 28V      0.360500
     43 H11         3.8780    5.2340   -1.0560 h4        1 28V      0.050800
     44 H12         2.6460    3.0240   -1.1180 ha        1 28V      0.154000
     45 H13         6.3340   -2.1380    0.6320 hc        1 28V      0.040144
     46 H14         6.5580   -3.6880   -0.2720 hc        1 28V      0.040144
     47 H15         6.2280   -2.1620   -1.1870 hc        1 28V      0.040144
     48 H16         3.1780   -4.0950    1.2120 hc        1 28V      0.040144
     49 H17         4.8550   -4.7730    1.0690 hc        1 28V      0.040144
     50 H18         4.5720   -3.2420    2.0020 hc        1 28V      0.040144
     51 H19         4.0820   -3.2270   -2.2990 hc        1 28V      0.040144
     52 H20         4.8730   -4.6690   -1.5340 hc        1 28V      0.040144
     53 H21         3.1210   -4.3400   -1.2310 hc        1 28V      0.040144
     54 H22        -0.0430   -2.5720   -1.2240 h1        1 28V      0.043700
     55 H23         1.4310   -3.2340   -2.0860 h1        1 28V      0.043700
     56 H24         0.4400   -4.3330   -0.9910 h1        1 28V      0.043700
     57 H25        -6.5230   -0.9920   -1.8300 h1        1 28V      0.118700
     58 H26        -7.8190   -1.8330   -0.9220 h1        1 28V      0.118700
     59 H27        -8.2370   -0.6870   -2.2300 h1        1 28V      0.118700
@<TRIPOS>BOND
     1    1    2 2   
     2    1    3 2   
     3    1    4 1   
     4    1   32 1   
     5    4    5 1   
     6    4   33 1   
     7    5    6 ar  
     8    5   10 ar  
     9    6    7 ar  
    10    6   34 1   
    11    7    8 ar  
    12    7   35 1   
    13    8    9 ar  
    14    8   11 1   
    15    9   10 ar  
    16    9   36 1   
    17   10   37 1   
    18   11   12 2   
    19   11   38 1   
    20   12   13 1   
    21   12   39 1   
    22   13   14 ar  
    23   13   18 ar  
    24   14   15 ar  
    25   14   30 1   
    26   15   16 ar  
    27   15   26 1   
    28   16   17 ar  
    29   16   40 1   
    30   17   18 ar  
    31   17   19 1   
    32   18   41 1   
    33   19   20 1   
    34   19   25 2   
    35   20   21 2   
    36   20   22 1   
    37   22   23 1   
    38   22   42 1   
    39   23   24 2   
    40   24   25 1   
    41   24   43 1   
    42   25   44 1   
    43   26   27 1   
    44   26   28 1   
    45   26   29 1   
    46   27   45 1   
    47   27   46 1   
    48   27   47 1   
    49   28   48 1   
    50   28   49 1   
    51   28   50 1   
    52   29   51 1   
    53   29   52 1   
    54   29   53 1   
    55   30   31 1   
    56   31   54 1   
    57   31   55 1   
    58   31   56 1   
    59   32   57 1   
    60   32   58 1   
    61   32   59 1   
@<TRIPOS>SUBSTRUCTURE
     1 28V         1 TEMP              0 ****  ****    0 ROOT
