@<TRIPOS>MOLECULE
28V
   59    53     1     0     0
SMALL
bcc


@<TRIPOS>ATOM
      1 S1          4.0230   -2.5510    4.6270 ss        1 28V      2.825000
      2 O2          4.0540   -3.9560    4.3450 o         1 28V     -0.929500
      3 O3          5.0420   -2.0700    3.7500 o         1 28V     -0.929500
      4 N4          2.5650   -1.9000    4.2580 n2        1 28V     -0.832000
      5 C5          2.0260   -2.0430    2.9340 c2        1 28V      0.074000
      6 C6          2.7780   -1.6320    1.8240 c1        1 28V     -0.181000
      7 C7          2.3090   -1.8780    0.5340 c1        1 28V     -0.088000
      8 C8          1.0780   -2.5400    0.3480 c1        1 28V     -0.067000
      9 C9          0.3360   -2.9450    1.4540 c1        1 28V     -0.093000
     10 C10         0.8110   -2.6960    2.7490 c2        1 28V     -0.164000
     11 C11         0.6900   -3.0520   -1.0550 c2        1 28V     -0.123000
     12 C12        -0.0710   -2.2760   -1.8790 c1        1 28V     -0.108000
     13 C13        -0.5390   -0.8930   -1.4130 c1        1 28V     -0.077000
     14 C14        -0.2560    0.2210   -2.1980 c2        1 28V      0.077000
     15 C15        -0.8970    1.4440   -1.9430 c1        1 28V     -0.066000
     16 C16        -1.8220    1.5460   -0.8990 c1        1 28V     -0.103000
     17 C17        -2.1060    0.4370   -0.1140 c1        1 28V     -0.062000
     18 C18        -1.4630   -0.7920   -0.3690 c1        1 28V     -0.066000
     19 C19        -3.1140    0.5490    1.0250 c2        1 28V     -0.078000
     20 C20        -4.5560   -0.0760    0.6420 c2        1 28V      0.307000
     21 O21        -5.3070   -0.1470    1.5970 o         1 28V     -0.342000
     22 N22        -5.1520    0.5480   -0.2720 n         1 28V     -0.269000
     23 N24        -5.2150    2.0660   -0.0630 n2        1 28V      0.001000
     24 C25        -4.0840    2.7090    0.5570 c1        1 28V     -0.182000
     25 C26        -3.1520    1.7920    1.4040 c1        1 28V     -0.096000
     26 C27        -0.6970    2.6320   -2.9210 c3        1 28V     -0.005000
     27 C28        -1.9710    3.4240   -3.0220 c3        1 28V     -0.207667
     28 C29         0.4490    3.5520   -2.4000 c3        1 28V     -0.207667
     29 C30        -0.3290    2.0950   -4.2960 c3        1 28V     -0.207667
     30 O31         0.6340    0.1120   -3.2690 os        1 28V     -0.229000
     31 C32         1.9670   -0.1170   -2.8830 c3        1 28V     -0.077000
     32 C33         4.4330   -2.2220    6.3500 c2        1 28V     -0.949000
     33 H1          2.0790   -1.4960    4.9000 hn        1 28V      0.254000
     34 H2          3.6500   -1.1620    1.9580 ha        1 28V      0.168000
     35 H3          2.8360   -1.5900   -0.2450 ha        1 28V      0.140000
     36 H4         -0.5280   -3.4100    1.3260 ha        1 28V      0.147000
     37 H5          0.2890   -2.9810    3.5220 ha        1 28V      0.137000
     38 H6          0.9860   -3.9310   -1.3510 ha        1 28V      0.134000
     39 H7         -0.3200   -2.6040   -2.7780 ha        1 28V      0.140000
     40 H8         -2.2670    2.3980   -0.7220 ha        1 28V      0.137000
     41 H9         -1.6670   -1.5860    0.1940 ha        1 28V      0.166000
     42 H10        -5.9350    0.1910   -0.6120 hn        1 28V      0.273000
     43 H11        -4.1330    3.6820    0.7430 ha        1 28V      0.180000
     44 H12        -2.3710    2.1810    1.8500 ha        1 28V      0.155000
     45 H13        -2.0310    4.0360   -2.2750 hc        1 28V      0.078444
     46 H14        -1.9720    3.9390   -3.8720 hc        1 28V      0.078444
     47 H15        -2.7320    2.8180   -3.0090 hc        1 28V      0.078444
     48 H16         0.7080    4.1830   -3.1070 hc        1 28V      0.078444
     49 H17         0.1340    4.0530   -1.6100 hc        1 28V      0.078444
     50 H18         1.2220    3.0040   -2.1510 hc        1 28V      0.078444
     51 H19         0.5900    1.7830   -4.2860 hc        1 28V      0.078444
     52 H20        -0.4250    2.8070   -4.9610 hc        1 28V      0.078444
     53 H21        -0.9300    1.3430   -4.5290 hc        1 28V      0.078444
     54 H22         2.5660    0.3150   -3.5180 h1        1 28V      0.083000
     55 H23         2.1430   -1.0850   -2.8720 h1        1 28V      0.083000
     56 H24         2.1170    0.2530   -1.9860 h1        1 28V      0.083000
     57 H25         5.3290   -2.5810    6.5500 ha        1 28V      0.157000
     58 H26         3.7740   -2.6500    6.9280 ha        1 28V      0.157000
     59 H27         4.4260   -1.2500    6.5090 ha        1 28V      0.157000
@<TRIPOS>BOND
     1    1    2 1   
     2    1    3 1   
     3    4    5 1   
     4    4   33 1   
     5    5    6 1   
     6    5   10 1   
     7    6   34 1   
     8    7    8 1   
     9    7   35 1   
    10    8   11 1   
    11    9   10 1   
    12    9   36 1   
    13   10   37 1   
    14   11   12 1   
    15   11   38 1   
    16   12   39 1   
    17   13   14 1   
    18   13   18 1   
    19   14   15 1   
    20   14   30 1   
    21   15   26 1   
    22   16   17 1   
    23   16   40 1   
    24   17   19 1   
    25   18   41 1   
    26   19   20 1   
    27   19   25 1   
    28   20   21 1   
    29   20   22 1   
    30   22   23 1   
    31   22   42 1   
    32   23   24 1   
    33   24   43 1   
    34   25   44 1   
    35   26   27 1   
    36   26   28 1   
    37   26   29 1   
    38   27   45 1   
    39   27   46 1   
    40   27   47 1   
    41   28   48 1   
    42   28   49 1   
    43   28   50 1   
    44   29   51 1   
    45   29   52 1   
    46   29   53 1   
    47   30   31 1   
    48   31   54 1   
    49   31   55 1   
    50   31   56 1   
    51   32   57 1   
    52   32   58 1   
    53   32   59 1   
@<TRIPOS>SUBSTRUCTURE
     1 28V         1 TEMP              0 ****  ****    0 ROOT
