@<TRIPOS>MOLECULE
28V
   59    61     1     0     0
SMALL
bcc


@<TRIPOS>ATOM
      1 S1          0.2840   -0.0130   -0.0080 s6        1 28V      1.469900
      2 O2          1.6720    0.2240    0.0530 o         1 28V     -0.648800
      3 O3         -0.3510   -0.3970    1.1850 o         1 28V     -0.648800
      4 N4         -0.4010    1.3090   -0.6710 nh        1 28V     -0.780500
      5 C5         -1.7660    1.5740   -0.8660 ca        1 28V      0.163600
      6 C6         -2.7590    0.9640   -0.0660 ca        1 28V     -0.175500
      7 C7         -4.1020    1.2410   -0.2890 ca        1 28V     -0.090500
      8 C8         -4.5070    2.1270   -1.2990 ca        1 28V     -0.077800
      9 C9         -3.5210    2.7460   -2.0780 ca        1 28V     -0.090500
     10 C10        -2.1730    2.4780   -1.8720 ca        1 28V     -0.175500
     11 C11        -5.9230    2.3870   -1.4920 ce        1 28V     -0.109200
     12 C12        -6.4620    2.8690   -2.6230 cf        1 28V     -0.101200
     13 C13        -7.8780    3.1550   -2.7980 ca        1 28V     -0.089800
     14 C14        -8.4740    3.0580   -4.0760 ca        1 28V      0.121100
     15 C15        -9.8120    3.4480   -4.2940 ca        1 28V     -0.068300
     16 C16       -10.5550    3.8730   -3.1860 ca        1 28V     -0.081000
     17 C17        -9.9990    3.9260   -1.9010 ca        1 28V     -0.068800
     18 C18        -8.6540    3.5830   -1.7180 ca        1 28V     -0.098000
     19 C19       -10.7970    4.3310   -0.7500 cc        1 28V     -0.090400
     20 C20       -11.8310    5.3780   -0.9130 c         1 28V      0.669700
     21 O21       -12.1430    5.9690   -1.9610 o         1 28V     -0.618500
     22 N22       -12.5370    5.7290    0.2700 n         1 28V     -0.286900
     23 N24       -12.3480    5.1960    1.4580 nc        1 28V     -0.417300
     24 C25       -11.4310    4.2500    1.5870 cd        1 28V      0.321500
     25 C26       -10.6210    3.7820    0.4880 cd        1 28V     -0.177600
     26 C27       -10.4260    3.4590   -5.6730 c3        1 28V      0.002300
     27 C28       -11.8830    3.9140   -5.6560 c3        1 28V     -0.090767
     28 C29        -9.6490    4.4290   -6.5620 c3        1 28V     -0.090767
     29 C30       -10.3860    2.0630   -6.2870 c3        1 28V     -0.090767
     30 O31        -7.6900    2.6670   -5.1570 os        1 28V     -0.345900
     31 C32        -7.3220    1.2860   -5.1360 c3        1 28V      0.112700
     32 C33        -0.0050   -1.2240   -1.1640 c3        1 28V     -0.371300
     33 H1          0.1880    2.0310   -1.0260 hn        1 28V      0.458800
     34 H2         -2.4820    0.2780    0.7530 ha        1 28V      0.152500
     35 H3         -4.8600    0.7550    0.3450 ha        1 28V      0.139500
     36 H4         -3.8110    3.4630   -2.8630 ha        1 28V      0.139500
     37 H5         -1.4240    2.9870   -2.4990 ha        1 28V      0.152500
     38 H6         -6.5620    2.1420   -0.6250 ha        1 28V      0.126000
     39 H7         -5.8400    3.0870   -3.5110 ha        1 28V      0.141000
     40 H8        -11.6050    4.1910   -3.3030 ha        1 28V      0.165000
     41 H9         -8.1930    3.6750   -0.7230 ha        1 28V      0.136000
     42 H10       -13.2380    6.4460    0.2250 hn        1 28V      0.360500
     43 H11       -11.3050    3.8250    2.5960 h4        1 28V      0.050800
     44 H12        -9.8810    2.9910    0.6780 ha        1 28V      0.154000
     45 H13       -12.5080    3.2190   -5.0460 hc        1 28V      0.040144
     46 H14       -11.9730    4.9490   -5.2470 hc        1 28V      0.040144
     47 H15       -12.2830    3.9190   -6.7000 hc        1 28V      0.040144
     48 H16       -10.0860    4.4290   -7.5890 hc        1 28V      0.040144
     49 H17        -9.7090    5.4630   -6.1470 hc        1 28V      0.040144
     50 H18        -8.5760    4.1300   -6.6290 hc        1 28V      0.040144
     51 H19        -9.3440    1.7970   -6.5860 hc        1 28V      0.040144
     52 H20       -10.7610    1.3050   -5.5600 hc        1 28V      0.040144
     53 H21       -11.0280    2.0300   -7.2010 hc        1 28V      0.040144
     54 H22        -6.7770    1.1470   -6.1030 h1        1 28V      0.043700
     55 H23        -8.2300    0.6370   -5.0940 h1        1 28V      0.043700
     56 H24        -6.6540    1.0690   -4.2680 h1        1 28V      0.043700
     57 H25         0.3250   -2.2200   -0.7740 h1        1 28V      0.118700
     58 H26        -1.0830   -1.3420   -1.4370 h1        1 28V      0.118700
     59 H27         0.5520   -1.0640   -2.1190 h1        1 28V      0.118700
@<TRIPOS>BOND
     1    1    2 2   
     2    1    3 2   
     3    1    4 1   
     4    1   32 1   
     5    4    5 1   
     6    4   33 1   
     7    5    6 ar  
     8    5   10 ar  
     9    6    7 ar  
    10    6   34 1   
    11    7    8 ar  
    12    7   35 1   
    13    8    9 ar  
    14    8   11 1   
    15    9   10 ar  
    16    9   36 1   
    17   10   37 1   
    18   11   12 2   
    19   11   38 1   
    20   12   13 1   
    21   12   39 1   
    22   13   14 ar  
    23   13   18 ar  
    24   14   15 ar  
    25   14   30 1   
    26   15   16 ar  
    27   15   26 1   
    28   16   17 ar  
    29   16   40 1   
    30   17   18 ar  
    31   17   19 1   
    32   18   41 1   
    33   19   20 1   
    34   19   25 2   
    35   20   21 2   
    36   20   22 1   
    37   22   23 1   
    38   22   42 1   
    39   23   24 2   
    40   24   25 1   
    41   24   43 1   
    42   25   44 1   
    43   26   27 1   
    44   26   28 1   
    45   26   29 1   
    46   27   45 1   
    47   27   46 1   
    48   27   47 1   
    49   28   48 1   
    50   28   49 1   
    51   28   50 1   
    52   29   51 1   
    53   29   52 1   
    54   29   53 1   
    55   30   31 1   
    56   31   54 1   
    57   31   55 1   
    58   31   56 1   
    59   32   57 1   
    60   32   58 1   
    61   32   59 1   
@<TRIPOS>SUBSTRUCTURE
     1 28V         1 TEMP              0 ****  ****    0 ROOT
