@<TRIPOS>MOLECULE
28V
   59    61     1     0     0
SMALL
bcc


@<TRIPOS>ATOM
      1 S1          0.2860   -0.0130   -0.0150 s6        1 28V      1.469900
      2 O2          1.6740    0.2270    0.0500 o         1 28V     -0.648800
      3 O3         -0.3500   -0.4060    1.1750 o         1 28V     -0.648800
      4 N4         -0.4010    1.3120   -0.6700 nu        1 28V     -0.780500
      5 C5         -1.7660    1.5760   -0.8640 ca        1 28V      0.163600
      6 C6         -2.7590    0.9590   -0.0700 ca        1 28V     -0.175500
      7 C7         -4.1020    1.2340   -0.2930 ca        1 28V     -0.090500
      8 C8         -4.5080    2.1260   -1.2980 ca        1 28V     -0.077800
      9 C9         -3.5220    2.7520   -2.0710 ca        1 28V     -0.090500
     10 C10        -2.1740    2.4860   -1.8650 ca        1 28V     -0.175500
     11 C11        -5.9230    2.3840   -1.4910 ce        1 28V     -0.109200
     12 C12        -6.4630    2.8720   -2.6200 cf        1 28V     -0.101200
     13 C13        -7.8790    3.1550   -2.7950 ca        1 28V     -0.089800
     14 C14        -8.4730    3.0640   -4.0740 ca        1 28V      0.121100
     15 C15        -9.8120    3.4520   -4.2930 ca        1 28V     -0.068300
     16 C16       -10.5560    3.8690   -3.1830 ca        1 28V     -0.081000
     17 C17       -10.0030    3.9170   -1.8970 ca        1 28V     -0.068800
     18 C18        -8.6580    3.5760   -1.7140 ca        1 28V     -0.098000
     19 C19       -10.8030    4.3140   -0.7460 cc        1 28V     -0.090400
     20 C20       -11.8390    5.3590   -0.9040 c         1 28V      0.669700
     21 O21       -12.1510    5.9550   -1.9490 o         1 28V     -0.618500
     22 N22       -12.5470    5.7020    0.2800 ns        1 28V     -0.286900
     23 N24       -12.3590    5.1640    1.4650 nc        1 28V     -0.417300
     24 C25       -11.4390    4.2200    1.5910 cd        1 28V      0.321500
     25 C26       -10.6270    3.7590    0.4910 cd        1 28V     -0.177600
     26 C27       -10.4230    3.4690   -5.6720 c3        1 28V      0.002300
     27 C28       -11.8820    3.9210   -5.6550 c3        1 28V     -0.090767
     28 C29        -9.6480    4.4460   -6.5550 c3        1 28V     -0.090767
     29 C30       -10.3800    2.0760   -6.2940 c3        1 28V     -0.090767
     30 O31        -7.6870    2.6800   -5.1570 os        1 28V     -0.345900
     31 C32        -7.3150    1.3000   -5.1430 c3        1 28V      0.112700
     32 C33         0.0010   -1.2160   -1.1790 c3        1 28V     -0.371300
     33 H1          0.1870    2.0380   -1.0190 hn        1 28V      0.458800
     34 H2         -2.4820    0.2680    0.7450 ha        1 28V      0.152500
     35 H3         -4.8600    0.7420    0.3370 ha        1 28V      0.139500
     36 H4         -3.8120    3.4740   -2.8510 ha        1 28V      0.139500
     37 H5         -1.4250    3.0000   -2.4880 ha        1 28V      0.152500
     38 H6         -6.5640    2.1320   -0.6270 ha        1 28V      0.126000
     39 H7         -5.8390    3.0960   -3.5060 ha        1 28V      0.141000
     40 H8        -11.6070    4.1860   -3.3000 ha        1 28V      0.165000
     41 H9         -8.1980    3.6630   -0.7180 ha        1 28V      0.136000
     42 H10       -13.2510    6.4180    0.2380 hn        1 28V      0.360500
     43 H11       -11.3140    3.7890    2.5980 h4        1 28V      0.050800
     44 H12        -9.8850    2.9690    0.6770 ha        1 28V      0.154000
     45 H13       -12.5060    3.2210   -5.0500 hc        1 28V      0.040144
     46 H14       -12.2800    3.9310   -6.6990 hc        1 28V      0.040144
     47 H15       -11.9740    4.9540   -5.2400 hc        1 28V      0.040144
     48 H16        -9.7100    5.4780   -6.1340 hc        1 28V      0.040144
     49 H17       -10.0830    4.4500   -7.5830 hc        1 28V      0.040144
     50 H18        -8.5740    4.1490   -6.6220 hc        1 28V      0.040144
     51 H19        -9.3370    1.8140   -6.5920 hc        1 28V      0.040144
     52 H20       -11.0210    2.0480   -7.2080 hc        1 28V      0.040144
     53 H21       -10.7550    1.3140   -5.5710 hc        1 28V      0.040144
     54 H22        -6.7690    1.1670   -6.1090 h1        1 28V      0.043700
     55 H23        -6.6480    1.0800   -4.2740 h1        1 28V      0.043700
     56 H24        -8.2220    0.6490   -5.1060 h1        1 28V      0.043700
     57 H25         0.5600   -1.0490   -2.1320 h1        1 28V      0.118700
     58 H26         0.3330   -2.2150   -0.7950 h1        1 28V      0.118700
     59 H27        -1.0750   -1.3340   -1.4550 h1        1 28V      0.118700
@<TRIPOS>BOND
     1    1    2 2   
     2    1    3 2   
     3    1    4 1   
     4    1   32 1   
     5    4    5 1   
     6    4   33 1   
     7    5    6 ar  
     8    5   10 ar  
     9    6    7 ar  
    10    6   34 1   
    11    7    8 ar  
    12    7   35 1   
    13    8    9 ar  
    14    8   11 1   
    15    9   10 ar  
    16    9   36 1   
    17   10   37 1   
    18   11   12 2   
    19   11   38 1   
    20   12   13 1   
    21   12   39 1   
    22   13   14 ar  
    23   13   18 ar  
    24   14   15 ar  
    25   14   30 1   
    26   15   16 ar  
    27   15   26 1   
    28   16   17 ar  
    29   16   40 1   
    30   17   18 ar  
    31   17   19 1   
    32   18   41 1   
    33   19   20 1   
    34   19   25 2   
    35   20   21 2   
    36   20   22 1   
    37   22   23 1   
    38   22   42 1   
    39   23   24 2   
    40   24   25 1   
    41   24   43 1   
    42   25   44 1   
    43   26   27 1   
    44   26   28 1   
    45   26   29 1   
    46   27   45 1   
    47   27   46 1   
    48   27   47 1   
    49   28   48 1   
    50   28   49 1   
    51   28   50 1   
    52   29   51 1   
    53   29   52 1   
    54   29   53 1   
    55   30   31 1   
    56   31   54 1   
    57   31   55 1   
    58   31   56 1   
    59   32   57 1   
    60   32   58 1   
    61   32   59 1   
@<TRIPOS>SUBSTRUCTURE
     1 28V         1 TEMP              0 ****  ****    0 ROOT
