@<TRIPOS>MOLECULE
28W
   63    54     1     0     0
SMALL
bcc


@<TRIPOS>ATOM
      1 CAL         1.5390    2.7110   -3.2890 c1        1 28W     -0.122000
      2 CAJ         1.7930    2.8050   -4.6670 c1        1 28W     -0.122667
      3 CAI         3.0970    2.7630   -5.1380 c1        1 28W     -0.122667
      4 CAK         4.1570    2.6270   -4.2420 c1        1 28W     -0.122667
      5 CAM         3.9060    2.5340   -2.8740 c1        1 28W     -0.122667
      6 CBB         2.5880    2.5760   -2.4000 c1        1 28W     -0.114000
      7 CAQ         2.3080    2.5570   -0.8740 c3        1 28W      0.001000
      8 NAU         1.8740    1.1880   -0.4660 n3        1 28W     -0.356000
      9 CAZ         0.9770    1.0120    0.6900 c1        1 28W      0.262000
     10 OAE         0.6990    1.9640    1.3940 o         1 28W     -0.347000
     11 CBI         0.3040   -0.3450    0.9330 c2        1 28W      0.042000
     12 N          -1.0860   -0.2470    0.6400 n3        1 28W     -0.313000
     13 CA         -1.3840   -0.9980   -0.5440 c3        1 28W     -0.016000
     14 CB         -2.8880   -1.2630   -0.6160 c3        1 28W     -0.168000
     15 CG         -3.2730   -1.6270   -2.0530 c3        1 28W     -0.115000
     16 CD2        -3.9380   -2.9770   -2.0690 c3        1 28W     -0.210000
     17 CD1        -4.2470   -0.5690   -2.6110 c3        1 28W     -0.210000
     18 C          -0.9510   -0.2150   -1.7630 c2        1 28W      0.199000
     19 O          -0.1340   -0.6800   -2.5220 o         1 28W     -0.348000
     20 NAT        -1.5450    1.0430   -2.0450 n         1 28W     -0.188000
     21 OAG        -1.5040    1.5500   -3.3180 oh        1 28W     -0.245000
     22 CBD         0.4830   -0.7540    2.3870 c2        1 28W     -0.070000
     23 CBF         1.2520   -1.8050    2.8550 c1        1 28W     -0.092000
     24 CAO         1.9810   -2.8110    2.1920 c1        1 28W     -0.122667
     25 CAN         2.6530   -3.7870    2.9290 c1        1 28W     -0.122667
     26 CBA         2.6030   -3.7660    4.3210 c1        1 28W     -0.033000
     27 CLH         3.6300   -4.8850    5.2210 cl        1 28W     -0.014000
     28 CAP         1.8820   -2.7710    4.9790 c1        1 28W     -0.144000
     29 CBE         1.2030   -1.7850    4.2350 c1        1 28W      0.022000
     30 NAW         0.3990   -0.7140    4.6220 n1        1 28W     -0.195000
     31 CBC        -0.0420   -0.0820    3.4890 c1        1 28W     -0.054000
     32 CAX        -0.8820    1.1420    3.8900 c1        1 28W      0.304000
     33 OAC        -1.3080    1.8820    3.0420 o         1 28W     -0.286000
     34 NAS        -1.1530    1.4010    5.2640 n3        1 28W     -0.194000
     35 OAF        -1.6270    2.6220    5.6460 oh        1 28W     -0.242000
     36 H1          0.6090    2.7410   -2.9540 ha        1 28W      0.158000
     37 H2          1.0360    2.9020   -5.3070 ha        1 28W      0.138000
     38 H3          3.2730    2.8290   -6.1020 ha        1 28W      0.138000
     39 H4          5.0890    2.5970   -4.5790 ha        1 28W      0.138000
     40 H5          4.6540    2.4370   -2.2420 ha        1 28W      0.138000
     41 H6          1.6060    3.1940   -0.6670 h1        1 28W      0.108500
     42 H7          3.1380    2.8040   -0.3790 h1        1 28W      0.108500
     43 H8          2.2200    0.4580   -0.8850 hn        1 28W      0.233000
     44 H9          0.7010   -0.9980    0.3700 h4        1 28W      0.128000
     45 H10        -1.3090    0.6250    0.5120 hn        1 28W      0.211000
     46 H12        -0.9120   -1.8360   -0.5180 h1        1 28W      0.126000
     47 H13        -3.1190   -2.0070   -0.0160 hc        1 28W      0.103000
     48 H14        -3.3710   -0.4640   -0.3430 hc        1 28W      0.103000
     49 H15        -2.4680   -1.6540   -2.6100 hc        1 28W      0.085000
     50 H16        -4.7880   -2.9320   -1.5700 hc        1 28W      0.077833
     51 H17        -4.1160   -3.2390   -2.9890 hc        1 28W      0.077833
     52 H18        -3.3510   -3.6330   -1.6530 hc        1 28W      0.077833
     53 H19        -3.8210    0.3110   -2.5860 hc        1 28W      0.077833
     54 H20        -4.4780   -0.7940   -3.5380 hc        1 28W      0.077833
     55 H21        -5.0680   -0.5540   -2.0610 hc        1 28W      0.077833
     56 H22        -1.9610    1.5180   -1.3710 hn        1 28W      0.220000
     57 H23        -1.7240    2.4220   -3.3000 ho        1 28W      0.240000
     58 H24         2.0150   -2.8270    1.2030 ha        1 28W      0.138000
     59 H25         3.2360   -4.4460    2.4640 ha        1 28W      0.138000
     60 H26         1.8470   -2.7570    5.9470 ha        1 28W      0.152000
     61 H27         0.1950   -0.4690    5.5020 DU        1 28W      0.260000
     62 H28        -0.9830    0.7510    5.9000 hn        1 28W      0.217000
     63 H29        -1.5160    2.7220    6.5360 ho        1 28W      0.233000
@<TRIPOS>BOND
     1    1    6 1   
     2    1   36 1   
     3    2    3 1   
     4    2   37 1   
     5    3   38 1   
     6    4    5 1   
     7    4   39 1   
     8    5   40 1   
     9    6    7 1   
    10    7    8 1   
    11    7   41 1   
    12    7   42 1   
    13    8    9 1   
    14    8   43 1   
    15    9   10 1   
    16   11   12 1   
    17   11   22 1   
    18   11   44 1   
    19   12   13 1   
    20   12   45 1   
    21   13   14 1   
    22   13   18 1   
    23   13   46 1   
    24   14   15 1   
    25   14   47 1   
    26   14   48 1   
    27   15   16 1   
    28   15   17 1   
    29   15   49 1   
    30   16   50 1   
    31   16   51 1   
    32   16   52 1   
    33   17   53 1   
    34   17   54 1   
    35   17   55 1   
    36   18   19 1   
    37   18   20 1   
    38   20   21 1   
    39   20   56 1   
    40   21   57 1   
    41   22   23 1   
    42   22   31 1   
    43   23   29 1   
    44   24   25 1   
    45   24   58 1   
    46   25   59 1   
    47   26   28 1   
    48   28   60 1   
    49   30   31 1   
    50   32   33 1   
    51   32   34 1   
    52   34   35 1   
    53   34   62 1   
    54   35   63 1   
@<TRIPOS>SUBSTRUCTURE
     1 28W         1 TEMP              0 ****  ****    0 ROOT
