@<TRIPOS>MOLECULE
28W
   67    69     1     0     0
SMALL
bcc


@<TRIPOS>ATOM
      1 CAL         0.1690   -0.9550   -0.1520 ca        1 28W     -0.081500
      2 CAJ         1.5550   -0.9850   -0.2600 ca        1 28W     -0.113500
      3 CAI         2.3450   -1.1410    0.8850 ca        1 28W     -0.015000
      4 CAK         1.7410   -1.2730    2.1410 ca        1 28W     -0.113500
      5 CAM         0.3570   -1.2450    2.2570 ca        1 28W     -0.081500
      6 CBB        -0.4430   -1.0790    1.1100 ca        1 28W     -0.248300
      7 CAQ        -1.8990   -0.9290    1.2360 c3        1 28W      0.223100
      8 NAU        -2.5590   -2.3330    1.1590 n4        1 28W     -0.677800
      9 CAZ        -4.0090   -2.2980    0.8950 c         1 28W      0.503100
     10 OAE        -4.4850   -1.4620    0.1360 o         1 28W     -0.396100
     11 CBI        -4.8840   -3.3650    1.6030 c3        1 28W      0.148700
     12 N          -6.3210   -3.3010    1.1230 n4        1 28W     -0.780000
     13 CA         -6.6510   -4.2200   -0.0410 c3        1 28W      0.085500
     14 CB         -6.7510   -5.6880    0.4140 c3        1 28W     -0.123400
     15 CG         -7.1260   -6.6620   -0.6990 c3        1 28W     -0.065700
     16 CD2        -6.1400   -6.6490   -1.8450 c3        1 28W     -0.119100
     17 CD1        -7.2070   -8.0610   -0.1040 c3        1 28W     -0.119100
     18 C          -8.0050   -3.7900   -0.6280 c         1 28W      0.533100
     19 O          -8.9540   -3.3660    0.0050 o         1 28W     -0.337100
     20 NAT        -8.2030   -3.9080   -2.1370 n4        1 28W     -0.435300
     21 OAG        -7.1180   -3.3530   -2.7280 oh        1 28W     -0.386300
     22 CBD        -4.7670   -3.2540    3.0790 cc        1 28W     -0.173400
     23 CBF        -3.9900   -4.1790    3.8280 ca        1 28W     -0.093800
     24 CAO        -3.2120   -5.3170    3.5090 ca        1 28W     -0.154000
     25 CAN        -2.5980   -6.0190    4.5150 ca        1 28W     -0.040000
     26 CBA        -2.7150   -5.6270    5.8950 ca        1 28W      0.094400
     27 CLH        -1.9360   -6.5400    7.0530 cl        1 28W      0.107600
     28 CAP        -3.4610   -4.5170    6.2590 ca        1 28W     -0.150000
     29 CBE        -4.1040   -3.7910    5.2310 ca        1 28W      0.048800
     30 NAW        -4.9030   -2.6690    5.3080 na        1 28W     -0.078400
     31 CBC        -5.3400   -2.3220    4.0220 cd        1 28W     -0.200300
     32 CAX        -6.2290   -1.2360    3.7210 c         1 28W      0.610300
     33 OAC        -6.7420   -0.9940    2.6250 o         1 28W     -0.521100
     34 NAS        -6.6260   -0.2180    4.8010 n4        1 28W     -0.435300
     35 OAF        -7.0270   -0.8900    5.9040 oh        1 28W     -0.382300
     36 H1         -0.4440   -0.7990   -1.0550 ha        1 28W      0.136000
     37 H2          2.0360   -0.8670   -1.2480 ha        1 28W      0.187000
     38 H3          3.4490   -1.1490    0.7980 ha        1 28W      0.195000
     39 H4          2.3710   -1.3830    3.0420 ha        1 28W      0.187000
     40 H5         -0.1090   -1.3190    3.2510 ha        1 28W      0.136000
     41 H6         -2.2050   -0.4990    2.2280 hx        1 28W      0.111200
     42 H7         -2.3380   -0.3240    0.3910 hx        1 28W      0.111200
     43 H8         -2.3640   -2.8430    2.0320 hn        1 28W      0.477800
     44 H9         -4.4820   -4.3890    1.2980 hx        1 28W      0.155700
     45 H10        -6.9280   -3.5570    1.9210 hn        1 28W      0.489800
     46 H12        -5.8350   -4.0990   -0.8210 hx        1 28W      0.158700
     47 H13        -5.7550   -6.0070    0.8270 hc        1 28W      0.099200
     48 H14        -7.5150   -5.7820    1.2360 hc        1 28W      0.099200
     49 H15        -8.1590   -6.4050   -1.0710 hc        1 28W      0.029700
     50 H16        -5.1240   -6.9630   -1.5000 hc        1 28W      0.071033
     51 H17        -6.0590   -5.6390   -2.3160 hc        1 28W      0.071033
     52 H18        -6.4610   -7.3830   -2.6310 hc        1 28W      0.071033
     53 H19        -7.9500   -8.0980    0.7290 hc        1 28W      0.071033
     54 H20        -6.2120   -8.3890    0.2800 hc        1 28W      0.071033
     55 H21        -7.5310   -8.7860   -0.8940 hc        1 28W      0.071033
     56 H22        -8.2770   -4.9200   -2.4010 hn        1 28W      0.513300
     57 H23        -7.2950   -3.2340   -3.7000 ho        1 28W      0.528000
     58 H24        -3.1140   -5.6530    2.4660 ha        1 28W      0.142000
     59 H25        -1.9950   -6.9200    4.2800 ha        1 28W      0.211000
     60 H26        -3.5580   -4.2130    7.3170 ha        1 28W      0.212000
     61 H27        -5.2370   -2.2680    6.1610 hn        1 28W      0.356700
     62 H28        -5.8070    0.3830    5.0320 hn        1 28W      0.499300
     63 H29        -7.5800   -0.2950    6.4780 ho        1 28W      0.526000
     64 HAU2       -2.0840   -2.8310    0.3850 hn        1 28W      0.477800
     65 H2A        -6.5400   -2.3200    0.8630 hn        1 28W      0.489800
     66 HAT2       -9.0880   -3.4120   -2.4020 hn        1 28W      0.513300
     67 HAS2       -7.3900    0.3810    4.4100 hn        1 28W      0.499300
@<TRIPOS>BOND
     1    1    2 ar  
     2    1    6 ar  
     3    1   36 1   
     4    2    3 ar  
     5    2   37 1   
     6    3    4 ar  
     7    3   38 1   
     8    4    5 ar  
     9    4   39 1   
    10    5    6 ar  
    11    5   40 1   
    12    6    7 1   
    13    7    8 1   
    14    7   41 1   
    15    7   42 1   
    16    8    9 1   
    17    8   43 1   
    18    8   64 1   
    19    9   10 2   
    20    9   11 1   
    21   11   12 1   
    22   11   22 1   
    23   11   44 1   
    24   12   13 1   
    25   12   45 1   
    26   12   65 1   
    27   13   14 1   
    28   13   18 1   
    29   13   46 1   
    30   14   15 1   
    31   14   47 1   
    32   14   48 1   
    33   15   16 1   
    34   15   17 1   
    35   15   49 1   
    36   16   50 1   
    37   16   51 1   
    38   16   52 1   
    39   17   53 1   
    40   17   54 1   
    41   17   55 1   
    42   18   19 2   
    43   18   20 1   
    44   20   21 1   
    45   20   56 1   
    46   20   66 1   
    47   21   57 1   
    48   22   23 1   
    49   22   31 2   
    50   23   24 ar  
    51   23   29 ar  
    52   24   25 ar  
    53   24   58 1   
    54   25   26 ar  
    55   25   59 1   
    56   26   27 1   
    57   26   28 ar  
    58   28   29 ar  
    59   28   60 1   
    60   29   30 1   
    61   30   31 1   
    62   30   61 1   
    63   31   32 1   
    64   32   33 2   
    65   32   34 1   
    66   34   35 1   
    67   34   62 1   
    68   34   67 1   
    69   35   63 1   
@<TRIPOS>SUBSTRUCTURE
     1 28W         1 TEMP              0 ****  ****    0 ROOT
