@<TRIPOS>MOLECULE
28W
   63    65     1     0     0
SMALL
bcc


@<TRIPOS>ATOM
      1 CAL        -3.6480   -3.0300   -0.9490 ca        1 28W     -0.116500
      2 CAJ        -4.3680   -3.4180   -2.0770 ca        1 28W     -0.133500
      3 CAI        -5.5980   -2.8230   -2.3610 ca        1 28W     -0.125000
      4 CAK        -6.1070   -1.8380   -1.5140 ca        1 28W     -0.133500
      5 CAM        -5.3870   -1.4450   -0.3860 ca        1 28W     -0.116500
      6 CBB        -4.1570   -2.0420   -0.0990 ca        1 28W     -0.124300
      7 CAQ        -3.3850   -1.6510    1.1310 c3        1 28W      0.136300
      8 NAU        -2.2030   -0.8740    0.8710 n         1 28W     -0.554900
      9 CAZ        -0.9640   -1.4530    0.7190 c         1 28W      0.655100
     10 OAE        -0.7820   -2.6740    0.8880 o         1 28W     -0.600100
     11 CBI         0.2050   -0.5210    0.2920 c3        1 28W      0.179700
     12 N           1.5070   -1.1230    0.5640 n3        1 28W     -0.809200
     13 CA          2.5010   -0.8760   -0.4640 c3        1 28W      0.124500
     14 CB          3.8910   -1.3640   -0.0230 c3        1 28W     -0.078400
     15 CG          4.9920   -0.9510   -0.9890 c3        1 28W     -0.072700
     16 CD2         5.2090    0.5480   -0.9970 c3        1 28W     -0.092100
     17 CD1         6.2790   -1.6600   -0.6140 c3        1 28W     -0.092100
     18 C           2.1780   -1.5670   -1.8080 c         1 28W      0.539100
     19 O           1.8980   -2.7730   -1.8800 o         1 28W     -0.548100
     20 NAT         2.0680   -0.7300   -2.9620 n         1 28W     -0.354400
     21 OAG         2.1530   -1.3700   -4.1320 oh        1 28W     -0.440100
     22 CBD         0.0850    0.8160    0.9380 cc        1 28W     -0.081400
     23 CBF        -0.6460    1.9410    0.3840 ca        1 28W     -0.112800
     24 CAO        -1.3940    2.1350   -0.7790 ca        1 28W     -0.082000
     25 CAN        -1.9820    3.3690   -1.0050 ca        1 28W     -0.143000
     26 CBA        -1.8280    4.4220   -0.0780 ca        1 28W      0.040400
     27 CLH        -2.5790    5.9130   -0.4020 cl        1 28W     -0.085400
     28 CAP        -1.0840    4.2800    1.0880 ca        1 28W     -0.137000
     29 CBE        -0.4850    3.0320    1.3170 ca        1 28W     -0.030200
     30 NAW         0.3600    2.6130    2.3520 na        1 28W     -0.176400
     31 CBC         0.6480    1.2490    2.1380 cd        1 28W     -0.092300
     32 CAX         1.4910    0.4810    3.0900 c         1 28W      0.633300
     33 OAC         1.0720   -0.4990    3.7160 o         1 28W     -0.517100
     34 NAS         2.8680    0.8660    3.1460 n         1 28W     -0.342400
     35 OAF         3.4970    0.4960    4.2640 oh        1 28W     -0.441100
     36 H1         -2.6770   -3.4980   -0.7130 ha        1 28W      0.142500
     37 H2         -3.9670   -4.1970   -2.7410 ha        1 28W      0.133000
     38 H3         -6.1670   -3.1320   -3.2500 ha        1 28W      0.131000
     39 H4         -7.0770   -1.3700   -1.7360 ha        1 28W      0.133000
     40 H5         -5.7930   -0.6690    0.2800 ha        1 28W      0.142500
     41 H6         -4.0480   -1.0440    1.8140 h1        1 28W      0.070700
     42 H7         -3.0790   -2.5930    1.6770 h1        1 28W      0.070700
     43 H8         -2.3260    0.0790    0.6200 hn        1 28W      0.317500
     44 H9          0.0530   -0.3700   -0.8270 h1        1 28W      0.066700
     45 H10         1.4180   -2.1060    0.7640 hn        1 28W      0.416800
     46 H12         2.5450    0.2440   -0.6140 h1        1 28W      0.075700
     47 H13         4.1170   -0.9460    0.9940 hc        1 28W      0.068700
     48 H14         3.8750   -2.4840    0.0600 hc        1 28W      0.068700
     49 H15         4.7040   -1.2780   -2.0290 hc        1 28W      0.044700
     50 H16         6.0990    0.8040   -1.6220 hc        1 28W      0.036867
     51 H17         4.3220    1.0770   -1.4210 hc        1 28W      0.036867
     52 H18         5.3850    0.9250    0.0390 hc        1 28W      0.036867
     53 H19         6.1380   -2.7680   -0.6460 hc        1 28W      0.036867
     54 H20         7.0920   -1.3860   -1.3290 hc        1 28W      0.036867
     55 H21         6.5990   -1.3720    0.4160 hc        1 28W      0.036867
     56 H22         2.7680    0.0060   -2.9690 hn        1 28W      0.297500
     57 H23         1.3390   -1.9080   -4.2040 ho        1 28W      0.435000
     58 H24        -1.5090    1.3190   -1.5080 ha        1 28W      0.147000
     59 H25        -2.5770    3.5360   -1.9170 ha        1 28W      0.153000
     60 H26        -0.9670    5.1090    1.7990 ha        1 28W      0.154000
     61 H27         0.3810    3.0400    3.2440 hn        1 28W      0.299700
     62 H28         3.0100    1.8620    3.0250 hn        1 28W      0.298500
     63 H29         3.6440   -0.4680    4.1800 ho        1 28W      0.440000
@<TRIPOS>BOND
     1    1    2 ar  
     2    1    6 ar  
     3    1   36 1   
     4    2    3 ar  
     5    2   37 1   
     6    3    4 ar  
     7    3   38 1   
     8    4    5 ar  
     9    4   39 1   
    10    5    6 ar  
    11    5   40 1   
    12    6    7 1   
    13    7    8 1   
    14    7   41 1   
    15    7   42 1   
    16    8    9 1   
    17    8   43 1   
    18    9   10 2   
    19    9   11 1   
    20   11   12 1   
    21   11   22 1   
    22   11   44 1   
    23   12   13 1   
    24   12   45 1   
    25   13   14 1   
    26   13   18 1   
    27   13   46 1   
    28   14   15 1   
    29   14   47 1   
    30   14   48 1   
    31   15   16 1   
    32   15   17 1   
    33   15   49 1   
    34   16   50 1   
    35   16   51 1   
    36   16   52 1   
    37   17   53 1   
    38   17   54 1   
    39   17   55 1   
    40   18   19 2   
    41   18   20 1   
    42   20   21 1   
    43   20   56 1   
    44   21   57 1   
    45   22   23 1   
    46   22   31 2   
    47   23   24 ar  
    48   23   29 ar  
    49   24   25 ar  
    50   24   58 1   
    51   25   26 ar  
    52   25   59 1   
    53   26   27 1   
    54   26   28 ar  
    55   28   29 ar  
    56   28   60 1   
    57   29   30 1   
    58   30   31 1   
    59   30   61 1   
    60   31   32 1   
    61   32   33 2   
    62   32   34 1   
    63   34   35 1   
    64   34   62 1   
    65   35   63 1   
@<TRIPOS>SUBSTRUCTURE
     1 28W         1 TEMP              0 ****  ****    0 ROOT
