@<TRIPOS>MOLECULE
28W
   67    69     1     0     0
SMALL
bcc


@<TRIPOS>ATOM
      1 CAL         0.1570   -0.9650   -0.1990 ca        1 28W     -0.081500
      2 CAJ         1.5420   -1.0000   -0.3230 ca        1 28W     -0.113500
      3 CAI         2.3450   -1.1650    0.8100 ca        1 28W     -0.015000
      4 CAK         1.7570   -1.3020    2.0740 ca        1 28W     -0.113500
      5 CAM         0.3740   -1.2680    2.2060 ca        1 28W     -0.081500
      6 CBB        -0.4390   -1.0930    1.0710 ca        1 28W     -0.248300
      7 CAQ        -1.8930   -0.9370    1.2150 c3        1 28W      0.223100
      8 NAU        -2.5600   -2.3380    1.1410 ny        1 28W     -0.677800
      9 CAZ        -4.0130   -2.2950    0.8960 c         1 28W      0.503100
     10 OAE        -4.4960   -1.4540    0.1470 o         1 28W     -0.396100
     11 CBI        -4.8830   -3.3620    1.6090 c3        1 28W      0.148700
     12 N          -6.3270   -3.2910    1.1490 ny        1 28W     -0.780000
     13 CA         -6.6760   -4.2030   -0.0140 c3        1 28W      0.085500
     14 CB         -6.7760   -5.6720    0.4370 c3        1 28W     -0.123400
     15 CG         -7.1710   -6.6400   -0.6760 c3        1 28W     -0.065700
     16 CD2        -6.1990   -6.6270   -1.8340 c3        1 28W     -0.119100
     17 CD1        -7.2500   -8.0410   -0.0850 c3        1 28W     -0.119100
     18 C          -8.0350   -3.7640   -0.5820 c         1 28W      0.533100
     19 O          -8.9740   -3.3380    0.0650 o         1 28W     -0.337100
     20 NAT        -8.2530   -3.8750   -2.0890 ny        1 28W     -0.435300
     21 OAG        -7.1730   -3.3230   -2.6920 oh        1 28W     -0.386300
     22 CBD        -4.7460   -3.2590    3.0850 cc        1 28W     -0.173400
     23 CBF        -3.9630   -4.1920    3.8180 ca        1 28W     -0.093800
     24 CAO        -3.1930   -5.3300    3.4840 ca        1 28W     -0.154000
     25 CAN        -2.5700   -6.0400    4.4780 ca        1 28W     -0.040000
     26 CBA        -2.6660   -5.6550    5.8610 ca        1 28W      0.094400
     27 ClH        -1.8760   -6.5770    7.0050 cl        1 28W      0.107600
     28 CAP        -3.4040   -4.5440    6.2400 ca        1 28W     -0.150000
     29 CBE        -4.0560   -3.8100    5.2250 ca        1 28W      0.048800
     30 NAW        -4.8500   -2.6860    5.3180 na        1 28W     -0.078400
     31 CBC        -5.3030   -2.3300    4.0400 cd        1 28W     -0.200300
     32 CAX        -6.1920   -1.2400    3.7560 c         1 28W      0.610300
     33 OAC        -6.7180   -0.9900    2.6680 o         1 28W     -0.521100
     34 NAS        -6.5700   -0.2250    4.8460 ny        1 28W     -0.435300
     35 OAF        -6.9600   -0.9010    5.9520 oh        1 28W     -0.382300
     36 H1         -0.4660   -0.8010   -1.0920 ha        1 28W      0.136000
     37 H2          2.0110   -0.8790   -1.3170 ha        1 28W      0.187000
     38 H3          3.4470   -1.1770    0.7100 ha        1 28W      0.195000
     39 H4          2.3970   -1.4200    2.9660 ha        1 28W      0.187000
     40 H5         -0.0800   -1.3450    3.2060 ha        1 28W      0.136000
     41 H6         -2.3410   -0.3260    0.3790 hx        1 28W      0.111200
     42 H7         -2.1850   -0.5110    2.2140 hx        1 28W      0.111200
     43 H8         -2.3560   -2.8530    2.0080 hn        1 28W      0.477800
     44 H9         -4.4890   -4.3870    1.2940 hx        1 28W      0.155700
     45 H10        -6.9240   -3.5470    1.9540 hn        1 28W      0.489800
     46 H12        -5.8700   -4.0820   -0.8040 hx        1 28W      0.158700
     47 H13        -7.5300   -5.7660    1.2680 hc        1 28W      0.099200
     48 H14        -5.7760   -5.9980    0.8350 hc        1 28W      0.099200
     49 H15        -8.2070   -6.3770   -1.0330 hc        1 28W      0.029700
     50 H16        -5.1810   -6.9470   -1.5040 hc        1 28W      0.071033
     51 H17        -6.5340   -7.3560   -2.6190 hc        1 28W      0.071033
     52 H18        -6.1200   -5.6150   -2.3030 hc        1 28W      0.071033
     53 H19        -7.5880   -8.7620   -0.8740 hc        1 28W      0.071033
     54 H20        -7.9830   -8.0780    0.7570 hc        1 28W      0.071033
     55 H21        -6.2510   -8.3750    0.2840 hc        1 28W      0.071033
     56 H22        -9.1390   -3.3740   -2.3400 hn        1 28W      0.513300
     57 H23        -7.3630   -3.1990   -3.6600 ho        1 28W      0.528000
     58 H24        -3.1110   -5.6620    2.4380 ha        1 28W      0.142000
     59 H25        -1.9730   -6.9430    4.2300 ha        1 28W      0.211000
     60 H26        -3.4850   -4.2450    7.3020 ha        1 28W      0.212000
     61 H27        -5.1710   -2.2880    6.1770 hn        1 28W      0.356700
     62 H28        -5.7460    0.3710    5.0690 hn        1 28W      0.499300
     63 H29        -7.5020   -0.3060    6.5350 ho        1 28W      0.526000
     64 HAU2       -2.0980   -2.8340    0.3570 hn        1 28W      0.477800
     65 H2A        -6.5450   -2.3070    0.8960 hn        1 28W      0.489800
     66 HAT2       -8.3350   -4.8860   -2.3550 hn        1 28W      0.513300
     67 HAS2       -7.3370    0.3790    4.4690 hn        1 28W      0.499300
@<TRIPOS>BOND
     1    1    2 ar  
     2    1    6 ar  
     3    1   36 1   
     4    2    3 ar  
     5    2   37 1   
     6    3    4 ar  
     7    3   38 1   
     8    4    5 ar  
     9    4   39 1   
    10    5    6 ar  
    11    5   40 1   
    12    6    7 1   
    13    7    8 1   
    14    7   41 1   
    15    7   42 1   
    16    8    9 1   
    17    8   43 1   
    18    8   64 1   
    19    9   10 2   
    20    9   11 1   
    21   11   12 1   
    22   11   22 1   
    23   11   44 1   
    24   12   13 1   
    25   12   45 1   
    26   12   65 1   
    27   13   14 1   
    28   13   18 1   
    29   13   46 1   
    30   14   15 1   
    31   14   47 1   
    32   14   48 1   
    33   15   16 1   
    34   15   17 1   
    35   15   49 1   
    36   16   50 1   
    37   16   51 1   
    38   16   52 1   
    39   17   53 1   
    40   17   54 1   
    41   17   55 1   
    42   18   19 2   
    43   18   20 1   
    44   20   21 1   
    45   20   56 1   
    46   20   66 1   
    47   21   57 1   
    48   22   23 1   
    49   22   31 2   
    50   23   24 ar  
    51   23   29 ar  
    52   24   25 ar  
    53   24   58 1   
    54   25   26 ar  
    55   25   59 1   
    56   26   27 1   
    57   26   28 ar  
    58   28   29 ar  
    59   28   60 1   
    60   29   30 1   
    61   30   31 1   
    62   30   61 1   
    63   31   32 1   
    64   32   33 2   
    65   32   34 1   
    66   34   35 1   
    67   34   62 1   
    68   34   67 1   
    69   35   63 1   
@<TRIPOS>SUBSTRUCTURE
     1 28W         1 TEMP              0 ****  ****    0 ROOT
