@<TRIPOS>MOLECULE
28W
   67    69     1     0     0
SMALL
bcc


@<TRIPOS>ATOM
      1 CAL         0.1540   -0.9510   -0.1900 ca        1 28W     -0.081500
      2 CAJ         1.5390   -0.9810   -0.3090 ca        1 28W     -0.113500
      3 CAI         2.3400   -1.1380    0.8280 ca        1 28W     -0.015000
      4 CAK         1.7470   -1.2730    2.0900 ca        1 28W     -0.113500
      5 CAM         0.3630   -1.2440    2.2170 ca        1 28W     -0.081500
      6 CBB        -0.4460   -1.0770    1.0780 ca        1 28W     -0.248300
      7 CAQ        -1.9010   -0.9260    1.2170 c3        1 28W      0.223100
      8 NAU        -2.5620   -2.3300    1.1450 n4        1 28W     -0.677800
      9 CAZ        -4.0150   -2.2940    0.8950 c         1 28W      0.503100
     10 OAE        -4.4990   -1.4560    0.1420 o         1 28W     -0.396100
     11 CBI        -4.8830   -3.3630    1.6080 c3        1 28W      0.148700
     12 N          -6.3250   -3.2990    1.1430 n4        1 28W     -0.780000
     13 CA         -6.6670   -4.2140   -0.0200 c3        1 28W      0.085500
     14 CB         -6.7620   -5.6830    0.4320 c3        1 28W     -0.123400
     15 CG         -7.1490   -6.6540   -0.6800 c3        1 28W     -0.065700
     16 CD2        -6.1760   -6.6380   -1.8360 c3        1 28W     -0.119100
     17 CD1        -7.2250   -8.0540   -0.0880 c3        1 28W     -0.119100
     18 C          -8.0270   -3.7820   -0.5920 c         1 28W      0.533100
     19 O          -8.9690   -3.3600    0.0520 o         1 28W     -0.337100
     20 NAT        -8.2390   -3.8950   -2.1000 n4        1 28W     -0.435300
     21 OAG        -7.1610   -3.3390   -2.7000 oh        1 28W     -0.386300
     22 CBD        -4.7510   -3.2570    3.0830 cc        1 28W     -0.173400
     23 CBF        -3.9660   -4.1850    3.8210 ca        1 28W     -0.093800
     24 CAO        -3.1910   -5.3220    3.4910 ca        1 28W     -0.154000
     25 CAN        -2.5680   -6.0270    4.4890 ca        1 28W     -0.040000
     26 CBA        -2.6700   -5.6390    5.8710 ca        1 28W      0.094400
     27 CLH        -1.8800   -6.5560    7.0190 cl        1 28W      0.107600
     28 CAP        -3.4130   -4.5310    6.2460 ca        1 28W     -0.150000
     29 CBE        -4.0650   -3.8010    5.2270 ca        1 28W      0.048800
     30 NAW        -4.8640   -2.6790    5.3160 na        1 28W     -0.078400
     31 CBC        -5.3140   -2.3280    4.0350 cd        1 28W     -0.200300
     32 CAX        -6.2060   -1.2420    3.7460 c         1 28W      0.610300
     33 OAC        -6.7300   -0.9960    2.6570 o         1 28W     -0.521100
     34 NAS        -6.5920   -0.2270    4.8330 n4        1 28W     -0.435300
     35 OAF        -6.9820   -0.9020    5.9390 oh        1 28W     -0.382300
     36 H1         -0.4660   -0.7930   -1.0870 ha        1 28W      0.136000
     37 H2          2.0110   -0.8620   -1.3020 ha        1 28W      0.187000
     38 H3          3.4420   -1.1470    0.7310 ha        1 28W      0.195000
     39 H4          2.3850   -1.3840    2.9840 ha        1 28W      0.187000
     40 H5         -0.0940   -1.3190    3.2150 ha        1 28W      0.136000
     41 H6         -2.1990   -0.4980    2.2130 hx        1 28W      0.111200
     42 H7         -2.3490   -0.3200    0.3770 hx        1 28W      0.111200
     43 H8         -2.0960   -2.8270    0.3640 hn        1 28W      0.477800
     44 H9         -4.4840   -4.3870    1.2960 hx        1 28W      0.155700
     45 H10        -6.9240   -3.5560    1.9470 hn        1 28W      0.489800
     46 H12        -5.8590   -4.0900   -0.8070 hx        1 28W      0.158700
     47 H13        -5.7610   -6.0040    0.8330 hc        1 28W      0.099200
     48 H14        -7.5170   -5.7790    1.2620 hc        1 28W      0.099200
     49 H15        -8.1860   -6.3950   -1.0400 hc        1 28W      0.029700
     50 H16        -6.5050   -7.3690   -2.6210 hc        1 28W      0.071033
     51 H17        -5.1560   -6.9540   -1.5030 hc        1 28W      0.071033
     52 H18        -6.0990   -5.6260   -2.3050 hc        1 28W      0.071033
     53 H19        -7.9590   -8.0930    0.7520 hc        1 28W      0.071033
     54 H20        -6.2250   -8.3840    0.2840 hc        1 28W      0.071033
     55 H21        -7.5580   -8.7770   -0.8760 hc        1 28W      0.071033
     56 H22        -8.3160   -4.9060   -2.3650 hn        1 28W      0.513300
     57 H23        -7.3480   -3.2160   -3.6690 ho        1 28W      0.528000
     58 H24        -3.1040   -5.6540    2.4460 ha        1 28W      0.142000
     59 H25        -1.9670   -6.9280    4.2450 ha        1 28W      0.211000
     60 H26        -3.4990   -4.2300    7.3060 ha        1 28W      0.212000
     61 H27        -5.1890   -2.2810    6.1730 hn        1 28W      0.356700
     62 H28        -7.3590    0.3740    4.4530 hn        1 28W      0.499300
     63 H29        -7.5290   -0.3080    6.5200 ho        1 28W      0.526000
     64 HAU2       -2.3580   -2.8420    2.0140 hn        1 28W      0.477800
     65 H2A        -6.5460   -2.3160    0.8890 hn        1 28W      0.489800
     66 HAT2       -9.1270   -3.3980   -2.3540 hn        1 28W      0.513300
     67 HAS2       -5.7710    0.3730    5.0580 hn        1 28W      0.499300
@<TRIPOS>BOND
     1    1    2 ar  
     2    1    6 ar  
     3    1   36 1   
     4    2    3 ar  
     5    2   37 1   
     6    3    4 ar  
     7    3   38 1   
     8    4    5 ar  
     9    4   39 1   
    10    5    6 ar  
    11    5   40 1   
    12    6    7 1   
    13    7    8 1   
    14    7   41 1   
    15    7   42 1   
    16    8    9 1   
    17    8   43 1   
    18    8   64 1   
    19    9   10 2   
    20    9   11 1   
    21   11   12 1   
    22   11   22 1   
    23   11   44 1   
    24   12   13 1   
    25   12   45 1   
    26   12   65 1   
    27   13   14 1   
    28   13   18 1   
    29   13   46 1   
    30   14   15 1   
    31   14   47 1   
    32   14   48 1   
    33   15   16 1   
    34   15   17 1   
    35   15   49 1   
    36   16   50 1   
    37   16   51 1   
    38   16   52 1   
    39   17   53 1   
    40   17   54 1   
    41   17   55 1   
    42   18   19 2   
    43   18   20 1   
    44   20   21 1   
    45   20   56 1   
    46   20   66 1   
    47   21   57 1   
    48   22   23 1   
    49   22   31 2   
    50   23   24 ar  
    51   23   29 ar  
    52   24   25 ar  
    53   24   58 1   
    54   25   26 ar  
    55   25   59 1   
    56   26   27 1   
    57   26   28 ar  
    58   28   29 ar  
    59   28   60 1   
    60   29   30 1   
    61   30   31 1   
    62   30   61 1   
    63   31   32 1   
    64   32   33 2   
    65   32   34 1   
    66   34   35 1   
    67   34   62 1   
    68   34   67 1   
    69   35   63 1   
@<TRIPOS>SUBSTRUCTURE
     1 28W         1 TEMP              0 ****  ****    0 ROOT
