@<TRIPOS>MOLECULE
28X
   34    33     1     0     0
SMALL
bcc


@<TRIPOS>ATOM
      1 C           4.1380    0.5870    0.9570 c         1 28X      0.915600
      2 CA          2.7070    0.0040    1.1870 c3        1 28X      0.039500
      3 N           1.7540    1.0540    1.4910 n3        1 28X     -0.904800
      4 CB          2.3290   -0.8940   -0.0260 c3        1 28X      0.175100
      5 OG1         1.0460   -1.4500    0.1840 os        1 28X     -0.588200
      6 P59        -0.0640   -1.3170   -0.9930 p5        1 28X      1.440800
      7 O60        -1.2790   -2.0700   -0.5850 o         1 28X     -0.849500
      8 O69         0.5300   -1.4070   -2.3390 o         1 28X     -0.849500
      9 CG2         3.3400   -2.0260   -0.1610 c3        1 28X     -0.106100
     10 O           4.2750    1.6050    0.2180 o         1 28X     -0.861300
     11 O61        -0.4840    0.2730   -0.6970 os        1 28X     -0.573200
     12 C62        -1.8220    0.5950   -0.8740 c3        1 28X      0.212400
     13 C63        -2.5500    0.7520    0.4650 c3        1 28X     -0.139400
     14 C64        -3.9710    0.2180    0.4020 c3        1 28X      0.125100
     15 O66        -4.0760   -1.1610    0.0950 oh        1 28X     -0.661800
     16 C67        -4.6710    0.4370    1.7530 c3        1 28X      0.111400
     17 O68        -5.9640   -0.1400    1.7730 oh        1 28X     -0.634800
     18 HA          2.7470   -0.6700    2.0910 h1        1 28X      0.043700
     19 H2          1.9380    1.8410    0.8940 hn        1 28X      0.339300
     20 HB          2.3100   -0.2760   -0.9690 h1        1 28X      0.049700
     21 HG21        3.2170   -2.5460   -1.1400 hc        1 28X      0.032367
     22 HG22        4.3750   -1.6110   -0.0880 hc        1 28X      0.032367
     23 HG23        3.1890   -2.7670    0.6590 hc        1 28X      0.032367
     24 H64        -1.8690    1.5770   -1.4260 h1        1 28X      0.013700
     25 H65        -2.3350   -0.1930   -1.4960 h1        1 28X      0.013700
     26 H66        -1.9840    0.2110    1.2680 hc        1 28X      0.053700
     27 H67        -2.5820    1.8340    0.7520 hc        1 28X      0.053700
     28 H68        -4.5550    0.7540   -0.4000 h1        1 28X      0.030700
     29 H69        -3.1820   -1.5520    0.0420 ho        1 28X      0.489000
     30 H70        -4.0560   -0.0080    2.5800 h1        1 28X      0.033700
     31 H71        -4.8290    1.5300    1.9440 h1        1 28X      0.033700
     32 H72        -5.8880   -1.0040    1.3450 ho        1 28X      0.420000
     33 H           0.8210    0.7360    1.3030 hn        1 28X      0.339300
     34 OXT         5.1080    0.0130    1.5340 o         1 28X     -0.861300
@<TRIPOS>BOND
     1    1    2 1   
     2    1   10 1   
     3    1   34 1   
     4    2    3 1   
     5    2    4 1   
     6    2   18 1   
     7    3   19 1   
     8    3   33 1   
     9    4    5 1   
    10    4    9 1   
    11    4   20 1   
    12    5    6 1   
    13    6    7 1   
    14    6    8 1   
    15    6   11 1   
    16    9   21 1   
    17    9   22 1   
    18    9   23 1   
    19   11   12 1   
    20   12   13 1   
    21   12   24 1   
    22   12   25 1   
    23   13   14 1   
    24   13   26 1   
    25   13   27 1   
    26   14   15 1   
    27   14   16 1   
    28   14   28 1   
    29   15   29 1   
    30   16   17 1   
    31   16   30 1   
    32   16   31 1   
    33   17   32 1   
@<TRIPOS>SUBSTRUCTURE
     1 28X         1 TEMP              0 ****  ****    0 ROOT
