@<TRIPOS>MOLECULE
28X
   34    32     1     0     0
SMALL
bcc


@<TRIPOS>ATOM
      1 C          -4.1790    3.2020   -0.7940 c1        1 28X      0.806000
      2 CA         -2.6710    3.2940   -0.7640 c2        1 28X      0.159200
      3 N          -2.2230    3.3000    0.5860 nh        1 28X     -0.483100
      4 CB         -2.0790    2.1050   -1.4860 c3        1 28X      0.135800
      5 OG1        -0.9760    1.6180   -0.7610 os        1 28X     -0.609200
      6 P59        -0.7370    0.0570   -0.7110 p5        1 28X      1.432800
      7 O60        -0.3650   -0.4400   -2.0880 o         1 28X     -0.840500
      8 O69        -2.0010   -0.6310   -0.2530 o         1 28X     -0.840500
      9 CG2        -1.6290    2.5260   -2.8670 c3        1 28X     -0.112100
     10 O          -4.8570    4.1350   -1.3010 o         1 28X     -0.829500
     11 O61         0.4350   -0.2650    0.2990 os        1 28X     -0.576200
     12 C62         1.1180   -1.4900    0.1660 c3        1 28X      0.200400
     13 C63         1.9920   -1.7130    1.3810 c3        1 28X     -0.096400
     14 C64         2.8190   -2.9630    1.1830 c3        1 28X      0.122100
     15 O66         3.9750   -2.6490    0.4430 oh        1 28X     -0.635800
     16 C67         3.2200   -3.5210    2.5300 c3        1 28X      0.080400
     17 O68         4.1290   -4.5840    2.3470 oh        1 28X     -0.637800
     18 HA         -2.3860    4.1180   -1.2060 h4        1 28X     -0.095200
     19 H2         -2.9080    3.5650    1.1340 hn        1 28X      0.173200
     20 HB         -2.7540    1.4020   -1.5630 h1        1 28X      0.075700
     21 HG21       -0.7550    2.9650   -2.8060 hc        1 28X      0.030033
     22 HG22       -2.2820    3.1510   -3.2470 hc        1 28X      0.030033
     23 HG23       -1.5590    1.7360   -3.4430 hc        1 28X      0.030033
     24 H64         0.4690   -2.2200    0.0930 h1        1 28X      0.020200
     25 H65         1.6760   -1.4670   -0.6380 h1        1 28X      0.020200
     26 H66         2.5860   -0.9450    1.5010 hc        1 28X      0.043200
     27 H67         1.4290   -1.8170    2.1730 hc        1 28X      0.043200
     28 H68         2.2930   -3.6290    0.6980 h1        1 28X      0.031700
     29 H69         4.1250   -3.2880   -0.1580 ho        1 28X      0.395000
     30 H70         2.4230   -3.8500    2.9970 h1        1 28X      0.093200
     31 H71         3.6430   -2.8170    3.0620 h1        1 28X      0.093200
     32 H72         4.3090   -4.9590    3.1330 ho        1 28X      0.398000
     33 H          -1.5210    3.8820    0.6730 hn        1 28X      0.173200
     34 OXT        -4.7580    2.1930   -0.3120 o         1 28X     -0.829500
@<TRIPOS>BOND
     1    1   10 2   
     2    1   34 2   
     3    2    3 2   
     4    2    4 1   
     5    2   18 1   
     6    3   19 1   
     7    3   33 1   
     8    4    5 1   
     9    4    9 1   
    10    4   20 1   
    11    5    6 1   
    12    6    7 1   
    13    6    8 1   
    14    6   11 1   
    15    9   21 1   
    16    9   22 1   
    17    9   23 1   
    18   11   12 1   
    19   12   13 1   
    20   12   24 1   
    21   12   25 1   
    22   13   14 1   
    23   13   26 1   
    24   13   27 1   
    25   14   15 1   
    26   14   16 1   
    27   14   28 1   
    28   15   29 1   
    29   16   17 1   
    30   16   30 1   
    31   16   31 1   
    32   17   32 1   
@<TRIPOS>SUBSTRUCTURE
     1 28X         1 TEMP              0 ****  ****    0 ROOT
