@<TRIPOS>MOLECULE
28Y
   18    20     1     0     0
SMALL
bcc


@<TRIPOS>ATOM
      1 C4         -0.0460   -0.0000   -0.0350 cc        1 28Y      0.458800
      2 C5          1.3900   -0.0000   -0.0050 cd        1 28Y     -0.317200
      3 C6          2.1720    0.0000    1.2250 c         1 28Y      0.754100
      4 C8          0.6380   -0.0010   -2.1050 cd        1 28Y      0.443400
      5 N1          1.4150    0.0010    2.4030 n         1 28Y     -0.517400
      6 N2         -0.8390    0.0010    3.4640 nc        1 28Y     -0.679000
      7 N3         -0.7320    0.0000    1.1630 na        1 28Y     -0.222700
      8 O6          3.4150    0.0000    1.2800 o         1 28Y     -0.626500
      9 N7          1.8000   -0.0010   -1.3350 na        1 28Y     -0.264900
     10 N9         -0.5010   -0.0010   -1.3610 nc        1 28Y     -0.662000
     11 CAD        -2.0860    0.0010    1.5100 cd        1 28Y     -0.226600
     12 CAB        -2.1230    0.0010    2.9120 cc        1 28Y      0.316200
     13 C2          0.0150    0.0010    2.3970 cd        1 28Y      0.521400
     14 H1          0.6560   -0.0020   -3.2030 h5        1 28Y      0.076100
     15 H2          1.8770    0.0010    3.2870 hn        1 28Y      0.365500
     16 H3          2.7400   -0.0010   -1.6410 hn        1 28Y      0.330700
     17 H5         -2.8690    0.0000    0.7540 h4        1 28Y      0.199000
     18 H6         -3.0000    0.0020    3.5600 h4        1 28Y      0.050100
@<TRIPOS>BOND
     1    1    2 2   
     2    1    7 1   
     3    1   10 1   
     4    2    3 1   
     5    2    9 1   
     6    3    5 1   
     7    3    8 2   
     8    4    9 1   
     9    4   10 2   
    10    4   14 1   
    11    5   13 1   
    12    5   15 1   
    13    6   12 1   
    14    6   13 2   
    15    7   11 1   
    16    7   13 1   
    17    9   16 1   
    18   11   12 2   
    19   11   17 1   
    20   12   18 1   
@<TRIPOS>SUBSTRUCTURE
     1 28Y         1 TEMP              0 ****  ****    0 ROOT
