@<TRIPOS>MOLECULE
28Z
   67    69     1     0     0
SMALL
bcc


@<TRIPOS>ATOM
      1 O4          0.0000    0.0000    0.0000 o         1 28Z     -0.549500
      2 C4          1.2170    0.0000    0.0000 c         1 28Z      0.505000
      3 C4A         1.9810    0.0000    1.2600 ca        1 28Z      0.195500
      4 N3          1.9190   -0.0050   -1.1560 ns        1 28Z     -0.014400
      5 C8A         3.3920    0.0000    1.1810 ca        1 28Z      0.407000
      6 N5          1.3790   -0.0020    2.4410 nb        1 28Z     -0.430000
      7 C2          3.2820   -0.0050   -1.1370 cc        1 28Z     -0.008200
      8 N8          4.1100   -0.0000    2.3050 nb        1 28Z     -0.489000
      9 N1          3.9820    0.0010   -0.0290 nd        1 28Z     -0.461700
     10 C6          2.1050   -0.0020    3.5420 ca        1 28Z      0.244300
     11 N2          3.9530   -0.0100   -2.3320 nz        1 28Z      0.215400
     12 C7          3.4960   -0.0020    3.4710 ca        1 28Z      0.351900
     13 C9          1.4240   -0.0040    4.8860 c3        1 28Z      0.119500
     14 N10         1.0960    1.3720    5.2690 nu        1 28Z     -0.400600
     15 CBH         0.4600    1.6240    6.4780 ca        1 28Z      0.104600
     16 CAL         0.1480    2.9320    6.8410 ca        1 28Z     -0.189000
     17 CAK         0.1390    0.5680    7.3280 ca        1 28Z     -0.189000
     18 CAN        -0.4830    3.1850    8.0380 ca        1 28Z      0.022000
     19 CAM        -0.4920    0.8140    8.5260 ca        1 28Z      0.022000
     20 CBI        -0.8110    2.1250    8.8900 ca        1 28Z     -0.272600
     21 CBF        -1.4880    2.3930   10.1730 c         1 28Z      0.409700
     22 OAF        -1.7690    1.4720   10.9160 o         1 28Z     -0.452100
     23 NBA        -1.7950    3.6580   10.5220 ny        1 28Z      0.137200
     24 CBO        -2.4670    3.9230   11.7970 c3        1 28Z     -0.174500
     25 CBD        -3.9560    3.7640   11.6220 c         1 28Z      0.965600
     26 OAI        -4.4080    3.4600   10.5450 o         1 28Z     -0.811800
     27 CAS        -2.1570    5.3520   12.2500 c3        1 28Z     -0.008400
     28 CAQ        -0.6610    5.4800   12.5460 c3        1 28Z     -0.129400
     29 CBE        -0.3560    6.8870   12.9910 c         1 28Z      0.370100
     30 OAE        -1.2470    7.7060   13.0650 o         1 28Z     -0.410100
     31 OAD        -4.7780    3.9590   12.6650 o         1 28Z     -0.811800
     32 N           0.9070    7.2330   13.3100 ny        1 28Z      0.127200
     33 CA          1.2040    8.6010   13.7430 c3        1 28Z     -0.173500
     34 C           1.4210    9.4740   12.5340 c         1 28Z      0.975600
     35 O           1.3370    9.0030   11.4250 o         1 28Z     -0.838300
     36 CB          2.4670    8.6000   14.6050 c3        1 28Z     -0.010400
     37 CG          2.2060    7.8140   15.8920 c3        1 28Z     -0.149400
     38 CD          3.4510    7.8140   16.7410 c         1 28Z      0.964600
     39 OE1         4.4450    8.3820   16.3570 o         1 28Z     -0.802800
     40 OE2         3.4550    7.1810   17.9250 o         1 28Z     -0.802800
     41 OXT         1.7080   10.7770   12.6900 o         1 28Z     -0.838300
     42 H4          1.4350   -0.0110   -2.0320 hn        1 28Z      0.187500
     43 H2          3.7040    0.8040   -2.8580 hn        1 28Z      0.215133
     44 H3          3.7060   -0.8310   -2.8500 hn        1 28Z      0.215133
     45 H1          4.0790   -0.0020    4.3840 h4        1 28Z      0.014100
     46 H5          0.5150   -0.5900    4.8300 h1        1 28Z      0.039700
     47 H6          2.0870   -0.4360    5.6260 h1        1 28Z      0.039700
     48 H7          1.2990    2.1270    4.6440 hn        1 28Z      0.298800
     49 H10         0.4030    3.7520    6.1800 ha        1 28Z      0.123000
     50 H8          0.3850   -0.4480    7.0450 ha        1 28Z      0.123000
     51 H11        -0.7800    4.1950    8.2910 ha        1 28Z      0.113000
     52 H9         -0.7430   -0.0080    9.1860 ha        1 28Z      0.113000
     53 H12        -0.9380    4.1740   10.5330 hn        1 28Z      0.258800
     54 H13        -2.1140    3.2230   12.5440 hx        1 28Z      0.096700
     55 H15        -2.4300    6.0470   11.4650 hc        1 28Z      0.074700
     56 H16        -2.7230    5.5780   13.1450 hc        1 28Z      0.074700
     57 H17        -0.0950    5.2530   11.6510 hc        1 28Z      0.035200
     58 H18        -0.3880    4.7850   13.3320 hc        1 28Z      0.035200
     59 H19         1.4700    7.0550   12.5020 hn        1 28Z      0.263300
     60 H20         0.3720    8.9850   14.3210 hx        1 28Z      0.096700
     61 H22         2.7370    9.6190   14.8520 hc        1 28Z      0.064200
     62 H23         3.2780    8.1350   14.0570 hc        1 28Z      0.064200
     63 H24         1.9370    6.7940   15.6450 hc        1 28Z      0.001200
     64 H25         1.3950    8.2790   16.4400 hc        1 28Z      0.001200
     65 H231        4.9390   -0.0090   -2.1610 hn        1 28Z      0.215133
     66 HBA2       -2.3850    4.0240    9.8010 hn        1 28Z      0.258800
     67 H21         1.1970    6.6250   14.0500 hn        1 28Z      0.263300
@<TRIPOS>BOND
     1    1    2 2   
     2    2    3 1   
     3    2    4 1   
     4    3    5 ar  
     5    3    6 ar  
     6    4    7 1   
     7    4   42 1   
     8    5    8 ar  
     9    5    9 1   
    10    6   10 ar  
    11    7    9 2   
    12    7   11 1   
    13    8   12 ar  
    14   10   12 ar  
    15   10   13 1   
    16   11   43 1   
    17   11   44 1   
    18   11   65 1   
    19   12   45 1   
    20   13   14 1   
    21   13   46 1   
    22   13   47 1   
    23   14   15 1   
    24   14   48 1   
    25   15   16 ar  
    26   15   17 ar  
    27   16   18 ar  
    28   16   49 1   
    29   17   19 ar  
    30   17   50 1   
    31   18   20 ar  
    32   18   51 1   
    33   19   20 ar  
    34   19   52 1   
    35   20   21 1   
    36   21   22 2   
    37   21   23 1   
    38   23   24 1   
    39   23   53 1   
    40   23   66 1   
    41   24   25 1   
    42   24   27 1   
    43   24   54 1   
    44   25   26 1   
    45   25   31 1   
    46   27   28 1   
    47   27   55 1   
    48   27   56 1   
    49   28   29 1   
    50   28   57 1   
    51   28   58 1   
    52   29   30 2   
    53   29   32 1   
    54   32   33 1   
    55   32   59 1   
    56   32   67 1   
    57   33   34 1   
    58   33   36 1   
    59   33   60 1   
    60   34   35 1   
    61   34   41 1   
    62   36   37 1   
    63   36   61 1   
    64   36   62 1   
    65   37   38 1   
    66   37   63 1   
    67   37   64 1   
    68   38   39 1   
    69   38   40 1   
@<TRIPOS>SUBSTRUCTURE
     1 28Z         1 TEMP              0 ****  ****    0 ROOT
