@<TRIPOS>MOLECULE
290
   17    18     1     0     0
SMALL
bcc


@<TRIPOS>ATOM
      1 C4         -0.5310    0.9340   -0.0090 cc        1 290      0.008000
      2 C5         -0.7470   -0.4970   -0.0140 cd        1 290      0.113000
      3 C6          0.4170   -1.3480    0.0240 cd        1 290      0.500300
      4 C8         -2.7170    0.4370   -0.0770 cc        1 290      0.402400
      5 N1          1.6340   -0.8430    0.0620 nc        1 290     -0.642100
      6 N3          0.7260    1.4740    0.0290 n         1 290     -0.459100
      7 C2          1.8390    0.5580    0.0660 c         1 290      0.832900
      8 C61         0.1880   -2.8240    0.0200 c3        1 290     -0.143400
      9 N9         -1.7980    1.5190   -0.0500 na        1 290     -0.352900
     10 N7         -2.1190   -0.7640   -0.0560 nd        1 290     -0.599000
     11 H8         -3.7970    0.6150   -0.1120 h5        1 290      0.071100
     12 HN3         0.8930    2.4530    0.0330 hn        1 290      0.337500
     13 H61        -0.3780   -3.0970   -0.9060 hc        1 290      0.071033
     14 H61A        1.1420   -3.4040    0.0510 hc        1 290      0.071033
     15 H61B       -0.4340   -3.0940    0.9100 hc        1 290      0.071033
     16 HN9        -2.0130    2.4790   -0.0590 hn        1 290      0.312700
     17 O2          2.9620    1.0910    0.1000 o         1 290     -0.595500
@<TRIPOS>BOND
     1    1    2 2   
     2    1    6 1   
     3    1    9 1   
     4    2    3 1   
     5    2   10 1   
     6    3    5 2   
     7    3    8 1   
     8    4    9 1   
     9    4   10 2   
    10    4   11 1   
    11    5    7 1   
    12    6    7 1   
    13    6   12 1   
    14    7   17 2   
    15    8   13 1   
    16    8   14 1   
    17    8   15 1   
    18    9   16 1   
@<TRIPOS>SUBSTRUCTURE
     1 290         1 TEMP              0 ****  ****    0 ROOT
