@<TRIPOS>MOLECULE
290
   17    17     1     0     0
SMALL
bcc


@<TRIPOS>ATOM
      1 C4         -0.3960    0.2530    1.1190 ca        1 290      0.464200
      2 C5          0.9700    0.0850    0.5670 ca        1 290     -0.147200
      3 C6          2.0280   -0.0480    1.6150 ca        1 290      0.529600
      4 C8          0.7520    0.4500   -1.8150 c1        1 290      0.207400
      5 N1          1.7450   -0.1500    2.8800 nb        1 290     -0.743000
      6 N3         -0.6980    0.1610    2.3690 nb        1 290     -0.718000
      7 C2          0.3700   -0.1170    3.3080 ca        1 290      1.134000
      8 C61         3.4480   -0.0630    1.1410 c3        1 290     -0.165400
      9 N9          0.2830   -0.0580   -2.9340 n3        1 290     -0.361400
     10 N7          1.2480    0.0430   -0.7010 ne        1 290     -0.419800
     11 H8          0.2390    0.5470   -3.7230 hn        1 290      0.284700
     12 HN3        -1.2180    0.4800    0.4090 h4        1 290      0.020100
     13 H61         4.1730   -0.1190    1.9900 hc        1 290      0.066367
     14 H61A        3.6070   -0.9490    0.4770 hc        1 290      0.066367
     15 H61B        3.6510    0.8690    0.5560 hc        1 290      0.066367
     16 HN9         0.0510   -1.0180   -3.0660 hn        1 290      0.284700
     17 O2          0.0960   -0.3140    4.5000 o         1 290     -0.569000
@<TRIPOS>BOND
     1    1    2 ar  
     2    1    6 ar  
     3    1   12 1   
     4    2    3 ar  
     5    2   10 1   
     6    3    5 ar  
     7    3    8 1   
     8    4    9 2   
     9    4   10 2   
    10    5    7 ar  
    11    6    7 ar  
    12    7   17 1   
    13    8   13 1   
    14    8   14 1   
    15    8   15 1   
    16    9   11 1   
    17    9   16 1   
@<TRIPOS>SUBSTRUCTURE
     1 290         1 TEMP              0 ****  ****    0 ROOT
