@<TRIPOS>MOLECULE
290
   17    13     1     0     0
SMALL
bcc


@<TRIPOS>ATOM
      1 C4         -1.1060   -0.0160   -0.4920 cg        1 290     -0.018000
      2 C5          0.2560   -0.0160   -0.4920 ch        1 290     -0.018000
      3 C6          1.0080   -0.0160    0.8140 c1        1 290      0.519700
      4 C8         -0.4260   -0.0160   -2.5770 c1        1 290      0.354800
      5 N1          0.3060   -0.0160    2.0240 n1        1 290     -0.540800
      6 N3         -1.8360   -0.0160    0.7710 n2        1 290     -0.777800
      7 O2         -1.7250   -0.0160    3.0720 o         1 290     -0.553500
      8 C2         -1.1160   -0.0160    2.0210 c1        1 290      0.804900
      9 C61         2.5200    0.0440    0.8160 c3        1 290     -0.095000
     10 N9         -1.5240   -0.0160   -1.7800 ne        1 290     -0.428400
     11 N7          0.6730   -0.0160   -1.7790 nf        1 290     -0.428400
     12 H8         -0.4260   -0.0160   -3.5530 DU        1 290      0.235500
     13 HN3        -2.7480   -0.0160    0.7700 hn        1 290      0.495400
     14 H61         2.8130    0.8730    0.3930 hc        1 290      0.071033
     15 H61A        2.8760   -0.7180    0.3200 hc        1 290      0.071033
     16 H61B        2.8450    0.0140    1.7350 hc        1 290      0.071033
     17 HN9        -2.3910   -0.0160   -2.0620 DU        1 290      0.235500
@<TRIPOS>BOND
     1    1    2 3   
     2    1   10 1   
     3    2   11 1   
     4    3    5 3   
     5    3    9 1   
     6    4   10 2   
     7    4   11 2   
     8    6    8 2   
     9    6   13 1   
    10    7    8 2   
    11    9   14 1   
    12    9   15 1   
    13    9   16 1   
@<TRIPOS>SUBSTRUCTURE
     1 290         1 TEMP              0 ****  ****    0 ROOT
