@<TRIPOS>MOLECULE
290
   17    17     1     0     0
SMALL
bcc


@<TRIPOS>ATOM
      1 C4         -0.2060   -0.2060    0.4480 cc        1 290      0.012600
      2 C5          1.1570   -0.0610    0.2030 cd        1 290     -0.100000
      3 C6          2.0480   -0.0310    1.3760 cd        1 290      0.582600
      4 C8          1.0890    0.2250   -2.1360 c1        1 290      0.538800
      5 N1          1.5930   -0.1220    2.6070 nc        1 290     -0.628100
      6 N3         -0.6890   -0.3020    1.7190 n         1 290     -0.457100
      7 C2          0.2040   -0.2610    2.8380 c         1 290      0.810900
      8 C61         3.5190    0.1090    1.1350 c3        1 290     -0.140400
      9 N9          0.6120    0.2110   -3.2840 n2        1 290     -0.699800
     10 N7          1.7300    0.0170   -1.0710 nf        1 290     -0.502000
     11 H8          0.5220    1.0570   -3.8030 hn        1 290      0.459400
     12 HN3        -1.6630   -0.4170    1.8890 hn        1 290      0.343500
     13 H61         4.1030    0.1230    2.0880 hc        1 290      0.071033
     14 H61A        3.8700   -0.7490    0.5090 hc        1 290      0.071033
     15 H61B        3.7120    1.0610    0.5810 hc        1 290      0.071033
     16 HN9        -0.9460   -0.2530   -0.3750 h4        1 290      0.160000
     17 O2         -0.3070   -0.3500    3.9690 o         1 290     -0.592500
@<TRIPOS>BOND
     1    1    2 2   
     2    1    6 1   
     3    1   16 1   
     4    2    3 1   
     5    2   10 1   
     6    3    5 2   
     7    3    8 1   
     8    4    9 2   
     9    4   10 2   
    10    5    7 1   
    11    6    7 1   
    12    6   12 1   
    13    7   17 2   
    14    8   13 1   
    15    8   14 1   
    16    8   15 1   
    17    9   11 1   
@<TRIPOS>SUBSTRUCTURE
     1 290         1 TEMP              0 ****  ****    0 ROOT
