@<TRIPOS>MOLECULE
291
   39    39     1     0     0
SMALL
bcc


@<TRIPOS>ATOM
      1 C1          1.8570   -0.7960   -0.9760 c3        1 291      0.309900
      2 C2          3.0900    0.0400   -0.5770 c3        1 291      0.095100
      3 C3          2.8210    0.8620    0.6900 c3        1 291      0.116100
      4 C4          1.4750    1.5990    0.5880 c3        1 291      0.091100
      5 C5          0.3540    0.5970    0.2820 c3        1 291      0.116100
      6 C6         -0.9830    1.3230    0.0520 c3        1 291      0.147100
      7 C7         -2.1040    0.2890   -0.0900 c3        1 291      0.123400
      8 O1          1.7590   -1.8560   -0.0480 os        1 291     -0.448600
      9 O2          3.4060    0.9650   -1.6050 oh        1 291     -0.596800
     10 O3          3.8610    1.7820    0.9460 oh        1 291     -0.594800
     11 O4          1.1570    2.2140    1.8250 oh        1 291     -0.594800
     12 O5          0.6320   -0.0970   -0.9380 os        1 291     -0.448600
     13 O6         -0.9240    2.1730   -1.0740 oh        1 291     -0.583800
     14 O7         -3.3050    0.9560    0.3290 os        1 291     -0.438900
     15 C8         -4.4640    0.2240    0.1580 c         1 291      0.735100
     16 N1         -5.5800    0.8590    0.6370 n         1 291     -0.641000
     17 O8         -4.3970   -0.9060   -0.3580 o         1 291     -0.597000
     18 C9          0.7860   -2.8460   -0.4100 c3        1 291      0.162600
     19 C10         0.8380   -3.9080    0.6300 c2        1 291     -0.172200
     20 C11        -0.0220   -4.9220    0.6620 c2        1 291     -0.214000
     21 H1          1.9320   -1.1620   -2.0400 h2        1 291      0.074700
     22 H2          3.9570   -0.6540   -0.3980 h1        1 291      0.072700
     23 H3          2.8150    0.1720    1.5820 h1        1 291      0.103700
     24 H4          1.5210    2.3770   -0.2250 h1        1 291      0.073700
     25 H5          0.2630   -0.1440    1.1220 h1        1 291      0.076700
     26 H6         -1.1770    2.0130    0.9230 h1        1 291      0.119700
     27 H7         -2.2130   -0.0520   -1.1520 h1        1 291      0.062200
     28 H7A        -1.9360   -0.5990    0.5720 h1        1 291      0.062200
     29 HO2         3.6990    0.4530   -2.3690 ho        1 291      0.413000
     30 HO3         3.9910    2.3050    0.1430 ho        1 291      0.421000
     31 HO4         1.9490    2.6960    2.1010 ho        1 291      0.421000
     32 HO6        -0.6740    1.6300   -1.8340 ho        1 291      0.410000
     33 HN1        -5.5170    1.8070    0.9110 hn        1 291      0.326000
     34 HN1A       -6.4610    0.4750    0.4030 hn        1 291      0.326000
     35 H9         -0.2270   -2.3600   -0.4560 h1        1 291      0.047200
     36 H9A         1.0430   -3.2600   -1.4230 h1        1 291      0.047200
     37 H10         1.6440   -3.7960    1.3740 ha        1 291      0.141000
     38 H11        -0.8340   -5.0410   -0.0680 ha        1 291      0.117500
     39 H11A        0.0290   -5.7040    1.4310 ha        1 291      0.117500
@<TRIPOS>BOND
     1    1    2 1   
     2    1    8 1   
     3    1   12 1   
     4    1   21 1   
     5    2    3 1   
     6    2    9 1   
     7    2   22 1   
     8    3    4 1   
     9    3   10 1   
    10    3   23 1   
    11    4    5 1   
    12    4   11 1   
    13    4   24 1   
    14    5    6 1   
    15    5   12 1   
    16    5   25 1   
    17    6    7 1   
    18    6   13 1   
    19    6   26 1   
    20    7   14 1   
    21    7   27 1   
    22    7   28 1   
    23    8   18 1   
    24    9   29 1   
    25   10   30 1   
    26   11   31 1   
    27   13   32 1   
    28   14   15 1   
    29   15   16 1   
    30   15   17 2   
    31   16   33 1   
    32   16   34 1   
    33   18   19 1   
    34   18   35 1   
    35   18   36 1   
    36   19   20 2   
    37   19   37 1   
    38   20   38 1   
    39   20   39 1   
@<TRIPOS>SUBSTRUCTURE
     1 291         1 TEMP              0 ****  ****    0 ROOT
