@<TRIPOS>MOLECULE
291
   39    38     1     0     0
SMALL
bcc


@<TRIPOS>ATOM
      1 C1          0.4470   -0.4020   -1.9730 c3        1 291      0.119000
      2 C2          1.8290   -0.3790   -1.9460 c3        1 291     -0.016000
      3 C3          2.3870   -0.3410   -0.6450 c3        1 291      0.012000
      4 C4          1.8230    0.7480    0.2160 c3        1 291     -0.025000
      5 C5          0.2750    0.7250    0.3390 c3        1 291      0.014000
      6 C6         -0.1960    1.8660    0.9630 c3        1 291      0.014000
      7 C7         -1.2270    1.4550    2.1070 c3        1 291     -0.037000
      8 O1         -0.0130   -1.7260   -1.4450 os        1 291     -0.308000
      9 O2          2.3240    0.8800   -2.7320 oh        1 291     -0.318000
     10 O3          3.8510   -0.1300   -0.7650 oh        1 291     -0.308000
     11 O4          2.3700    0.6260    1.5000 oh        1 291     -0.302000
     12 O5         -0.1850    0.6690   -1.1680 os        1 291     -0.280000
     13 O6         -0.8540    2.6860    0.0100 oh        1 291     -0.312000
     14 O7         -1.5310    2.6040    2.9100 os        1 291     -0.293000
     15 C8         -2.5220    2.3860    3.8560 c2        1 291      0.388000
     16 N1         -2.7060    3.3140    4.9170 n         1 291     -0.404000
     17 O8         -3.1950    1.3950    3.8040 o         1 291     -0.400000
     18 C9         -0.8460   -2.4330   -2.3240 c3        1 291      0.009000
     19 C10        -1.0150   -3.8670   -1.8230 c2        1 291     -0.164000
     20 C11        -1.8180   -4.7600   -2.5270 c1        1 291     -0.219000
     21 H1          0.1410   -0.3090   -2.9280 h2        1 291      0.113000
     22 H2          2.1530   -1.1670   -2.3930 h1        1 291      0.109000
     23 H3          2.2290   -1.1810   -0.2180 h1        1 291      0.128000
     24 H4          2.0790    1.5640   -0.1370 h1        1 291      0.160000
     25 H5         -0.0290   -0.0990    0.8320 h1        1 291      0.095000
     26 H6          0.5820    2.3780    1.3750 h1        1 291      0.114000
     27 H7         -2.0650    1.1110    1.6910 h1        1 291      0.124000
     28 H7A        -0.8210    0.7400    2.6820 h1        1 291      0.124000
     29 HO2         2.5880    0.6340   -3.5640 ho        1 291      0.209000
     30 HO3         4.2770   -0.9190   -0.6860 ho        1 291      0.220000
     31 HO4         2.7290   -0.1690    1.5890 ho        1 291      0.200000
     32 HO6        -0.6090    3.5240    0.1250 ho        1 291      0.208000
     33 HN1        -3.4090    3.2220    5.4820 hn        1 291      0.242500
     34 HN1A       -2.1150    4.0840    4.9990 hn        1 291      0.242500
     35 H9         -1.7010   -2.0070   -2.3660 h1        1 291      0.083500
     36 H9A        -0.4640   -2.4440   -3.1730 h1        1 291      0.083500
     37 H10        -0.5580   -4.1570   -1.0070 ha        1 291      0.143000
     38 H11        -2.2840   -4.4630   -3.3610 DU        1 291      0.111000
     39 H11A       -1.9240   -5.6610   -2.2130 ha        1 291      0.119000
@<TRIPOS>BOND
     1    1    2 1   
     2    1    8 1   
     3    1   12 1   
     4    1   21 1   
     5    2    3 1   
     6    2    9 1   
     7    2   22 1   
     8    3    4 1   
     9    3   10 1   
    10    3   23 1   
    11    4    5 1   
    12    4   11 1   
    13    4   24 1   
    14    5    6 1   
    15    5   12 1   
    16    5   25 1   
    17    6    7 1   
    18    6   13 1   
    19    6   26 1   
    20    7   14 1   
    21    7   27 1   
    22    7   28 1   
    23    8   18 1   
    24    9   29 1   
    25   10   30 1   
    26   11   31 1   
    27   13   32 1   
    28   14   15 1   
    29   15   16 1   
    30   15   17 1   
    31   16   33 1   
    32   16   34 1   
    33   18   19 1   
    34   18   35 1   
    35   18   36 1   
    36   19   20 1   
    37   19   37 1   
    38   20   39 1   
@<TRIPOS>SUBSTRUCTURE
     1 291         1 TEMP              0 ****  ****    0 ROOT
