@<TRIPOS>MOLECULE
292
   39    42     1     0     0
SMALL
bcc


@<TRIPOS>ATOM
      1 C1         -2.1370    0.0150   -6.2260 cx        1 292     -0.119900
      2 C2         -0.8420    0.6520   -6.6230 cx        1 292     -0.119900
      3 C3         -0.8620   -0.3740   -5.5160 cx        1 292     -0.159000
      4 C4         -0.6280    0.0220   -4.1300 cc        1 292      0.357600
      5 C5          0.1000   -0.7860   -3.1700 cc        1 292     -0.289300
      6 C6          0.0890   -0.0290   -1.9810 cd        1 292      0.019300
      7 N7         -0.5750    1.1940   -2.2980 na        1 292     -0.041600
      8 N8         -1.0490    1.1810   -3.5470 nd        1 292     -0.524800
      9 N9          0.6530   -0.2950   -0.7350 n         1 292     -0.457100
     10 C10         1.4740   -1.3880   -0.4780 c         1 292      0.673100
     11 C11         2.0510   -1.4970    0.9260 c3        1 292     -0.111100
     12 C12         1.1370   -1.0350    2.0030 ca        1 292     -0.097300
     13 C13         1.2380    0.2380    2.5220 ca        1 292     -0.123000
     14 C14         0.3720    0.6690    3.5620 ca        1 292     -0.039000
     15 C15        -0.6050   -0.2260    4.0670 ca        1 292     -0.034000
     16 C16        -0.6890   -1.5360    3.5190 ca        1 292     -0.109000
     17 C17         0.1590   -1.9300    2.5150 ca        1 292     -0.120000
     18 C18        -1.4720    0.2070    5.1070 ca        1 292     -0.117000
     19 C19         0.4630    1.9780    4.1120 ca        1 292     -0.120000
     20 C20        -0.3860    2.3710    5.1170 ca        1 292     -0.122000
     21 C21        -1.3630    1.4770    5.6190 ca        1 292     -0.122000
     22 O22         1.7580   -2.2300   -1.3470 o         1 292     -0.575100
     23 H1C1       -2.6050   -0.7230   -6.9000 hc        1 292      0.074700
     24 H1C2       -2.8880    0.6190   -5.6860 hc        1 292      0.074700
     25 H2C1       -0.6640    1.7120   -6.3670 hc        1 292      0.074700
     26 H2C2       -0.3750    0.3740   -7.5850 hc        1 292      0.074700
     27 H3         -0.4350   -1.3760   -5.7290 hc        1 292      0.088700
     28 H5          0.5640   -1.7540   -3.3300 ha        1 292      0.192000
     29 H7         -0.9860    1.8120   -1.6370 hn        1 292      0.306700
     30 H9          0.4270    0.3110    0.0220 hn        1 292      0.327500
     31 H111        2.3190   -2.5770    1.0860 hc        1 292      0.088700
     32 H112        3.0060   -0.9040    0.9370 hc        1 292      0.088700
     33 H13         1.9990    0.9390    2.1470 ha        1 292      0.135000
     34 H16        -1.4470   -2.2270    3.9180 ha        1 292      0.139000
     35 H17         0.0950   -2.9450    2.0930 ha        1 292      0.143000
     36 H18        -2.2270   -0.4950    5.4920 ha        1 292      0.137000
     37 H19         1.2270    2.6650    3.7180 ha        1 292      0.134000
     38 H20        -0.3180    3.3820    5.5450 ha        1 292      0.136000
     39 H21        -2.0320    1.8160    6.4250 ha        1 292      0.136000
@<TRIPOS>BOND
     1    1    2 1   
     2    1    3 1   
     3    1   23 1   
     4    1   24 1   
     5    2    3 1   
     6    2   25 1   
     7    2   26 1   
     8    3    4 1   
     9    3   27 1   
    10    4    5 1   
    11    4    8 2   
    12    5    6 2   
    13    5   28 1   
    14    6    7 1   
    15    6    9 1   
    16    7    8 1   
    17    7   29 1   
    18    9   10 1   
    19    9   30 1   
    20   10   11 1   
    21   10   22 2   
    22   11   12 1   
    23   11   31 1   
    24   11   32 1   
    25   12   13 ar  
    26   12   17 ar  
    27   13   14 ar  
    28   13   33 1   
    29   14   15 ar  
    30   14   19 ar  
    31   15   16 ar  
    32   15   18 ar  
    33   16   17 ar  
    34   16   34 1   
    35   17   35 1   
    36   18   21 ar  
    37   18   36 1   
    38   19   20 ar  
    39   19   37 1   
    40   20   21 ar  
    41   20   38 1   
    42   21   39 1   
@<TRIPOS>SUBSTRUCTURE
     1 292         1 TEMP              0 ****  ****    0 ROOT
