@<TRIPOS>MOLECULE
292
   39    42     1     0     0
SMALL
bcc


@<TRIPOS>ATOM
      1 C1          0.5550    0.0510   -0.1330 cx        1 292     -0.119900
      2 C2          0.2100    1.5000   -0.2820 cx        1 292     -0.119900
      3 C3          1.1750    1.0670    0.7950 cx        1 292     -0.159000
      4 C4          0.7940    1.1240    2.2040 cc        1 292      0.357600
      5 C5          1.7040    1.4840    3.2750 cc        1 292     -0.289300
      6 C6          0.9240    1.4160    4.4470 cd        1 292      0.019300
      7 N7         -0.3990    1.0890    4.0230 na        1 292     -0.041600
      8 N8         -0.4440    0.8570    2.7080 nd        1 292     -0.524800
      9 N9          1.2620    1.6780    5.7730 ns        1 292     -0.457100
     10 C10         2.4920    2.1930    6.1680 c         1 292      0.673100
     11 C11         2.6740    2.4720    7.6530 c3        1 292     -0.111100
     12 C12         2.0000    1.4950    8.5480 ca        1 292     -0.097300
     13 C13         0.7600    1.7640    9.0870 ca        1 292     -0.122000
     14 C14         0.1270    0.8350    9.9540 ca        1 292     -0.039000
     15 C15         0.7850   -0.3830   10.2640 ca        1 292     -0.034000
     16 C16         2.0650   -0.6380    9.6990 ca        1 292     -0.109000
     17 C17         2.6570    0.2760    8.8650 ca        1 292     -0.120000
     18 C18         0.1500   -1.3130   11.1310 ca        1 292     -0.117000
     19 C19        -1.1510    1.0960   10.5210 ca        1 292     -0.120000
     20 C20        -1.7410    0.1800   11.3570 ca        1 292     -0.122000
     21 C21        -1.0850   -1.0370   11.6640 ca        1 292     -0.122000
     22 O22         3.4010    2.4470    5.3600 o         1 292     -0.575100
     23 H1C1       -0.2070   -0.6430    0.2650 hc        1 292      0.074700
     24 H1C2        1.2020   -0.4320   -0.8860 hc        1 292      0.074700
     25 H2C1        0.6090    2.0640   -1.1440 hc        1 292      0.074700
     26 H2C2       -0.7980    1.8440    0.0090 hc        1 292      0.074700
     27 H3          2.2500    1.3080    0.6570 hc        1 292      0.088700
     28 H5          2.7510    1.7560    3.1950 ha        1 292      0.192000
     29 H7         -1.1080    0.7040    4.6020 hn        1 292      0.306700
     30 H9          0.6000    1.4510    6.4810 hn        1 292      0.327500
     31 H111        2.2910    3.5120    7.8430 hc        1 292      0.088700
     32 H112        3.7810    2.4760    7.8520 hc        1 292      0.088700
     33 H13         0.2430    2.7110    8.8630 ha        1 292      0.135000
     34 H16         2.5720   -1.5840    9.9470 ha        1 292      0.139000
     35 H17         3.6500    0.0780    8.4300 ha        1 292      0.143000
     36 H18         0.6690   -2.2550   11.3650 ha        1 292      0.137000
     37 H19        -1.6520    2.0450   10.2800 ha        1 292      0.134000
     38 H20        -2.7290    0.3800   11.7980 ha        1 292      0.136000
     39 H21        -1.5790   -1.7540   12.3360 ha        1 292      0.136000
@<TRIPOS>BOND
     1    1    2 1   
     2    1    3 1   
     3    1   23 1   
     4    1   24 1   
     5    2    3 1   
     6    2   25 1   
     7    2   26 1   
     8    3    4 1   
     9    3   27 1   
    10    4    5 1   
    11    4    8 2   
    12    5    6 2   
    13    5   28 1   
    14    6    7 1   
    15    6    9 1   
    16    7    8 1   
    17    7   29 1   
    18    9   10 1   
    19    9   30 1   
    20   10   11 1   
    21   10   22 2   
    22   11   12 1   
    23   11   31 1   
    24   11   32 1   
    25   12   13 ar  
    26   12   17 ar  
    27   13   14 ar  
    28   13   33 1   
    29   14   15 ar  
    30   14   19 ar  
    31   15   16 ar  
    32   15   18 ar  
    33   16   17 ar  
    34   16   34 1   
    35   17   35 1   
    36   18   21 ar  
    37   18   36 1   
    38   19   20 ar  
    39   19   37 1   
    40   20   21 ar  
    41   20   38 1   
    42   21   39 1   
@<TRIPOS>SUBSTRUCTURE
     1 292         1 TEMP              0 ****  ****    0 ROOT
