@<TRIPOS>MOLECULE
292
   39    35     1     0     0
SMALL
bcc


@<TRIPOS>ATOM
      1 C1          3.2080   -3.7540   -4.8390 cx        1 292     -0.205000
      2 C2          3.4740   -2.5010   -5.6570 cx        1 292     -0.205000
      3 C3          3.7700   -2.5130   -4.1660 cx        1 292     -0.094000
      4 C4          2.7850   -1.7290   -3.2860 c2        1 292     -0.072000
      5 C5          2.1810   -2.1920   -2.1470 c1        1 292     -0.272000
      6 C6          1.4740   -1.1590   -1.5940 c1        1 292      0.054000
      7 N7          1.6400   -0.0700   -2.3830 n2        1 292     -0.152000
      8 N8          2.4540   -0.4250   -3.4340 n2        1 292     -0.078000
      9 N9          0.6930   -1.2190   -0.3890 n2        1 292     -0.303000
     10 C10         1.0540   -0.4090    0.7420 c2        1 292      0.313000
     11 C11         0.2840   -0.5500    2.0610 c3        1 292     -0.143000
     12 C12        -0.6020    0.6830    2.2690 c2        1 292     -0.093000
     13 C13        -1.9790    0.4700    2.2450 c2        1 292     -0.120000
     14 C14        -2.8590    1.4940    2.6590 c1        1 292     -0.039000
     15 C15        -2.3560    2.7050    3.0870 c1        1 292     -0.033000
     16 C16        -0.9590    2.9200    3.1100 c1        1 292     -0.113000
     17 C17        -0.0920    1.9090    2.7020 c1        1 292     -0.120000
     18 C18        -3.2370    3.7320    3.4910 c1        1 292     -0.113000
     19 C19        -4.2550    1.2820    2.6260 c1        1 292     -0.119000
     20 C20        -5.1230    2.2960    3.0260 c1        1 292     -0.121500
     21 C21        -4.6130    3.5220    3.4590 c1        1 292     -0.121500
     22 O22         2.0220    0.3280    0.6790 o         1 292     -0.370000
     23 H1C1        3.8430   -4.4930   -4.9710 hc        1 292      0.111500
     24 H1C2        2.2650   -3.9490   -4.6550 hc        1 292      0.111500
     25 H2C1        2.6800   -1.9950   -5.9300 hc        1 292      0.111500
     26 H2C2        4.2600   -2.5370   -6.2480 hc        1 292      0.111500
     27 H3          4.7200   -2.5540   -3.9200 hc        1 292      0.137000
     28 H5          2.2440   -3.1040   -1.7900 DU        1 292      0.231500
     29 H7          1.2730    0.7580   -2.2410 DU        1 292      0.231500
     30 H9         -0.0270   -1.7850   -0.3370 hn        1 292      0.257000
     31 H111       -0.2780   -1.3540    2.0270 hc        1 292      0.129000
     32 H112        0.9210   -0.6260    2.8060 hc        1 292      0.129000
     33 H13        -2.3360   -0.4020    1.9720 ha        1 292      0.135000
     34 H16        -0.6010    3.7810    3.4150 ha        1 292      0.137500
     35 H17         0.8780    2.0460    2.7530 ha        1 292      0.141000
     36 H18        -2.8790    4.5930    3.7950 ha        1 292      0.137500
     37 H19        -4.6130    0.4210    2.3220 ha        1 292      0.135000
     38 H20        -6.0930    2.1490    3.0030 ha        1 292      0.136000
     39 H21        -5.2250    4.2360    3.7400 ha        1 292      0.136000
@<TRIPOS>BOND
     1    1    2 1   
     2    1    3 1   
     3    1   23 1   
     4    1   24 1   
     5    2    3 1   
     6    2   25 1   
     7    2   26 1   
     8    3    4 1   
     9    3   27 1   
    10    4    5 1   
    11    4    8 1   
    12    5    6 1   
    13    6    7 1   
    14    7    8 1   
    15    9   10 1   
    16    9   30 1   
    17   10   11 1   
    18   10   22 1   
    19   11   12 1   
    20   11   31 1   
    21   11   32 1   
    22   12   13 1   
    23   12   17 1   
    24   13   14 1   
    25   13   33 1   
    26   14   19 1   
    27   15   16 1   
    28   15   18 1   
    29   16   34 1   
    30   17   35 1   
    31   18   36 1   
    32   19   37 1   
    33   20   21 1   
    34   20   38 1   
    35   21   39 1   
@<TRIPOS>SUBSTRUCTURE
     1 292         1 TEMP              0 ****  ****    0 ROOT
