@<TRIPOS>MOLECULE
292
   40    43     1     0     0
SMALL
bcc


@<TRIPOS>ATOM
      1 C1         -0.5310    0.0280    0.5360 cx        1 292     -0.099900
      2 C2          0.9040   -0.3040    0.2820 cx        1 292     -0.099900
      3 C3          0.3890   -0.2510    1.7030 cx        1 292     -0.202000
      4 C4          0.7970    0.8220    2.6020 cc        1 292      0.375600
      5 C5          1.0260    0.6650    4.0190 cc        1 292     -0.202300
      6 C6          1.4010    1.9560    4.4580 cd        1 292     -0.143700
      7 N7          1.3950    2.7930    3.3180 na        1 292      0.029400
      8 N8          1.0260    2.1300    2.2400 nd        1 292     -0.431800
      9 N9          1.7730    2.3680    5.7910 n4        1 292     -0.518200
     10 C10         1.0140    3.6090    6.2560 c         1 292      0.565100
     11 C11         0.1650    3.4500    7.4850 c3        1 292     -0.091100
     12 C12         0.5980    2.3520    8.3840 ca        1 292     -0.185300
     13 C13        -0.0770    1.1490    8.4060 ca        1 292     -0.091000
     14 C14         0.3120    0.1170    9.3010 ca        1 292     -0.051000
     15 C15         1.4020    0.3400   10.1840 ca        1 292     -0.023000
     16 C16         2.0710    1.5960   10.1530 ca        1 292     -0.084000
     17 C17         1.6810    2.5770    9.2770 ca        1 292     -0.151000
     18 C18         1.7860   -0.6880   11.0850 ca        1 292     -0.119000
     19 C19        -0.3730   -1.1270    9.3430 ca        1 292     -0.121000
     20 C20         0.0180   -2.1040   10.2270 ca        1 292     -0.101000
     21 C21         1.1070   -1.8830   11.1050 ca        1 292     -0.094000
     22 O22         1.1770    4.6090    5.5760 o         1 292     -0.428100
     23 H1C1       -1.3110   -0.7200    0.3020 hc        1 292      0.088450
     24 H1C2       -0.8840    1.0600    0.3630 hc        1 292      0.088450
     25 H2C1        1.5860    0.4900   -0.0730 hc        1 292      0.088450
     26 H2C2        1.1680   -1.2920   -0.1360 hc        1 292      0.088450
     27 H3          0.2640   -1.2120    2.2460 hc        1 292      0.098700
     28 H5          0.9330   -0.2490    4.5980 ha        1 292      0.191000
     29 H7          1.5420    3.7830    3.2960 hn        1 292      0.359700
     30 H9          1.5710    1.5810    6.4310 hn        1 292      0.477800
     31 H111       -0.8960    3.2930    7.1300 hc        1 292      0.131200
     32 H112        0.1930    4.4400    8.0300 hc        1 292      0.131200
     33 H13        -0.9470    0.9740    7.7520 ha        1 292      0.142000
     34 H16         2.9020    1.7690   10.8570 ha        1 292      0.158000
     35 H17         2.1810    3.5580    9.2810 ha        1 292      0.142000
     36 H18         2.6300   -0.5070   11.7690 ha        1 292      0.152000
     37 H19        -1.2250   -1.2890    8.6650 ha        1 292      0.143000
     38 H20        -0.5140   -3.0680   10.2680 ha        1 292      0.155000
     39 H21         1.3990   -2.6820   11.8060 ha        1 292      0.156000
     40 H92         2.7840    2.5640    5.8130 hn        1 292      0.477800
@<TRIPOS>BOND
     1    1    2 1   
     2    1    3 1   
     3    1   23 1   
     4    1   24 1   
     5    2    3 1   
     6    2   25 1   
     7    2   26 1   
     8    3    4 1   
     9    3   27 1   
    10    4    5 1   
    11    4    8 2   
    12    5    6 2   
    13    5   28 1   
    14    6    7 1   
    15    6    9 1   
    16    7    8 1   
    17    7   29 1   
    18    9   10 1   
    19    9   30 1   
    20    9   40 1   
    21   10   11 1   
    22   10   22 2   
    23   11   12 1   
    24   11   31 1   
    25   11   32 1   
    26   12   13 ar  
    27   12   17 ar  
    28   13   14 ar  
    29   13   33 1   
    30   14   15 ar  
    31   14   19 ar  
    32   15   16 ar  
    33   15   18 ar  
    34   16   17 ar  
    35   16   34 1   
    36   17   35 1   
    37   18   21 ar  
    38   18   36 1   
    39   19   20 ar  
    40   19   37 1   
    41   20   21 ar  
    42   20   38 1   
    43   21   39 1   
@<TRIPOS>SUBSTRUCTURE
     1 292         1 TEMP              0 ****  ****    0 ROOT
