@<TRIPOS>MOLECULE
292
   39    42     1     0     0
SMALL
bcc


@<TRIPOS>ATOM
      1 C1          0.7060    0.0080   -0.1320 cx        1 292     -0.119900
      2 C2          0.2870    1.4360   -0.2950 cx        1 292     -0.119900
      3 C3          1.2560    1.0600    0.8010 cx        1 292     -0.159000
      4 C4          0.8480    1.1030    2.2020 cc        1 292      0.357600
      5 C5          1.7200    1.5160    3.2860 cc        1 292     -0.289300
      6 C6          0.9260    1.4110    4.4460 cd        1 292      0.019300
      7 N7         -0.3710    1.0110    4.0020 na        1 292     -0.041600
      8 N8         -0.3820    0.7710    2.6880 nd        1 292     -0.524800
      9 N9          1.2270    1.6980    5.7760 n         1 292     -0.457100
     10 C10         2.4210    2.2790    6.1880 c         1 292      0.673100
     11 C11         2.5640    2.5740    7.6740 c3        1 292     -0.111100
     12 C12         1.9270    1.5680    8.5630 ca        1 292     -0.097300
     13 C13         0.6650    1.7740    9.0790 ca        1 292     -0.123000
     14 C14         0.0670    0.8170    9.9420 ca        1 292     -0.039000
     15 C15         0.7830   -0.3620   10.2710 ca        1 292     -0.034000
     16 C16         2.0840   -0.5520    9.7300 ca        1 292     -0.109000
     17 C17         2.6420    0.3870    8.9000 ca        1 292     -0.120000
     18 C18         0.1830   -1.3200   11.1330 ca        1 292     -0.117000
     19 C19        -1.2320    1.0140   10.4860 ca        1 292     -0.120000
     20 C20        -1.7880    0.0720   11.3170 ca        1 292     -0.122000
     21 C21        -1.0740   -1.1060   11.6430 ca        1 292     -0.122000
     22 O22         3.3290    2.5770    5.3930 o         1 292     -0.575100
     23 H1C1       -0.0240   -0.7250    0.2570 hc        1 292      0.074700
     24 H1C2        1.3910   -0.4420   -0.8730 hc        1 292      0.074700
     25 H2C1        0.6680    2.0170   -1.1530 hc        1 292      0.074700
     26 H2C2       -0.7430    1.7270   -0.0210 hc        1 292      0.074700
     27 H3          2.3180    1.3580    0.6780 hc        1 292      0.088700
     28 H5          2.7520    1.8450    3.2210 ha        1 292      0.192000
     29 H7         -1.0670    0.5910    4.5720 hn        1 292      0.306700
     30 H9          0.5660    1.4380    6.4740 hn        1 292      0.327500
     31 H111        2.1240    3.5930    7.8520 hc        1 292      0.088700
     32 H112        3.6650    2.6370    7.8910 hc        1 292      0.088700
     33 H13         0.1030    2.6910    8.8410 ha        1 292      0.135000
     34 H16         2.6360   -1.4680    9.9920 ha        1 292      0.139000
     35 H17         3.6500    0.2400    8.4830 ha        1 292      0.143000
     36 H18         0.7470   -2.2320   11.3820 ha        1 292      0.137000
     37 H19        -1.7790    1.9330   10.2290 ha        1 292      0.134000
     38 H20        -2.7930    0.2220   11.7400 ha        1 292      0.136000
     39 H21        -1.5410   -1.8450   12.3120 ha        1 292      0.136000
@<TRIPOS>BOND
     1    1    2 1   
     2    1    3 1   
     3    1   23 1   
     4    1   24 1   
     5    2    3 1   
     6    2   25 1   
     7    2   26 1   
     8    3    4 1   
     9    3   27 1   
    10    4    5 1   
    11    4    8 2   
    12    5    6 2   
    13    5   28 1   
    14    6    7 1   
    15    6    9 1   
    16    7    8 1   
    17    7   29 1   
    18    9   10 1   
    19    9   30 1   
    20   10   11 1   
    21   10   22 2   
    22   11   12 1   
    23   11   31 1   
    24   11   32 1   
    25   12   13 ar  
    26   12   17 ar  
    27   13   14 ar  
    28   13   33 1   
    29   14   15 ar  
    30   14   19 ar  
    31   15   16 ar  
    32   15   18 ar  
    33   16   17 ar  
    34   16   34 1   
    35   17   35 1   
    36   18   21 ar  
    37   18   36 1   
    38   19   20 ar  
    39   19   37 1   
    40   20   21 ar  
    41   20   38 1   
    42   21   39 1   
@<TRIPOS>SUBSTRUCTURE
     1 292         1 TEMP              0 ****  ****    0 ROOT
