@<TRIPOS>MOLECULE
293
   27    27     1     0     0
SMALL
bcc


@<TRIPOS>ATOM
      1 C1         -0.2820   -0.9760   -1.9580 c3        1 293      0.338900
      2 C2          1.0860   -0.9760   -1.9580 c3        1 293     -0.128400
      3 C3          1.6680   -0.9760   -0.6830 c3        1 293      0.103100
      4 C4          1.1430    0.1040    0.2140 c3        1 293      0.126100
      5 C5         -0.3970    0.1070    0.3670 c3        1 293      0.153100
      6 C6         -0.8270    1.2480    1.0160 c3        1 293      0.153100
      7 C7         -2.0760    0.9100    1.8850 c3        1 293      0.092400
      8 O1         -0.7470   -2.2750   -1.4640 oh        1 293     -0.629800
      9 O3          3.1500   -0.7910   -0.8350 oh        1 293     -0.605800
     10 O4          1.7260   -0.0590    1.5060 oh        1 293     -0.600800
     11 O5         -0.8830    0.0920   -1.1140 os        1 293     -0.441600
     12 O6         -1.1810    2.2610    0.0320 oh        1 293     -0.594800
     13 O7         -2.5240    2.0780    2.5380 oh        1 293     -0.613800
     14 H1         -0.5940   -0.8600   -2.8760 h2        1 293      0.072700
     15 H2          1.3950   -1.7680   -2.4370 hc        1 293      0.070700
     16 H2A         1.3950   -0.1840   -2.4380 hc        1 293      0.070700
     17 H3          1.5000   -1.8410   -0.2630 h1        1 293      0.062700
     18 H4          1.4210    0.9680   -0.1460 h1        1 293      0.082700
     19 H5         -0.6990   -0.6930    0.8370 h1        1 293      0.061700
     20 H6         -0.1130    1.5850    1.5890 h1        1 293      0.071700
     21 H7         -2.7880    0.5650    1.3120 h1        1 293      0.040700
     22 H7A        -1.8380    0.2360    2.5490 h1        1 293      0.040700
     23 HO1        -1.3500   -2.6070   -2.0260 ho        1 293      0.417000
     24 HO3         3.5600   -1.5670   -0.6990 ho        1 293      0.408000
     25 HO4         2.4230    0.4840    1.5870 ho        1 293      0.422000
     26 HO6        -0.9950    3.0660    0.3560 ho        1 293      0.419000
     27 HO7        -3.1720    1.8680    3.1070 ho        1 293      0.408000
@<TRIPOS>BOND
     1    1    2 1   
     2    1    8 1   
     3    1   11 1   
     4    1   14 1   
     5    2    3 1   
     6    2   15 1   
     7    2   16 1   
     8    3    4 1   
     9    3    9 1   
    10    3   17 1   
    11    4    5 1   
    12    4   10 1   
    13    4   18 1   
    14    5    6 1   
    15    5   11 1   
    16    5   19 1   
    17    6    7 1   
    18    6   12 1   
    19    6   20 1   
    20    7   13 1   
    21    7   21 1   
    22    7   22 1   
    23    8   23 1   
    24    9   24 1   
    25   10   25 1   
    26   12   26 1   
    27   13   27 1   
@<TRIPOS>SUBSTRUCTURE
     1 293         1 TEMP              0 ****  ****    0 ROOT
