@<TRIPOS>MOLECULE
293
   27    27     1     0     0
SMALL
bcc


@<TRIPOS>ATOM
      1 C1          1.1560    1.7640    0.3720 c3        1 293      0.344900
      2 C2          2.3250    0.7940    0.4870 c3        1 293     -0.130400
      3 C3          2.0580   -0.4750   -0.3090 c3        1 293      0.103100
      4 C4          0.6850   -1.0600    0.0660 c3        1 293      0.126100
      5 C5         -0.4000    0.0040   -0.1610 c3        1 293      0.115100
      6 C6         -1.7670   -0.4970    0.3280 c3        1 293      0.149100
      7 C7         -2.8850    0.4620   -0.0970 c3        1 293      0.097400
      8 O1          1.1220    2.2790   -0.9400 oh        1 293     -0.625800
      9 O3          3.0090   -1.4850   -0.0010 oh        1 293     -0.605800
     10 O4          0.3730   -2.1580   -0.7730 oh        1 293     -0.592800
     11 O5         -0.1140    1.1820    0.6020 os        1 293     -0.469600
     12 O6         -1.7980   -0.6690    1.7310 oh        1 293     -0.591800
     13 O7         -2.9830    0.4000   -1.5090 oh        1 293     -0.597800
     14 H1          1.2220    2.5900    1.1380 h2        1 293      0.069700
     15 H2          3.2520    1.2950    0.1090 hc        1 293      0.069700
     16 H2A         2.4720    0.5380    1.5670 hc        1 293      0.069700
     17 H3          2.0810   -0.2510   -1.4120 h1        1 293      0.066700
     18 H4          0.6850   -1.3870    1.1430 h1        1 293      0.068700
     19 H5         -0.4630    0.2720   -1.2520 h1        1 293      0.089700
     20 H6         -1.9410   -1.5250   -0.1020 h1        1 293      0.113700
     21 H7         -3.8490    0.1420    0.3830 h1        1 293      0.033700
     22 H7A        -2.6390    1.5090    0.2250 h1        1 293      0.033700
     23 HO1         0.3050    2.7840   -1.0320 ho        1 293      0.422000
     24 HO3         3.8690   -1.1550   -0.2850 ho        1 293      0.408000
     25 HO4         1.0930   -2.7940   -0.6610 ho        1 293      0.422000
     26 HO6        -1.5290    0.1700    2.1290 ho        1 293      0.410000
     27 HO7        -3.7770    0.8910   -1.7500 ho        1 293      0.403000
@<TRIPOS>BOND
     1    1    2 1   
     2    1    8 1   
     3    1   11 1   
     4    1   14 1   
     5    2    3 1   
     6    2   15 1   
     7    2   16 1   
     8    3    4 1   
     9    3    9 1   
    10    3   17 1   
    11    4    5 1   
    12    4   10 1   
    13    4   18 1   
    14    5    6 1   
    15    5   11 1   
    16    5   19 1   
    17    6    7 1   
    18    6   12 1   
    19    6   20 1   
    20    7   13 1   
    21    7   21 1   
    22    7   22 1   
    23    8   23 1   
    24    9   24 1   
    25   10   25 1   
    26   12   26 1   
    27   13   27 1   
@<TRIPOS>SUBSTRUCTURE
     1 293         1 TEMP              0 ****  ****    0 ROOT
