@<TRIPOS>MOLECULE
294
   48    44     1     0     0
SMALL
bcc


@<TRIPOS>ATOM
      1 C10        -2.0600   -1.2440   -2.5870 c3        1 294     -0.084900
      2 C14        -0.1400   -1.9820    0.5130 c1        1 294     -0.472200
      3 C15        -0.2440   -1.3790    1.7570 c1        1 294     -0.040250
      4 C16         0.8900   -0.8840    2.3800 c1        1 294     -0.040250
      5 C17         2.1330   -0.9950    1.7530 c1        1 294      0.135600
      6 C18         2.2290   -1.6000    0.5070 c1        1 294     -0.111500
      7 C19         1.1040   -2.0890   -0.1090 c1        1 294      0.071500
      8 C21         3.6000    0.7260    2.2110 c1        1 294      0.135600
      9 C22         4.1790    1.1210    1.0040 c1        1 294     -0.040250
     10 C23         4.4020    2.4860    0.7440 c1        1 294     -0.040250
     11 C24         4.0480    3.4340    1.6850 c1        1 294     -0.141100
     12 C25         3.4700    3.0380    2.8880 c1        1 294     -0.004500
     13 C26         3.2470    1.6750    3.1480 c1        1 294     -0.111500
     14 C27         4.2860    4.9880    1.3870 c3        1 294      0.655000
     15 O1         -5.7960   -2.9800   -2.2050 oh        1 294     -0.426100
     16 N2         -4.4620   -2.8240   -2.0360 n         1 294     -0.349400
     17 C3         -3.9490   -1.8510   -1.0570 c         1 294      0.608100
     18 O4         -4.6590   -1.4610   -0.1690 o         1 294     -0.544100
     19 C5         -2.4910   -1.3450   -1.1630 c3        1 294     -0.287200
     20 C6         -2.2860   -0.0130   -0.4990 c3        1 294     -0.084900
     21 C7         -2.9080    1.1200   -1.2550 c3        1 294      0.129400
     22 O8         -2.5150    1.1600   -2.6210 os        1 294     -0.413600
     23 C9         -2.6920   -0.0790   -3.3080 c3        1 294      0.129400
     24 S11        -1.5950   -2.6480   -0.2860 s6        1 294      1.403000
     25 O12        -2.4480   -3.3130    0.6580 o         1 294     -0.644300
     26 O13        -1.2500   -3.7400   -1.1800 o         1 294     -0.644300
     27 O20         3.2930   -0.6570    2.4420 os        1 294     -0.207200
     28 F28         3.4700    5.7090    2.1320 f         1 294     -0.233633
     29 F29         5.5620    5.3120    1.6760 f         1 294     -0.233633
     30 F30         4.0470    5.2340    0.1070 f         1 294     -0.233633
     31 H10        -2.2980   -2.0520   -3.0370 hc        1 294      0.067950
     32 H10A       -1.0690   -1.1390   -2.6150 hc        1 294      0.067950
     33 H15        -1.1380   -1.3020    2.2030 ha        1 294      0.105000
     34 H16         0.8210   -0.4580    3.2580 ha        1 294      0.105000
     35 H18         3.1030   -1.6770    0.0650 ha        1 294      0.105500
     36 H19         1.1780   -2.5350   -1.0270 ha        1 294      0.104500
     37 H22         4.4370    0.4260    0.3160 ha        1 294      0.105000
     38 H23         4.8290    2.7780   -0.1450 ha        1 294      0.105000
     39 H25         3.2230    3.6980    3.5420 ha        1 294      0.103500
     40 H26         2.8440    1.4010    3.9900 ha        1 294      0.105500
     41 HO1        -5.9470   -3.5930   -2.8490 ho        1 294      0.432000
     42 HN2        -3.8950   -3.2900   -2.5350 hn        1 294      0.332500
     43 H6         -1.3560    0.1490   -0.4220 hc        1 294      0.067950
     44 H6A        -2.6700   -0.0460    0.3810 hc        1 294      0.067950
     45 H7         -3.8980    1.0330   -1.2090 h1        1 294      0.061700
     46 H7A        -2.6490    1.9510   -0.8340 h1        1 294      0.061700
     47 H9         -3.6820   -0.2590   -3.4120 h1        1 294      0.061700
     48 H9A        -2.2950   -0.0040   -4.1880 h1        1 294      0.061700
@<TRIPOS>BOND
     1    1   19 1   
     2    1   23 1   
     3    1   31 1   
     4    1   32 1   
     5    2    7 3   
     6    2   24 1   
     7    3    4 3   
     8    3   33 1   
     9    4   34 1   
    10    5    6 3   
    11    5   27 1   
    12    6   35 1   
    13    7   36 1   
    14    8   13 3   
    15    8   27 1   
    16    9   10 3   
    17    9   37 1   
    18   10   38 1   
    19   11   12 3   
    20   11   14 1   
    21   12   39 1   
    22   13   40 1   
    23   14   28 1   
    24   14   29 1   
    25   14   30 1   
    26   15   16 1   
    27   15   41 1   
    28   16   17 1   
    29   16   42 1   
    30   17   18 2   
    31   17   19 1   
    32   19   20 1   
    33   19   24 1   
    34   20   21 1   
    35   20   43 1   
    36   20   44 1   
    37   21   22 1   
    38   21   45 1   
    39   21   46 1   
    40   22   23 1   
    41   23   47 1   
    42   23   48 1   
    43   24   25 2   
    44   24   26 2   
@<TRIPOS>SUBSTRUCTURE
     1 294         1 TEMP              0 ****  ****    0 ROOT
