@<TRIPOS>MOLECULE
294
   49    51     1     0     0
SMALL
bcc


@<TRIPOS>ATOM
      1 C10         0.2340   -0.2420    0.0790 c3        1 294     -0.106400
      2 C14         3.9840   -1.1870   -0.8760 ca        1 294     -0.539500
      3 C15         4.5440   -1.8720    0.2260 ca        1 294      0.039000
      4 C16         5.9040   -1.8640    0.4740 ca        1 294     -0.202000
      5 C17         6.7580   -1.1550   -0.3920 ca        1 294      0.246100
      6 C18         6.2290   -0.4640   -1.5100 ca        1 294     -0.202000
      7 C19         4.8690   -0.4920   -1.7330 ca        1 294      0.039000
      8 C21         8.7080   -1.7820    0.7990 ca        1 294      0.074100
      9 C22         8.8120   -3.1760    0.7260 ca        1 294     -0.131000
     10 C23         9.5400   -3.8440    1.7100 ca        1 294     -0.066000
     11 C24        10.1430   -3.1190    2.7410 ca        1 294     -0.154300
     12 C25        10.0370   -1.7270    2.8000 ca        1 294     -0.066000
     13 C26         9.3100   -1.0440    1.8250 ca        1 294     -0.131000
     14 C27        10.9490   -3.8590    3.8080 c3        1 294      0.688200
     15 O1          0.5850    2.6170   -2.9750 oh        1 294     -0.360300
     16 N2          0.6600    1.4290   -2.3380 n4        1 294     -0.467300
     17 C3          1.6810    1.3870   -1.1880 c         1 294      0.589100
     18 O4          2.4390    2.3440   -1.1740 o         1 294     -0.423100
     19 C5          1.6490    0.1790   -0.3130 c3        1 294     -0.253200
     20 C6          2.4040    0.4960    0.9810 c3        1 294     -0.106400
     21 C7          1.6470    1.4910    1.8470 c3        1 294      0.118900
     22 O8          0.3190    1.0620    2.1190 os        1 294     -0.377600
     23 C9         -0.4380    0.8110    0.9470 c3        1 294      0.118900
     24 S11         2.4120   -1.2980   -1.1920 sy        1 294      1.406300
     25 O12         2.0840   -0.9310   -2.5140 o         1 294     -0.642800
     26 O13         1.8030   -2.4070   -0.6300 o         1 294     -0.642800
     27 O20         8.1140   -1.0580   -0.2460 os        1 294     -0.219200
     28 F28        12.2740   -4.0210    3.4900 f         1 294     -0.225967
     29 F29        10.9610   -3.2390    5.0330 f         1 294     -0.225967
     30 F30        10.4980   -5.1290    4.0700 f         1 294     -0.225967
     31 H10         0.3100   -1.1930    0.6840 hc        1 294      0.087700
     32 H10A       -0.3960   -0.4850   -0.8130 hc        1 294      0.087700
     33 H15         3.8760   -2.4460    0.8960 ha        1 294      0.159500
     34 H16         6.3220   -2.4110    1.3350 ha        1 294      0.181000
     35 H18         6.9150    0.0750   -2.1840 ha        1 294      0.181000
     36 H19         4.4590    0.0230   -2.6200 ha        1 294      0.159500
     37 H22         8.3430   -3.7300   -0.1000 ha        1 294      0.162500
     38 H23         9.6410   -4.9420    1.6760 ha        1 294      0.171000
     39 H25        10.5240   -1.1710    3.6180 ha        1 294      0.171000
     40 H26         9.2270    0.0530    1.8470 ha        1 294      0.162500
     41 HO1         1.4760    3.0460   -2.9710 ho        1 294      0.481000
     42 HN2        -0.2920    1.2550   -1.9600 hn        1 294      0.501300
     43 H6          3.4190    0.9100    0.7460 hc        1 294      0.087700
     44 H6A         2.5310   -0.4660    1.5480 hc        1 294      0.087700
     45 H7          2.1180    1.5740    2.8640 h1        1 294      0.066700
     46 H7A         1.6270    2.4990    1.3520 h1        1 294      0.066700
     47 H9         -1.4280    0.4430    1.3320 h1        1 294      0.066700
     48 H9A        -0.5820    1.7650    0.3720 h1        1 294      0.066700
     49 H221        0.8990    0.6750   -3.0290 hn        1 294      0.501300
@<TRIPOS>BOND
     1    1   19 1   
     2    1   23 1   
     3    1   31 1   
     4    1   32 1   
     5    2    3 ar  
     6    2    7 ar  
     7    2   24 1   
     8    3    4 ar  
     9    3   33 1   
    10    4    5 ar  
    11    4   34 1   
    12    5    6 ar  
    13    5   27 1   
    14    6    7 ar  
    15    6   35 1   
    16    7   36 1   
    17    8    9 ar  
    18    8   13 ar  
    19    8   27 1   
    20    9   10 ar  
    21    9   37 1   
    22   10   11 ar  
    23   10   38 1   
    24   11   12 ar  
    25   11   14 1   
    26   12   13 ar  
    27   12   39 1   
    28   13   40 1   
    29   14   28 1   
    30   14   29 1   
    31   14   30 1   
    32   15   16 1   
    33   15   41 1   
    34   16   17 1   
    35   16   42 1   
    36   16   49 1   
    37   17   18 2   
    38   17   19 1   
    39   19   20 1   
    40   19   24 1   
    41   20   21 1   
    42   20   43 1   
    43   20   44 1   
    44   21   22 1   
    45   21   45 1   
    46   21   46 1   
    47   22   23 1   
    48   23   47 1   
    49   23   48 1   
    50   24   25 2   
    51   24   26 2   
@<TRIPOS>SUBSTRUCTURE
     1 294         1 TEMP              0 ****  ****    0 ROOT
