@<TRIPOS>MOLECULE
294
   48    50     1     0     0
SMALL
bcc


@<TRIPOS>ATOM
      1 C10         5.1660    1.0950   -0.4910 c3        1 294     -0.092400
      2 C14         1.7010   -0.8550   -1.0690 ca        1 294     -0.439500
      3 C15         0.5900   -0.0370   -1.3280 ca        1 294      0.023000
      4 C16        -0.6980   -0.4360   -0.9980 ca        1 294     -0.193500
      5 C17        -0.8870   -1.6890   -0.3980 ca        1 294      0.191100
      6 C18         0.2050   -2.5390   -0.1370 ca        1 294     -0.193500
      7 C19         1.4800   -2.1110   -0.4760 ca        1 294      0.023000
      8 C21        -3.1930   -1.3350    0.0370 ca        1 294      0.116100
      9 C22        -4.3860   -1.7200   -0.5930 ca        1 294     -0.149000
     10 C23        -5.5270   -0.9450   -0.4020 ca        1 294     -0.063000
     11 C24        -5.4670    0.1990    0.3990 ca        1 294     -0.177300
     12 C25        -4.2740    0.5780    1.0200 ca        1 294     -0.063000
     13 C26        -3.1260   -0.1900    0.8420 ca        1 294     -0.149000
     14 C27        -6.7240    1.0350    0.6120 c3        1 294      0.689200
     15 O1          4.6200   -2.2370    2.1370 oh        1 294     -0.432100
     16 N2          4.8600   -1.2890    1.2300 n         1 294     -0.354400
     17 C3          3.8480   -0.2850    1.1510 c         1 294      0.616100
     18 O4          3.1300   -0.0620    2.1400 o         1 294     -0.555100
     19 C5          3.7830    0.5540   -0.1140 c3        1 294     -0.291200
     20 C6          2.8650    1.7570    0.1080 c3        1 294     -0.092400
     21 C7          3.4630    2.7680    1.0730 c3        1 294      0.131900
     22 O8          4.7650    3.1860    0.6780 os        1 294     -0.410600
     23 C9          5.6670    2.0960    0.5360 c3        1 294      0.131900
     24 S11         3.2250   -0.3840   -1.5170 sy        1 294      1.367300
     25 O12         4.0770   -1.5030   -1.5890 o         1 294     -0.645800
     26 O13         3.1720    0.4770   -2.6200 o         1 294     -0.645800
     27 O20        -2.1230   -2.2210   -0.0810 os        1 294     -0.240200
     28 F28        -7.4740    0.6530    1.6970 f         1 294     -0.234300
     29 F29        -6.4890    2.3730    0.8200 f         1 294     -0.234300
     30 F30        -7.6110    1.0080   -0.4370 f         1 294     -0.234300
     31 H10         5.9090    0.2640   -0.5990 hc        1 294      0.073950
     32 H10A        5.0760    1.6160   -1.4850 hc        1 294      0.073950
     33 H15         0.7470    0.9410   -1.8200 ha        1 294      0.161500
     34 H16        -1.5590    0.2150   -1.2120 ha        1 294      0.164000
     35 H18         0.0360   -3.5220    0.3260 ha        1 294      0.164000
     36 H19         2.3430   -2.7740   -0.2820 ha        1 294      0.161500
     37 H22        -4.4130   -2.6280   -1.2130 ha        1 294      0.162000
     38 H23        -6.4750   -1.2280   -0.8870 ha        1 294      0.160000
     39 H25        -4.2440    1.4820    1.6490 ha        1 294      0.160000
     40 H26        -2.1800    0.0910    1.3290 ha        1 294      0.162000
     41 HO1         4.7860   -1.8240    3.0090 ho        1 294      0.434000
     42 HN2         5.0610   -1.7480    0.3420 hn        1 294      0.332500
     43 H6          2.6900    2.2530   -0.8850 hc        1 294      0.073950
     44 H6A         1.8830    1.4080    0.5230 hc        1 294      0.073950
     45 H7          2.8620    3.7160    1.0740 h1        1 294      0.060700
     46 H7A         3.5040    2.3340    2.1080 h1        1 294      0.060700
     47 H9          5.8190    1.5960    1.5290 h1        1 294      0.060700
     48 H9A         6.6230    2.5730    0.1930 h1        1 294      0.060700
@<TRIPOS>BOND
     1    1   19 1   
     2    1   23 1   
     3    1   31 1   
     4    1   32 1   
     5    2    3 ar  
     6    2    7 ar  
     7    2   24 1   
     8    3    4 ar  
     9    3   33 1   
    10    4    5 ar  
    11    4   34 1   
    12    5    6 ar  
    13    5   27 1   
    14    6    7 ar  
    15    6   35 1   
    16    7   36 1   
    17    8    9 ar  
    18    8   13 ar  
    19    8   27 1   
    20    9   10 ar  
    21    9   37 1   
    22   10   11 ar  
    23   10   38 1   
    24   11   12 ar  
    25   11   14 1   
    26   12   13 ar  
    27   12   39 1   
    28   13   40 1   
    29   14   28 1   
    30   14   29 1   
    31   14   30 1   
    32   15   16 1   
    33   15   41 1   
    34   16   17 1   
    35   16   42 1   
    36   17   18 2   
    37   17   19 1   
    38   19   20 1   
    39   19   24 1   
    40   20   21 1   
    41   20   43 1   
    42   20   44 1   
    43   21   22 1   
    44   21   45 1   
    45   21   46 1   
    46   22   23 1   
    47   23   47 1   
    48   23   48 1   
    49   24   25 2   
    50   24   26 2   
@<TRIPOS>SUBSTRUCTURE
     1 294         1 TEMP              0 ****  ****    0 ROOT
