@<TRIPOS>MOLECULE
294
   49    51     1     0     0
SMALL
bcc


@<TRIPOS>ATOM
      1 C10         0.2220   -0.2560    0.0460 c3        1 294     -0.106400
      2 C14         3.9900   -1.1500   -0.8870 ca        1 294     -0.539500
      3 C15         4.5440   -1.8560    0.2040 ca        1 294      0.039000
      4 C16         5.9010   -1.8420    0.4680 ca        1 294     -0.202000
      5 C17         6.7580   -1.1080   -0.3730 ca        1 294      0.246100
      6 C18         6.2360   -0.3960   -1.4810 ca        1 294     -0.202000
      7 C19         4.8790   -0.4300   -1.7190 ca        1 294      0.039000
      8 C21         8.7010   -1.7460    0.8260 ca        1 294      0.074100
      9 C22         8.8160   -3.1370    0.7240 ca        1 294     -0.131000
     10 C23         9.5380   -3.8200    1.7010 ca        1 294     -0.066000
     11 C24        10.1260   -3.1130    2.7530 ca        1 294     -0.154300
     12 C25        10.0090   -1.7240    2.8400 ca        1 294     -0.066000
     13 C26         9.2870   -1.0250    1.8730 ca        1 294     -0.131000
     14 C27        10.9260   -3.8700    3.8120 c3        1 294      0.688200
     15 O1          0.5860    2.6760   -2.9360 oh        1 294     -0.360300
     16 N2          0.6630    1.4740   -2.3250 ny        1 294     -0.467300
     17 C3          1.6710    1.4130   -1.1650 c         1 294      0.589100
     18 O4          2.4220    2.3740   -1.1200 o         1 294     -0.423100
     19 C5          1.6390    0.1840   -0.3190 c3        1 294     -0.253200
     20 C6          2.3760    0.4750    0.9910 c3        1 294     -0.106400
     21 C7          1.6010    1.4450    1.8710 c3        1 294      0.118900
     22 O8          0.2740    1.0000    2.1180 os        1 294     -0.377600
     23 C9         -0.4670    0.7710    0.9310 c3        1 294      0.118900
     24 S11         2.4220   -1.2660   -1.2230 sy        1 294      1.406300
     25 O12         2.1060   -0.8710   -2.5400 o         1 294     -0.642800
     26 O13         1.8160   -2.3930   -0.6940 o         1 294     -0.642800
     27 O20         8.1120   -1.0040   -0.2110 os        1 294     -0.219200
     28 F28        12.2560   -4.0160    3.5040 f         1 294     -0.225967
     29 F29        10.9220   -3.2750    5.0500 f         1 294     -0.225967
     30 F30        10.4820   -5.1480    4.0430 f         1 294     -0.225967
     31 H10        -0.3960   -0.4840   -0.8580 hc        1 294      0.087700
     32 H10A        0.2990   -1.2210    0.6300 hc        1 294      0.087700
     33 H15         3.8730   -2.4500    0.8550 ha        1 294      0.159500
     34 H16         6.3130   -2.4060    1.3210 ha        1 294      0.181000
     35 H18         6.9240    0.1620   -2.1360 ha        1 294      0.181000
     36 H19         4.4740    0.1020   -2.6000 ha        1 294      0.159500
     37 H22         8.3590   -3.6770   -0.1180 ha        1 294      0.162500
     38 H23         9.6480   -4.9170    1.6450 ha        1 294      0.171000
     39 H25        10.4840   -1.1810    3.6750 ha        1 294      0.171000
     40 H26         9.1960    0.0700    1.9170 ha        1 294      0.162500
     41 HO1         1.4730    3.1110   -2.9120 ho        1 294      0.481000
     42 HN2         0.9150    0.7370   -3.0300 hn        1 294      0.501300
     43 H6          3.3900    0.9030    0.7770 hc        1 294      0.087700
     44 H6A         2.5050   -0.4980    1.5360 hc        1 294      0.087700
     45 H7          2.0610    1.5080    2.8940 h1        1 294      0.066700
     46 H7A         1.5790    2.4640    1.3990 h1        1 294      0.066700
     47 H9         -1.4590    0.3860    1.2960 h1        1 294      0.066700
     48 H9A        -0.6130    1.7370    0.3770 h1        1 294      0.066700
     49 H221       -0.2930    1.2840   -1.9620 hn        1 294      0.501300
@<TRIPOS>BOND
     1    1   19 1   
     2    1   23 1   
     3    1   31 1   
     4    1   32 1   
     5    2    3 ar  
     6    2    7 ar  
     7    2   24 1   
     8    3    4 ar  
     9    3   33 1   
    10    4    5 ar  
    11    4   34 1   
    12    5    6 ar  
    13    5   27 1   
    14    6    7 ar  
    15    6   35 1   
    16    7   36 1   
    17    8    9 ar  
    18    8   13 ar  
    19    8   27 1   
    20    9   10 ar  
    21    9   37 1   
    22   10   11 ar  
    23   10   38 1   
    24   11   12 ar  
    25   11   14 1   
    26   12   13 ar  
    27   12   39 1   
    28   13   40 1   
    29   14   28 1   
    30   14   29 1   
    31   14   30 1   
    32   15   16 1   
    33   15   41 1   
    34   16   17 1   
    35   16   42 1   
    36   16   49 1   
    37   17   18 2   
    38   17   19 1   
    39   19   20 1   
    40   19   24 1   
    41   20   21 1   
    42   20   43 1   
    43   20   44 1   
    44   21   22 1   
    45   21   45 1   
    46   21   46 1   
    47   22   23 1   
    48   23   47 1   
    49   23   48 1   
    50   24   25 2   
    51   24   26 2   
@<TRIPOS>SUBSTRUCTURE
     1 294         1 TEMP              0 ****  ****    0 ROOT
