@<TRIPOS>MOLECULE
294
   49    51     1     0     0
SMALL
bcc


@<TRIPOS>ATOM
      1 C10         0.2220   -0.2450    0.0640 c3        1 294     -0.106400
      2 C14         3.9810   -1.1670   -0.8780 ca        1 294     -0.539500
      3 C15         4.5390   -1.8580    0.2210 ca        1 294      0.039000
      4 C16         5.8970   -1.8470    0.4770 ca        1 294     -0.202000
      5 C17         6.7520   -1.1280   -0.3800 ca        1 294      0.246100
      6 C18         6.2270   -0.4300   -1.4940 ca        1 294     -0.202000
      7 C19         4.8680   -0.4620   -1.7250 ca        1 294      0.039000
      8 C21         8.6990   -1.7560    0.8180 ca        1 294      0.074100
      9 C22         8.8080   -3.1480    0.7350 ca        1 294     -0.131000
     10 C23         9.5330   -3.8210    1.7180 ca        1 294     -0.066000
     11 C24        10.1300   -3.1000    2.7560 ca        1 294     -0.154300
     12 C25        10.0190   -1.7100    2.8240 ca        1 294     -0.066000
     13 C26         9.2950   -1.0220    1.8500 ca        1 294     -0.131000
     14 C27        10.9340   -3.8450    3.8220 c3        1 294      0.688200
     15 O1          0.5810    2.6430   -2.9610 oh        1 294     -0.360300
     16 N2          0.6560    1.4490   -2.3340 n4        1 294     -0.467300
     17 C3          1.6710    1.4010   -1.1790 c         1 294      0.589100
     18 O4          2.4250    2.3600   -1.1510 o         1 294     -0.423100
     19 C5          1.6380    0.1840   -0.3150 c3        1 294     -0.253200
     20 C6          2.3830    0.4920    0.9860 c3        1 294     -0.106400
     21 C7          1.6170    1.4760    1.8560 c3        1 294      0.118900
     22 O8          0.2900    1.0400    2.1170 os        1 294     -0.377600
     23 C9         -0.4590    0.7970    0.9380 c3        1 294      0.118900
     24 S11         2.4110   -1.2810   -1.2030 sy        1 294      1.406300
     25 O12         2.0890   -0.9040   -2.5230 o         1 294     -0.642800
     26 O13         1.8040   -2.3980   -0.6540 o         1 294     -0.642800
     27 O20         8.1070   -1.0260   -0.2260 os        1 294     -0.219200
     28 F28        12.2600   -4.0020    3.5070 f         1 294     -0.225967
     29 F29        10.9390   -3.2330    5.0500 f         1 294     -0.225967
     30 F30        10.4860   -5.1180    4.0740 f         1 294     -0.225967
     31 H10        -0.4020   -0.4830   -0.8340 hc        1 294      0.087700
     32 H10A        0.2980   -1.2020    0.6610 hc        1 294      0.087700
     33 H15         3.8690   -2.4400    0.8840 ha        1 294      0.159500
     34 H16         6.3120   -2.3990    1.3360 ha        1 294      0.181000
     35 H18         6.9130    0.1170   -2.1610 ha        1 294      0.181000
     36 H19         4.4600    0.0590   -2.6100 ha        1 294      0.159500
     37 H22         8.3440   -3.6990   -0.0960 ha        1 294      0.162500
     38 H23         9.6380   -4.9180    1.6770 ha        1 294      0.171000
     39 H25        10.5020   -1.1570    3.6480 ha        1 294      0.171000
     40 H26         9.2080    0.0740    1.8790 ha        1 294      0.162500
     41 HO1         1.4690    3.0750   -2.9480 ho        1 294      0.481000
     42 HN2         0.9010    0.7020   -3.0300 hn        1 294      0.501300
     43 H6          3.3980    0.9130    0.7620 hc        1 294      0.087700
     44 H6A         2.5110   -0.4740    1.5450 hc        1 294      0.087700
     45 H7          1.5970    2.4890    1.3710 h1        1 294      0.066700
     46 H7A         2.0830    1.5520    2.8770 h1        1 294      0.066700
     47 H9         -0.6040    1.7560    0.3710 h1        1 294      0.066700
     48 H9A        -1.4500    0.4210    1.3140 h1        1 294      0.066700
     49 H221       -0.2980    1.2680   -1.9640 hn        1 294      0.501300
@<TRIPOS>BOND
     1    1   19 1   
     2    1   23 1   
     3    1   31 1   
     4    1   32 1   
     5    2    3 ar  
     6    2    7 ar  
     7    2   24 1   
     8    3    4 ar  
     9    3   33 1   
    10    4    5 ar  
    11    4   34 1   
    12    5    6 ar  
    13    5   27 1   
    14    6    7 ar  
    15    6   35 1   
    16    7   36 1   
    17    8    9 ar  
    18    8   13 ar  
    19    8   27 1   
    20    9   10 ar  
    21    9   37 1   
    22   10   11 ar  
    23   10   38 1   
    24   11   12 ar  
    25   11   14 1   
    26   12   13 ar  
    27   12   39 1   
    28   13   40 1   
    29   14   28 1   
    30   14   29 1   
    31   14   30 1   
    32   15   16 1   
    33   15   41 1   
    34   16   17 1   
    35   16   42 1   
    36   16   49 1   
    37   17   18 2   
    38   17   19 1   
    39   19   20 1   
    40   19   24 1   
    41   20   21 1   
    42   20   43 1   
    43   20   44 1   
    44   21   22 1   
    45   21   45 1   
    46   21   46 1   
    47   22   23 1   
    48   23   47 1   
    49   23   48 1   
    50   24   25 2   
    51   24   26 2   
@<TRIPOS>SUBSTRUCTURE
     1 294         1 TEMP              0 ****  ****    0 ROOT
