@<TRIPOS>MOLECULE
295
   22    19     1     0     0
SMALL
bcc


@<TRIPOS>ATOM
      1 C1          1.0510    0.3130   -1.3550 c1        1 295     -0.089000
      2 C           2.4370    0.3030   -1.3950 c1        1 295     -0.179000
      3 C5          3.1650    0.3650   -0.2180 c1        1 295      0.056000
      4 C4          2.5080    0.4360    1.0010 c2        1 295     -0.182000
      5 C3          1.1220    0.4460    1.0410 c1        1 295     -0.091000
      6 C2          0.3940    0.3840   -0.1360 c1        1 295     -0.057000
      7 C6         -1.1170    0.4520   -0.0950 c3        1 295      0.071000
      8 O4         -1.5180    1.3990    0.8650 oh        1 295     -0.377000
      9 C7         -1.6730   -0.9040    0.2720 c3        1 295     -0.076000
     10 C8         -3.1670   -0.7980    0.4810 c2        1 295      0.311000
     11 O1         -3.6290   -0.5940    1.6350 o         1 295     -0.560000
     12 O          -3.9480   -0.8830   -0.5030 o         1 295     -0.560000
     13 O3         -1.4080   -1.8170   -0.7660 oh        1 295     -0.365000
     14 F1          4.5040    0.3590   -0.2570 f         1 295     -0.132000
     15 H1          0.5380    0.2720   -2.1840 ha        1 295      0.158000
     16 H           2.9000    0.2710   -2.2540 ha        1 295      0.131000
     17 H4          3.0210    0.4790    1.8300 ha        1 295      0.129000
     18 H3          0.6600    0.5000    1.8990 ha        1 295      0.156000
     19 H6         -1.4560    0.7150   -0.9740 h1        1 295      0.079000
     20 HO4        -1.7170    2.1660    0.4610 ho        1 295      0.257000
     21 H7         -1.2500   -1.2170    1.0960 h1        1 295      0.093000
     22 HO3        -1.4170   -2.6450   -0.4430 ho        1 295      0.228000
@<TRIPOS>BOND
     1    1    6 1   
     2    1   15 1   
     3    2    3 1   
     4    2   16 1   
     5    3    4 1   
     6    4    5 1   
     7    4   17 1   
     8    5   18 1   
     9    6    7 1   
    10    7    8 1   
    11    7    9 1   
    12    7   19 1   
    13    8   20 1   
    14    9   10 1   
    15    9   13 1   
    16    9   21 1   
    17   10   11 1   
    18   10   12 1   
    19   13   22 1   
@<TRIPOS>SUBSTRUCTURE
     1 295         1 TEMP              0 ****  ****    0 ROOT
