@<TRIPOS>MOLECULE
295
   22    22     1     0     0
SMALL
bcc


@<TRIPOS>ATOM
      1 C1          0.0410   -0.4190    0.1620 ca        1 295     -0.090000
      2 C           1.4300   -0.4040    0.0890 ca        1 295     -0.180500
      3 C5          2.1760    0.0480    1.1910 ca        1 295      0.090900
      4 C4          1.5220    0.4730    2.3600 ca        1 295     -0.180500
      5 C3          0.1320    0.4480    2.4150 ca        1 295     -0.090000
      6 C2         -0.6220    0.0080    1.3210 ca        1 295     -0.064300
      7 C6         -2.1260    0.0060    1.3550 c3        1 295      0.189400
      8 O4         -2.5330    0.7330    2.5060 oh        1 295     -0.649800
      9 C7         -2.7150   -1.4210    1.3390 c3        1 295     -0.014900
     10 C8         -4.2680   -1.3700    1.3190 c         1 295      0.891600
     11 O1         -4.8370   -1.8430    0.2970 o         1 295     -0.825300
     12 O          -4.8620   -0.8680    2.3150 o         1 295     -0.825300
     13 O3         -2.2160   -2.1250    0.2180 oh        1 295     -0.637800
     14 F1          3.5330    0.0730    1.1270 f         1 295     -0.166900
     15 H1         -0.5550   -0.7990   -0.6840 ha        1 295      0.157000
     16 H           1.9480   -0.7450   -0.8170 ha        1 295      0.130000
     17 H4          2.1120    0.8200    3.2190 ha        1 295      0.130000
     18 H3         -0.3910    0.7810    3.3260 ha        1 295      0.157000
     19 H6         -2.5010    0.5550    0.4420 h1        1 295      0.039700
     20 HO4        -3.4280    0.4350    2.7440 ho        1 295      0.458000
     21 H7         -2.3690   -1.9740    2.2520 h1        1 295      0.053700
     22 HO3        -2.9630   -2.2680   -0.3880 ho        1 295      0.429000
@<TRIPOS>BOND
     1    1    2 ar  
     2    1    6 ar  
     3    1   15 1   
     4    2    3 ar  
     5    2   16 1   
     6    3    4 ar  
     7    3   14 1   
     8    4    5 ar  
     9    4   17 1   
    10    5    6 ar  
    11    5   18 1   
    12    6    7 1   
    13    7    8 1   
    14    7    9 1   
    15    7   19 1   
    16    8   20 1   
    17    9   10 1   
    18    9   13 1   
    19    9   21 1   
    20   10   11 1   
    21   10   12 1   
    22   13   22 1   
@<TRIPOS>SUBSTRUCTURE
     1 295         1 TEMP              0 ****  ****    0 ROOT
