@<TRIPOS>MOLECULE
295
   22    22     1     0     0
SMALL
bcc


@<TRIPOS>ATOM
      1 C1         -1.2960   -0.8700    0.6840 ca        1 295     -0.090000
      2 C          -2.6620   -1.0720    0.5230 ca        1 295     -0.180500
      3 C5         -3.4430   -0.0700   -0.0810 ca        1 295      0.090900
      4 C4         -2.8440    1.1210   -0.5250 ca        1 295     -0.180500
      5 C3         -1.4740    1.3020   -0.3570 ca        1 295     -0.090000
      6 C2         -0.6890    0.3160    0.2500 ca        1 295     -0.064300
      7 C6          0.7870    0.5130    0.4680 c3        1 295      0.189400
      8 O4          1.0850    1.8770    0.2010 oh        1 295     -0.649800
      9 C7          1.6430   -0.4400   -0.3940 c3        1 295     -0.014900
     10 C8          3.1550   -0.2370   -0.0950 c         1 295      0.891600
     11 O1          3.7680   -1.2190    0.4090 o         1 295     -0.825300
     12 O           3.6740    0.8800   -0.3720 o         1 295     -0.825300
     13 O3          1.2510   -1.7770   -0.1480 oh        1 295     -0.637800
     14 F1         -4.7800   -0.2550   -0.2370 f         1 295     -0.166900
     15 H1         -0.6680   -1.6600    1.1290 ha        1 295      0.157000
     16 H          -3.1360   -2.0040    0.8570 ha        1 295      0.130000
     17 H4         -3.4590    1.8960   -1.0010 ha        1 295      0.130000
     18 H3         -0.9950    2.2330   -0.7000 ha        1 295      0.157000
     19 H6          1.0140    0.3100    1.5550 h1        1 295      0.039700
     20 HO4         2.0290    1.9360   -0.0270 ho        1 295      0.458000
     21 H7          1.4450   -0.2360   -1.4800 h1        1 295      0.053700
     22 HO3         1.9900   -2.2140    0.3090 ho        1 295      0.429000
@<TRIPOS>BOND
     1    1    2 ar  
     2    1    6 ar  
     3    1   15 1   
     4    2    3 ar  
     5    2   16 1   
     6    3    4 ar  
     7    3   14 1   
     8    4    5 ar  
     9    4   17 1   
    10    5    6 ar  
    11    5   18 1   
    12    6    7 1   
    13    7    8 1   
    14    7    9 1   
    15    7   19 1   
    16    8   20 1   
    17    9   10 1   
    18    9   13 1   
    19    9   21 1   
    20   10   11 1   
    21   10   12 1   
    22   13   22 1   
@<TRIPOS>SUBSTRUCTURE
     1 295         1 TEMP              0 ****  ****    0 ROOT
