@<TRIPOS>MOLECULE
295
   22    22     1     0     0
SMALL
bcc


@<TRIPOS>ATOM
      1 C1          0.0420   -0.4380    0.1630 ca        1 295     -0.090000
      2 C           1.4310   -0.4390    0.0910 ca        1 295     -0.180500
      3 C5          2.1820    0.0120    1.1920 ca        1 295      0.090900
      4 C4          1.5310    0.4520    2.3570 ca        1 295     -0.180500
      5 C3          0.1410    0.4420    2.4100 ca        1 295     -0.090000
      6 C2         -0.6170    0.0030    1.3190 ca        1 295     -0.064300
      7 C6         -2.1210    0.0180    1.3510 c3        1 295      0.189400
      8 O4         -2.5210    0.7560    2.4970 oh        1 295     -0.649800
      9 C7         -2.7260   -1.4030    1.3430 c3        1 295     -0.014900
     10 C8         -4.2780   -1.3350    1.3230 c         1 295      0.891600
     11 O1         -4.8510   -1.8070    0.3030 o         1 295     -0.825300
     12 O          -4.8660   -0.8220    2.3160 o         1 295     -0.825300
     13 O3         -2.2330   -2.1180    0.2260 oh        1 295     -0.637800
     14 F1          3.5390    0.0220    1.1280 f         1 295     -0.166900
     15 H1         -0.5560   -0.8170   -0.6820 ha        1 295      0.157000
     16 H           1.9470   -0.7910   -0.8120 ha        1 295      0.130000
     17 H4          2.1240    0.7980    3.2140 ha        1 295      0.130000
     18 H3         -0.3790    0.7870    3.3190 ha        1 295      0.157000
     19 H6         -2.4890    0.5660    0.4340 h1        1 295      0.039700
     20 HO4        -3.4190    0.4690    2.7370 ho        1 295      0.458000
     21 H7         -2.3860   -1.9540    2.2600 h1        1 295      0.053700
     22 HO3        -2.9820   -2.2560   -0.3800 ho        1 295      0.429000
@<TRIPOS>BOND
     1    1    2 ar  
     2    1    6 ar  
     3    1   15 1   
     4    2    3 ar  
     5    2   16 1   
     6    3    4 ar  
     7    3   14 1   
     8    4    5 ar  
     9    4   17 1   
    10    5    6 ar  
    11    5   18 1   
    12    6    7 1   
    13    7    8 1   
    14    7    9 1   
    15    7   19 1   
    16    8   20 1   
    17    9   10 1   
    18    9   13 1   
    19    9   21 1   
    20   10   11 1   
    21   10   12 1   
    22   13   22 1   
@<TRIPOS>SUBSTRUCTURE
     1 295         1 TEMP              0 ****  ****    0 ROOT
