@<TRIPOS>MOLECULE
296
   26    24     1     0     0
SMALL
bcc


@<TRIPOS>ATOM
      1 C1         -2.4360   -1.1080   -3.6400 c3        1 296     -0.070000
      2 O2         -1.5070   -0.0720   -3.4080 os        1 296     -0.222000
      3 C3         -0.9760   -0.0650   -2.1070 c2        1 296      0.054000
      4 C4          0.2290   -0.6990   -1.8470 c2        1 296     -0.161000
      5 C5          0.7770   -0.6520   -0.5740 c1        1 296     -0.083000
      6 C6         -1.6330    0.6160   -1.0940 c1        1 296     -0.208000
      7 C7         -1.0850    0.6630    0.1780 c1        1 296     -0.086000
      8 C8          0.1190    0.0290    0.4380 c1        1 296     -0.063000
      9 C9          0.7140    0.0750    1.8280 c3        1 296     -0.039000
     10 N10         1.1400   -1.2290    2.2040 n3        1 296     -0.329000
     11 C11         1.8970    1.0150    1.8390 c3        1 296      0.121000
     12 C12         1.9090    1.7950    3.1360 c2        1 296      0.335000
     13 O13         2.6840    1.4550    4.0680 o         1 296     -0.529000
     14 O14         1.1540    2.7930    3.2770 o         1 296     -0.529000
     15 F1          3.0290    0.3080    1.7330 f         1 296     -0.191500
     16 F2          1.8020    1.8640    0.8080 f         1 296     -0.191500
     17 H1         -2.0150   -1.9740   -3.4500 h1        1 296      0.073667
     18 H1A        -3.2140   -0.9860   -3.0550 h1        1 296      0.073667
     19 H1B        -2.7250   -1.0840   -4.5780 h1        1 296      0.073667
     20 H4          0.6920   -1.1790   -2.5600 ha        1 296      0.135000
     21 H5          1.6330   -1.0860   -0.3950 ha        1 296      0.147000
     22 H6         -2.4780    1.0690   -1.2790 ha        1 296      0.123000
     23 H7         -1.5530    1.1340    0.8940 ha        1 296      0.134000
     24 H9          0.0390    0.3920    2.4600 h1        1 296      0.118000
     25 HN10        1.3300   -1.2410    3.1000 hn        1 296      0.157500
     26 HN1A        0.4740   -1.8320    2.0250 hn        1 296      0.157500
@<TRIPOS>BOND
     1    1    2 1   
     2    1   17 1   
     3    1   18 1   
     4    1   19 1   
     5    2    3 1   
     6    3    4 1   
     7    3    6 1   
     8    4    5 1   
     9    4   20 1   
    10    5   21 1   
    11    6   22 1   
    12    7    8 1   
    13    7   23 1   
    14    8    9 1   
    15    9   10 1   
    16    9   11 1   
    17    9   24 1   
    18   10   25 1   
    19   10   26 1   
    20   11   12 1   
    21   11   15 1   
    22   11   16 1   
    23   12   13 1   
    24   12   14 1   
@<TRIPOS>SUBSTRUCTURE
     1 296         1 TEMP              0 ****  ****    0 ROOT
