@<TRIPOS>MOLECULE
296
   27    27     1     0     0
SMALL
bcc


@<TRIPOS>ATOM
      1 C1         -0.0470   -0.0790   -0.0850 c3        1 296      0.109700
      2 O2          1.3710    0.0520   -0.0310 os        1 296     -0.318900
      3 C3          1.9390    0.0600    1.2220 ca        1 296      0.156100
      4 C4          3.3300    0.2930    1.2410 ca        1 296     -0.181500
      5 C5          3.9980    0.3100    2.4560 ca        1 296     -0.067500
      6 C6          1.2350   -0.1500    2.4150 ca        1 296     -0.181500
      7 C7          1.9250   -0.1350    3.6250 ca        1 296     -0.067500
      8 C8          3.3050    0.0870    3.6560 ca        1 296     -0.194300
      9 C9          4.0170    0.1030    4.9690 c3        1 296      0.123800
     10 N10         4.9760   -1.0420    5.0690 nz        1 296     -0.865600
     11 C11         4.8040    1.4490    5.3050 c3        1 296      0.249600
     12 C12         5.2160    1.3970    6.8630 c         1 296      0.923600
     13 O13         5.0260    2.4200    7.5270 o         1 296     -0.738300
     14 O14         5.6850    0.2830    7.2510 o         1 296     -0.738300
     15 F1          5.9020    1.5910    4.4840 f         1 296     -0.229800
     16 F2          4.0380    2.5360    4.9880 f         1 296     -0.229800
     17 H1         -0.3630   -1.0710    0.3200 h1        1 296      0.051367
     18 H1A        -0.2700   -0.0090   -1.1800 h1        1 296      0.051367
     19 H1B        -0.5420    0.7520    0.4740 h1        1 296      0.051367
     20 H4          3.8610    0.4720    0.2940 ha        1 296      0.154500
     21 H5          5.0770    0.5360    2.4800 ha        1 296      0.144500
     22 H6          0.1490   -0.3170    2.4110 ha        1 296      0.154500
     23 H7          1.3680   -0.2870    4.5640 ha        1 296      0.144500
     24 H9          3.2760   -0.0120    5.8170 hx        1 296      0.118700
     25 HN10        4.4830   -1.9270    5.0010 hn        1 296      0.459800
     26 HN1A        5.4730   -0.9440    6.0100 hn        1 296      0.459800
     27 H103        5.6630   -0.9720    4.3190 hn        1 296      0.459800
@<TRIPOS>BOND
     1    1    2 1   
     2    1   17 1   
     3    1   18 1   
     4    1   19 1   
     5    2    3 1   
     6    3    4 ar  
     7    3    6 ar  
     8    4    5 ar  
     9    4   20 1   
    10    5    8 ar  
    11    5   21 1   
    12    6    7 ar  
    13    6   22 1   
    14    7    8 ar  
    15    7   23 1   
    16    8    9 1   
    17    9   10 1   
    18    9   11 1   
    19    9   24 1   
    20   10   25 1   
    21   10   26 1   
    22   10   27 1   
    23   11   12 1   
    24   11   15 1   
    25   11   16 1   
    26   12   13 1   
    27   12   14 1   
@<TRIPOS>SUBSTRUCTURE
     1 296         1 TEMP              0 ****  ****    0 ROOT
