@<TRIPOS>MOLECULE
296
   27    27     1     0     0
SMALL
bcc


@<TRIPOS>ATOM
      1 C1         -0.0340   -0.0990   -0.0950 c3        1 296      0.109700
      2 O2          1.3820    0.0580   -0.0370 os        1 296     -0.318900
      3 C3          1.9470    0.0620    1.2180 ca        1 296      0.156100
      4 C4          3.3330    0.3210    1.2420 ca        1 296     -0.181500
      5 C5          3.9980    0.3370    2.4590 ca        1 296     -0.067500
      6 C6          1.2440   -0.1740    2.4070 ca        1 296     -0.181500
      7 C7          1.9310   -0.1600    3.6190 ca        1 296     -0.067500
      8 C8          3.3070    0.0870    3.6550 ca        1 296     -0.194300
      9 C9          4.0160    0.1010    4.9700 c3        1 296      0.123800
     10 N10         4.9950   -1.0270    5.0590 n4        1 296     -0.865600
     11 C11         4.7770    1.4580    5.3230 c3        1 296      0.249600
     12 C12         5.1860    1.3960    6.8820 c         1 296      0.923600
     13 O13         4.9760    2.4080    7.5560 o         1 296     -0.738300
     14 O14         5.6740    0.2870    7.2580 o         1 296     -0.738300
     15 F1          5.8740    1.6290    4.5060 f         1 296     -0.229800
     16 F2          3.9910    2.5340    5.0160 f         1 296     -0.229800
     17 H1         -0.5450    0.7160    0.4720 h1        1 296      0.051367
     18 H1A        -0.2560   -0.0210   -1.1900 h1        1 296      0.051367
     19 H1B        -0.3320   -1.1010    0.2980 h1        1 296      0.051367
     20 H4          3.8630    0.5210    0.3000 ha        1 296      0.154500
     21 H5          5.0720    0.5820    2.4890 ha        1 296      0.144500
     22 H6          0.1610   -0.3610    2.3980 ha        1 296      0.154500
     23 H7          1.3750   -0.3330    4.5540 ha        1 296      0.144500
     24 H9          3.2740   -0.0360    5.8140 hx        1 296      0.118700
     25 HN10        5.6820   -0.9360    4.3120 hn        1 296      0.459800
     26 HN1A        5.4880   -0.9300    6.0030 hn        1 296      0.459800
     27 H103        4.5180   -1.9200    4.9800 hn        1 296      0.459800
@<TRIPOS>BOND
     1    1    2 1   
     2    1   17 1   
     3    1   18 1   
     4    1   19 1   
     5    2    3 1   
     6    3    4 ar  
     7    3    6 ar  
     8    4    5 ar  
     9    4   20 1   
    10    5    8 ar  
    11    5   21 1   
    12    6    7 ar  
    13    6   22 1   
    14    7    8 ar  
    15    7   23 1   
    16    8    9 1   
    17    9   10 1   
    18    9   11 1   
    19    9   24 1   
    20   10   25 1   
    21   10   26 1   
    22   10   27 1   
    23   11   12 1   
    24   11   15 1   
    25   11   16 1   
    26   12   13 1   
    27   12   14 1   
@<TRIPOS>SUBSTRUCTURE
     1 296         1 TEMP              0 ****  ****    0 ROOT
