@<TRIPOS>MOLECULE
296
   26    26     1     0     0
SMALL
bcc


@<TRIPOS>ATOM
      1 C1          5.3460    0.9340   -0.3000 c3        1 296      0.119700
      2 O2          4.5770   -0.0350    0.3960 os        1 296     -0.338900
      3 C3          3.2260   -0.0750    0.0780 ca        1 296      0.099100
      4 C4          2.4590   -0.9560    0.8600 ca        1 296     -0.184500
      5 C5          1.0980   -1.0770    0.6080 ca        1 296     -0.084500
      6 C6          2.6320    0.6760   -0.9400 ca        1 296     -0.184500
      7 C7          1.2640    0.5380   -1.1790 ca        1 296     -0.084500
      8 C8          0.4870   -0.3340   -0.4120 ca        1 296     -0.070300
      9 C9         -0.9850   -0.4750   -0.7020 c3        1 296      0.165800
     10 N10        -1.3310   -1.8360   -1.0710 n3        1 296     -0.896800
     11 C11        -1.8790    0.0830    0.4830 c3        1 296      0.213600
     12 C12        -3.3810    0.1430   -0.0570 c         1 296      0.915600
     13 O13        -3.9520   -0.9680   -0.1970 o         1 296     -0.794300
     14 O14        -3.8360    1.2750   -0.3310 o         1 296     -0.794300
     15 F1         -1.7590   -0.7010    1.6150 f         1 296     -0.262800
     16 F2         -1.4230    1.3000    0.9380 f         1 296     -0.262800
     17 H1          5.3750    0.7040   -1.3930 h1        1 296      0.034367
     18 H1A         4.9410    1.9620   -0.1320 h1        1 296      0.034367
     19 H1B         6.3660    0.8360    0.1490 h1        1 296      0.034367
     20 H4          2.9430   -1.5320    1.6600 ha        1 296      0.129000
     21 H5          0.4820   -1.7470    1.2290 ha        1 296      0.140500
     22 H6          3.2210    1.3710   -1.5520 ha        1 296      0.129000
     23 H7          0.7930    1.1300   -1.9780 ha        1 296      0.140500
     24 H9         -1.2440    0.1880   -1.5820 h1        1 296      0.078700
     25 HN10       -1.1980   -2.4370   -0.2780 hn        1 296      0.362300
     26 HN1A       -2.3100   -1.8640   -1.3140 hn        1 296      0.362300
@<TRIPOS>BOND
     1    1    2 1   
     2    1   17 1   
     3    1   18 1   
     4    1   19 1   
     5    2    3 1   
     6    3    4 ar  
     7    3    6 ar  
     8    4    5 ar  
     9    4   20 1   
    10    5    8 ar  
    11    5   21 1   
    12    6    7 ar  
    13    6   22 1   
    14    7    8 ar  
    15    7   23 1   
    16    8    9 1   
    17    9   10 1   
    18    9   11 1   
    19    9   24 1   
    20   10   25 1   
    21   10   26 1   
    22   11   12 1   
    23   11   15 1   
    24   11   16 1   
    25   12   13 1   
    26   12   14 1   
@<TRIPOS>SUBSTRUCTURE
     1 296         1 TEMP              0 ****  ****    0 ROOT
