@<TRIPOS>MOLECULE
296
   27    27     1     0     0
SMALL
bcc


@<TRIPOS>ATOM
      1 C1         -0.0510   -0.1220   -0.0770 c3        1 296      0.109700
      2 O2          1.3650    0.0350   -0.0270 os        1 296     -0.318900
      3 C3          1.9360    0.0470    1.2250 ca        1 296      0.156100
      4 C4          3.3220    0.3060    1.2410 ca        1 296     -0.181500
      5 C5          3.9930    0.3290    2.4540 ca        1 296     -0.067500
      6 C6          1.2390   -0.1800    2.4190 ca        1 296     -0.181500
      7 C7          1.9320   -0.1580    3.6270 ca        1 296     -0.067500
      8 C8          3.3080    0.0880    3.6550 ca        1 296     -0.194300
      9 C9          4.0230    0.1120    4.9660 c3        1 296      0.123800
     10 N10         5.0030   -1.0160    5.0580 n4        1 296     -0.865600
     11 C11         4.7860    1.4710    5.3060 c3        1 296      0.249600
     12 C12         5.2030    1.4200    6.8630 c         1 296      0.923600
     13 O13         4.9960    2.4360    7.5320 o         1 296     -0.738300
     14 O14         5.6940    0.3130    7.2440 o         1 296     -0.738300
     15 F1          5.8790    1.6370    4.4820 f         1 296     -0.229800
     16 F2          3.9990    2.5450    4.9960 f         1 296     -0.229800
     17 H1         -0.5590    0.6980    0.4870 h1        1 296      0.051367
     18 H1A        -0.2780   -0.0510   -1.1710 h1        1 296      0.051367
     19 H1B        -0.3480   -1.1210    0.3240 h1        1 296      0.051367
     20 H4          3.8470    0.4980    0.2940 ha        1 296      0.154500
     21 H5          5.0680    0.5750    2.4760 ha        1 296      0.144500
     22 H6          0.1560   -0.3670    2.4170 ha        1 296      0.154500
     23 H7          1.3810   -0.3240    4.5660 ha        1 296      0.144500
     24 H9          3.2860   -0.0200    5.8150 hx        1 296      0.118700
     25 HN10        5.6870   -0.9300    4.3070 hn        1 296      0.459800
     26 HN1A        5.5010   -0.9120    5.9990 hn        1 296      0.459800
     27 H103        4.5260   -1.9090    4.9880 hn        1 296      0.459800
@<TRIPOS>BOND
     1    1    2 1   
     2    1   17 1   
     3    1   18 1   
     4    1   19 1   
     5    2    3 1   
     6    3    4 ar  
     7    3    6 ar  
     8    4    5 ar  
     9    4   20 1   
    10    5    8 ar  
    11    5   21 1   
    12    6    7 ar  
    13    6   22 1   
    14    7    8 ar  
    15    7   23 1   
    16    8    9 1   
    17    9   10 1   
    18    9   11 1   
    19    9   24 1   
    20   10   25 1   
    21   10   26 1   
    22   10   27 1   
    23   11   12 1   
    24   11   15 1   
    25   11   16 1   
    26   12   13 1   
    27   12   14 1   
@<TRIPOS>SUBSTRUCTURE
     1 296         1 TEMP              0 ****  ****    0 ROOT
