@<TRIPOS>MOLECULE
297
   42    41     1     0     0
SMALL
bcc


@<TRIPOS>ATOM
      1 N1          8.1010   -0.2670   -0.0570 n3        1 297     -0.916800
      2 C2          6.8660    0.4780    0.0030 c3        1 297      0.158800
      3 C3          5.6220   -0.4090   -0.0060 c3        1 297     -0.083400
      4 C4          4.3720    0.4430    0.0020 c3        1 297     -0.079400
      5 C5          3.1250   -0.4160   -0.0060 c3        1 297     -0.078400
      6 C6          1.8730    0.4340    0.0020 c3        1 297     -0.079400
      7 C7          0.6260   -0.4250   -0.0070 c3        1 297     -0.079400
      8 C8         -0.6260    0.4250    0.0020 c3        1 297     -0.079400
      9 C9         -1.8730   -0.4340   -0.0070 c3        1 297     -0.079400
     10 C10        -3.1250    0.4160    0.0030 c3        1 297     -0.078400
     11 C11        -4.3720   -0.4430   -0.0080 c3        1 297     -0.079400
     12 C12        -5.6220    0.4100    0.0030 c3        1 297     -0.083400
     13 C13        -6.8660   -0.4780   -0.0080 c3        1 297      0.158800
     14 N14        -8.1020    0.2680   -0.0510 n3        1 297     -0.916800
     15 HN1         8.8820    0.3430    0.0840 hn        1 297      0.347800
     16 HN1A        8.1210   -0.9900    0.6330 hn        1 297      0.347800
     17 H2          6.8090    1.1480    0.9130 h1        1 297      0.023700
     18 H2A         6.8380    1.1510   -0.9020 h1        1 297      0.023700
     19 H3          5.6280   -1.0650   -0.9160 hc        1 297      0.046200
     20 H3A         5.6250   -1.0830    0.8900 hc        1 297      0.046200
     21 H4          4.3680    1.1010    0.9100 hc        1 297      0.040200
     22 H4A         4.3690    1.1170   -0.8950 hc        1 297      0.040200
     23 H5          3.1280   -1.0740   -0.9150 hc        1 297      0.040700
     24 H5A         3.1270   -1.0910    0.8900 hc        1 297      0.040700
     25 H6          1.8700    1.0910    0.9110 hc        1 297      0.039700
     26 H6A         1.8710    1.1090   -0.8940 hc        1 297      0.039700
     27 H7          0.6280   -1.0810   -0.9170 hc        1 297      0.040200
     28 H7A         0.6290   -1.1010    0.8880 hc        1 297      0.040200
     29 H8         -0.6290    1.0810    0.9120 hc        1 297      0.040200
     30 H8A        -0.6280    1.1010   -0.8930 hc        1 297      0.040200
     31 H9         -1.8710   -1.0890   -0.9180 hc        1 297      0.039700
     32 H9A        -1.8700   -1.1110    0.8870 hc        1 297      0.039700
     33 H10        -3.1270    1.0720    0.9130 hc        1 297      0.040700
     34 H10A       -3.1280    1.0930   -0.8920 hc        1 297      0.040700
     35 H11        -4.3690   -1.0970   -0.9190 hc        1 297      0.040200
     36 H11A       -4.3680   -1.1210    0.8860 hc        1 297      0.040200
     37 H12        -5.6250    1.0640    0.9140 hc        1 297      0.046200
     38 H12A       -5.6280    1.0840   -0.8930 hc        1 297      0.046200
     39 H13        -6.8380   -1.1310   -0.9270 h1        1 297      0.023700
     40 H13A       -6.8090   -1.1670    0.8880 h1        1 297      0.023700
     41 HN14       -8.8820   -0.3450    0.0760 hn        1 297      0.347800
     42 HN1B       -8.1210    0.9760    0.6540 hn        1 297      0.347800
@<TRIPOS>BOND
     1    1    2 1   
     2    1   15 1   
     3    1   16 1   
     4    2    3 1   
     5    2   17 1   
     6    2   18 1   
     7    3    4 1   
     8    3   19 1   
     9    3   20 1   
    10    4    5 1   
    11    4   21 1   
    12    4   22 1   
    13    5    6 1   
    14    5   23 1   
    15    5   24 1   
    16    6    7 1   
    17    6   25 1   
    18    6   26 1   
    19    7    8 1   
    20    7   27 1   
    21    7   28 1   
    22    8    9 1   
    23    8   29 1   
    24    8   30 1   
    25    9   10 1   
    26    9   31 1   
    27    9   32 1   
    28   10   11 1   
    29   10   33 1   
    30   10   34 1   
    31   11   12 1   
    32   11   35 1   
    33   11   36 1   
    34   12   13 1   
    35   12   37 1   
    36   12   38 1   
    37   13   14 1   
    38   13   39 1   
    39   13   40 1   
    40   14   41 1   
    41   14   42 1   
@<TRIPOS>SUBSTRUCTURE
     1 297         1 TEMP              0 ****  ****    0 ROOT
