@<TRIPOS>MOLECULE
297
   42    41     1     0     0
SMALL
bcc


@<TRIPOS>ATOM
      1 N1         -6.2880    2.2570   -4.5860 n3        1 297     -0.916800
      2 C2         -5.1080    1.4650   -4.4770 c3        1 297      0.158800
      3 C3         -4.5820    1.5290   -3.0490 c3        1 297     -0.083400
      4 C4         -3.2400    0.7660   -2.9610 c3        1 297     -0.079400
      5 C5         -2.6610    0.8910   -1.5210 c3        1 297     -0.078400
      6 C6         -1.3310    0.0820   -1.4210 c3        1 297     -0.079400
      7 C7         -0.7290    0.2490    0.0000 c3        1 297     -0.079400
      8 C8          0.6330   -0.4510    0.0670 c3        1 297     -0.079400
      9 C9          1.2210   -0.2940    1.4830 c3        1 297     -0.079400
     10 C10         2.6130   -0.9440    1.5350 c3        1 297     -0.078400
     11 C11         3.1610   -0.8750    2.9830 c3        1 297     -0.079400
     12 C12         4.6220   -1.4200    3.0130 c3        1 297     -0.083400
     13 C13         5.1570   -1.3960    4.4620 c3        1 297      0.158800
     14 N14         6.5550   -1.7720    4.4630 n3        1 297     -0.916800
     15 HN1        -6.1430    2.9430   -5.1790 hn        1 297      0.347800
     16 HN1A       -6.9820    1.7340   -4.8860 hn        1 297      0.347800
     17 H2         -5.3150    0.5400   -4.7060 h1        1 297      0.023700
     18 H2A        -4.4250    1.8080   -5.0920 h1        1 297      0.023700
     19 H3         -4.4450    2.4550   -2.7960 hc        1 297      0.046200
     20 H3A        -5.2300    1.1200   -2.4450 hc        1 297      0.046200
     21 H4         -3.3870   -0.1750   -3.1730 hc        1 297      0.040200
     22 H4A        -2.6060    1.1490   -3.6010 hc        1 297      0.040200
     23 H5         -3.3110    0.5340   -0.8740 hc        1 297      0.040700
     24 H5A        -2.4860    1.8300   -1.3220 hc        1 297      0.040700
     25 H6         -1.5130   -0.8690   -1.5900 hc        1 297      0.039700
     26 H6A        -0.6960    0.4170   -2.0850 hc        1 297      0.039700
     27 H7         -1.3280   -0.1470    0.6530 hc        1 297      0.039700
     28 H7A        -0.6160    1.1940    0.1950 hc        1 297      0.039700
     29 H8          1.2410   -0.0460   -0.5870 hc        1 297      0.039700
     30 H8A         0.5210   -1.4030   -0.1360 hc        1 297      0.039700
     31 H9          0.6350   -0.7300    2.1280 hc        1 297      0.039700
     32 H9A         1.2960    0.6580    1.7010 hc        1 297      0.039700
     33 H10         2.5450   -1.8860    1.2530 hc        1 297      0.040700
     34 H10A        3.2170   -0.4670    0.9350 hc        1 297      0.040700
     35 H11         2.5980   -1.4190    3.5720 hc        1 297      0.040200
     36 H11A        3.1540    0.0490    3.2890 hc        1 297      0.040200
     37 H12         4.6340   -2.3360    2.6770 hc        1 297      0.046200
     38 H12A        5.1950   -0.8550    2.4430 hc        1 297      0.046200
     39 H13         4.6480   -2.0290    5.0080 h1        1 297      0.023700
     40 H13A        5.0610   -0.4940    4.8320 h1        1 297      0.023700
     41 HN14        7.0530   -1.1040    4.8550 hn        1 297      0.347800
     42 HN1B        6.6640   -2.5550    4.9380 hn        1 297      0.347800
@<TRIPOS>BOND
     1    1    2 1   
     2    1   15 1   
     3    1   16 1   
     4    2    3 1   
     5    2   17 1   
     6    2   18 1   
     7    3    4 1   
     8    3   19 1   
     9    3   20 1   
    10    4    5 1   
    11    4   21 1   
    12    4   22 1   
    13    5    6 1   
    14    5   23 1   
    15    5   24 1   
    16    6    7 1   
    17    6   25 1   
    18    6   26 1   
    19    7    8 1   
    20    7   27 1   
    21    7   28 1   
    22    8    9 1   
    23    8   29 1   
    24    8   30 1   
    25    9   10 1   
    26    9   31 1   
    27    9   32 1   
    28   10   11 1   
    29   10   33 1   
    30   10   34 1   
    31   11   12 1   
    32   11   35 1   
    33   11   36 1   
    34   12   13 1   
    35   12   37 1   
    36   12   38 1   
    37   13   14 1   
    38   13   39 1   
    39   13   40 1   
    40   14   41 1   
    41   14   42 1   
@<TRIPOS>SUBSTRUCTURE
     1 297         1 TEMP              0 ****  ****    0 ROOT
