@<TRIPOS>MOLECULE
297
   44    43     1     0     0
SMALL
bcc


@<TRIPOS>ATOM
      1 N1         -0.0230    0.0010   -0.0630 n4        1 297     -0.839600
      2 C2          1.4680    0.0000    0.0330 c3        1 297      0.098800
      3 C3          1.9660   -0.0000    1.4720 c3        1 297     -0.110400
      4 C4          3.4840   -0.0010    1.4750 c3        1 297     -0.078400
      5 C5          4.0160   -0.0010    2.8940 c3        1 297     -0.079400
      6 C6          5.5310   -0.0010    2.9040 c3        1 297     -0.079400
      7 C7          6.0680   -0.0010    4.3200 c3        1 297     -0.079400
      8 C8          7.5830   -0.0000    4.3300 c3        1 297     -0.079400
      9 C9          8.1200   -0.0000    5.7470 c3        1 297     -0.079400
     10 C10         9.6350   -0.0010    5.7560 c3        1 297     -0.079400
     11 C11        10.1670   -0.0010    7.1750 c3        1 297     -0.078400
     12 C12        11.6850   -0.0020    7.1780 c3        1 297     -0.110400
     13 C13        12.1840   -0.0020    8.6170 c3        1 297      0.098800
     14 N14        13.6750   -0.0030    8.7130 n4        1 297     -0.839600
     15 HN1        -0.4070   -0.8310    0.3980 hn        1 297      0.463467
     16 HN1A       -0.3130    0.0010   -1.0460 hn        1 297      0.463467
     17 H2          1.8440   -0.9170   -0.5070 hx        1 297      0.114700
     18 H2A         1.8450    0.9170   -0.5070 hx        1 297      0.114700
     19 H3          1.5930    0.9070    2.0180 hc        1 297      0.070700
     20 H3A         1.5930   -0.9070    2.0180 hc        1 297      0.070700
     21 H4          3.8650    0.9040    0.9320 hc        1 297      0.058700
     22 H4A         3.8650   -0.9060    0.9320 hc        1 297      0.058700
     23 H5          3.6370    0.9030    3.4410 hc        1 297      0.050700
     24 H5A         3.6370   -0.9050    3.4400 hc        1 297      0.050700
     25 H6          5.9120    0.9030    2.3570 hc        1 297      0.047700
     26 H6A         5.9120   -0.9040    2.3580 hc        1 297      0.047700
     27 H7          5.6890   -0.9040    4.8670 hc        1 297      0.046700
     28 H7A         5.6880    0.9030    4.8670 hc        1 297      0.046700
     29 H8          7.9630    0.9030    3.7840 hc        1 297      0.046700
     30 H8A         7.9630   -0.9040    3.7840 hc        1 297      0.046700
     31 H9          7.7390   -0.9040    6.2930 hc        1 297      0.047700
     32 H9A         7.7400    0.9030    6.2930 hc        1 297      0.047700
     33 H10        10.0140   -0.9050    5.2100 hc        1 297      0.050700
     34 H10A       10.0140    0.9030    5.2100 hc        1 297      0.050700
     35 H11         9.7870    0.9040    7.7180 hc        1 297      0.058700
     36 H11A        9.7860   -0.9050    7.7180 hc        1 297      0.058700
     37 H12        12.0590    0.9060    6.6330 hc        1 297      0.070700
     38 H12A       12.0580   -0.9090    6.6320 hc        1 297      0.070700
     39 H13        11.8060   -0.9190    9.1570 hx        1 297      0.114700
     40 H13A       11.8080    0.9150    9.1570 hx        1 297      0.114700
     41 HN14       13.9640   -0.0040    9.6960 hn        1 297      0.463467
     42 HN1B       14.0570   -0.8360    8.2510 hn        1 297      0.463467
     43 H131       -0.4060    0.8330    0.3980 hn        1 297      0.463467
     44 H143       14.0590    0.8290    8.2520 hn        1 297      0.463467
@<TRIPOS>BOND
     1    1    2 1   
     2    1   15 1   
     3    1   16 1   
     4    1   43 1   
     5    2    3 1   
     6    2   17 1   
     7    2   18 1   
     8    3    4 1   
     9    3   19 1   
    10    3   20 1   
    11    4    5 1   
    12    4   21 1   
    13    4   22 1   
    14    5    6 1   
    15    5   23 1   
    16    5   24 1   
    17    6    7 1   
    18    6   25 1   
    19    6   26 1   
    20    7    8 1   
    21    7   27 1   
    22    7   28 1   
    23    8    9 1   
    24    8   29 1   
    25    8   30 1   
    26    9   10 1   
    27    9   31 1   
    28    9   32 1   
    29   10   11 1   
    30   10   33 1   
    31   10   34 1   
    32   11   12 1   
    33   11   35 1   
    34   11   36 1   
    35   12   13 1   
    36   12   37 1   
    37   12   38 1   
    38   13   14 1   
    39   13   39 1   
    40   13   40 1   
    41   14   41 1   
    42   14   42 1   
    43   14   44 1   
@<TRIPOS>SUBSTRUCTURE
     1 297         1 TEMP              0 ****  ****    0 ROOT
