@<TRIPOS>MOLECULE
298
   34    33     1     0     0
SMALL
bcc


@<TRIPOS>ATOM
      1 C1          1.2100    0.2260   -1.0930 c3        1 298     -0.074900
      2 C2          1.0230   -0.5890    0.1210 c2        1 298     -0.130200
      3 C3          1.8130   -0.6100    1.2000 ce        1 298     -0.264600
      4 C4          3.0440    0.1700    1.3530 ce        1 298      0.464500
      5 N5          3.6190    0.5940    2.4190 n2        1 298     -0.591900
      6 C6          3.0790    0.3790    3.7350 c3        1 298      0.100800
      7 C7          3.5100   -0.9340    4.3920 c3        1 298     -0.079400
      8 C8          2.9480   -1.0170    5.7950 c3        1 298     -0.079400
      9 C9          3.3930   -2.3240    6.4550 c3        1 298      0.100800
     10 N10         2.9620   -2.4400    7.8230 n2        1 298     -0.591900
     11 C11         2.1940   -3.4090    8.1830 ce        1 298      0.464500
     12 C12         1.7540   -3.5820    9.5720 ce        1 298     -0.264600
     13 C13         0.9560   -4.5810    9.9700 c2        1 298     -0.130200
     14 C14         0.4050   -5.6410    9.1030 c3        1 298     -0.074900
     15 H1          2.1150    0.8790   -1.0390 hc        1 298      0.046867
     16 H1A         0.3170    0.8830   -1.2490 hc        1 298      0.046867
     17 H1B         1.3090   -0.4410   -1.9870 hc        1 298      0.046867
     18 H2          0.1220   -1.2300    0.1020 ha        1 298      0.122500
     19 H3          1.5520   -1.2590    2.0550 ha        1 298      0.136000
     20 H4          3.5660    0.4290    0.4050 h4        1 298     -0.011200
     21 H6          1.9510    0.4290    3.7500 h1        1 298      0.044450
     22 H6A         3.4620    1.2360    4.3620 h1        1 298      0.044450
     23 H7          3.1440   -1.8010    3.7830 hc        1 298      0.049450
     24 H7A         4.6290   -0.9940    4.4270 hc        1 298      0.049450
     25 H8          3.3050   -0.1420    6.4000 hc        1 298      0.049450
     26 H8A         1.8290   -0.9670    5.7610 hc        1 298      0.049450
     27 H9          3.0540   -3.1820    5.8010 h1        1 298      0.044450
     28 H9A         4.5220   -2.3470    6.4800 h1        1 298      0.044450
     29 H11         1.8120   -4.1850    7.4790 h4        1 298     -0.011200
     30 H12         2.1150   -2.8350   10.3000 ha        1 298      0.136000
     31 H13         0.6670   -4.6440   11.0340 ha        1 298      0.122500
     32 H14        -0.2280   -5.2010    8.2910 hc        1 298      0.046867
     33 H14A        1.2270   -6.2290    8.6230 hc        1 298      0.046867
     34 H14B       -0.2290   -6.3470    9.6930 hc        1 298      0.046867
@<TRIPOS>BOND
     1    1    2 1   
     2    1   15 1   
     3    1   16 1   
     4    1   17 1   
     5    2    3 2   
     6    2   18 1   
     7    3    4 1   
     8    3   19 1   
     9    4    5 2   
    10    4   20 1   
    11    5    6 1   
    12    6    7 1   
    13    6   21 1   
    14    6   22 1   
    15    7    8 1   
    16    7   23 1   
    17    7   24 1   
    18    8    9 1   
    19    8   25 1   
    20    8   26 1   
    21    9   10 1   
    22    9   27 1   
    23    9   28 1   
    24   10   11 2   
    25   11   12 1   
    26   11   29 1   
    27   12   13 2   
    28   12   30 1   
    29   13   14 1   
    30   13   31 1   
    31   14   32 1   
    32   14   33 1   
    33   14   34 1   
@<TRIPOS>SUBSTRUCTURE
     1 298         1 TEMP              0 ****  ****    0 ROOT
