@<TRIPOS>MOLECULE
298
   34    29     1     0     0
SMALL
bcc


@<TRIPOS>ATOM
      1 C1         -4.4330   -2.2160   -5.0000 c3        1 298     -0.198000
      2 C2         -2.9100   -2.0300   -4.9650 c2        1 298     -0.118000
      3 C3         -2.2920   -1.6270   -3.7940 c1        1 298     -0.205000
      4 C4         -3.1380   -1.3670   -2.5320 c1        1 298     -0.034000
      5 N5         -2.5710   -0.8660   -1.4390 n1        1 298     -0.181000
      6 C6         -1.1580   -0.5660   -1.4320 c2        1 298     -0.105000
      7 C7         -0.7850    0.0800   -0.1130 c3        1 298     -0.170000
      8 C8          0.7970    0.2300   -0.0270 c3        1 298     -0.170000
      9 C9          1.1800    0.7720    1.3310 c3        1 298     -0.105000
     10 N10         2.6090    0.5960    1.5380 n2        1 298     -0.181000
     11 C11         3.1980    1.0890    2.6570 c1        1 298     -0.034000
     12 C12         2.3530    1.8310    3.7010 c1        1 298     -0.161500
     13 C13         2.8880    2.1630    4.8970 c1        1 298     -0.161500
     14 C14         4.3400    1.8040    5.2160 c2        1 298     -0.198000
     15 H1         -4.6890   -2.9370   -4.3810 hc        1 298      0.087333
     16 H1A        -4.8640   -1.3930   -4.7310 hc        1 298      0.087333
     17 H1B        -4.7130   -2.4490   -5.9010 hc        1 298      0.087333
     18 H2         -2.3720   -2.1970   -5.7770 ha        1 298      0.121000
     19 H3         -1.3080   -1.5050   -3.7680 ha        1 298      0.130000
     20 H4         -4.1060   -1.5720   -2.5360 ha        1 298      0.142000
     21 H6         -0.6450   -1.3980   -1.5450 ha        1 298      0.089000
     22 H6A        -0.9500    0.0510   -2.1690 ha        1 298      0.089000
     23 H7         -1.1960    0.9570   -0.0550 hc        1 298      0.088000
     24 H7A        -1.1050   -0.4870    0.6360 hc        1 298      0.088000
     25 H8          1.2310   -0.6780   -0.1630 hc        1 298      0.088000
     26 H8A         1.1160    0.8700   -0.7500 hc        1 298      0.088000
     27 H9          0.6950    0.2960    2.0150 h1        1 298      0.089000
     28 H9A         0.9630    1.7070    1.3770 h1        1 298      0.089000
     29 H11         4.1830    0.9670    2.8020 ha        1 298      0.142000
     30 H12         1.3980    2.0700    3.4960 ha        1 298      0.125500
     31 H13         2.3580    2.6230    5.5430 ha        1 298      0.125500
     32 H14         4.5560    2.1000    6.1210 ha        1 298      0.087333
     33 H14A        4.4570    0.8480    5.1540 ha        1 298      0.087333
     34 H14B        4.9160    2.2350    4.5960 ha        1 298      0.087333
@<TRIPOS>BOND
     1    1    2 1   
     2    1   15 1   
     3    1   16 1   
     4    1   17 1   
     5    2    3 1   
     6    2   18 1   
     7    3   19 1   
     8    4    5 1   
     9    4   20 1   
    10    6    7 1   
    11    6   21 1   
    12    6   22 1   
    13    7    8 1   
    14    7   23 1   
    15    7   24 1   
    16    8    9 1   
    17    8   25 1   
    18    8   26 1   
    19    9   10 1   
    20    9   27 1   
    21    9   28 1   
    22   10   11 1   
    23   11   29 1   
    24   12   13 1   
    25   12   30 1   
    26   13   31 1   
    27   14   32 1   
    28   14   33 1   
    29   14   34 1   
@<TRIPOS>SUBSTRUCTURE
     1 298         1 TEMP              0 ****  ****    0 ROOT
