@<TRIPOS>MOLECULE
298
   34    33     1     0     0
SMALL
bcc


@<TRIPOS>ATOM
      1 C1          1.4640    0.4590   -1.1320 c3        1 298     -0.072900
      2 C2          1.3060   -0.5720   -0.0900 c2        1 298     -0.108700
      3 C3          1.9200   -0.6100    1.0970 ce        1 298     -0.279600
      4 C4          2.9010    0.3720    1.5660 ce        1 298      0.471000
      5 N5          3.2100    0.7170    2.7630 n2        1 298     -0.599400
      6 C6          2.5610    0.1680    3.9250 c3        1 298      0.101300
      7 C7          3.1860   -1.1250    4.4520 c3        1 298     -0.079900
      8 C8          2.4770   -1.5640    5.7150 c3        1 298     -0.079900
      9 C9          3.1140   -2.8490    6.2480 c3        1 298      0.101300
     10 N10         2.4280   -3.3900    7.3920 n2        1 298     -0.599400
     11 C11         3.0210   -3.4520    8.5340 ce        1 298      0.471000
     12 C12         2.4250   -4.0050    9.7480 ce        1 298     -0.279600
     13 C13         1.2060   -4.5420    9.8950 c2        1 298     -0.108700
     14 C14         0.1810   -4.6980    8.8500 c3        1 298     -0.072900
     15 H1          2.1770    1.2660   -0.8360 hc        1 298      0.049867
     16 H1A         0.4730    0.9330   -1.3490 hc        1 298      0.049867
     17 H1B         1.8370   -0.0110   -2.0770 hc        1 298      0.049867
     18 H2          0.5920   -1.3740   -0.3520 ha        1 298      0.117500
     19 H3          1.7020   -1.4360    1.7990 ha        1 298      0.126500
     20 H4          3.4720    0.8960    0.7670 h4        1 298     -0.011700
     21 H6          1.4600   -0.0170    3.7530 h1        1 298      0.043700
     22 H6A         2.6490    0.9610    4.7230 h1        1 298      0.043700
     23 H7          3.1100   -1.9300    3.6740 hc        1 298      0.048950
     24 H7A         4.2760   -0.9640    4.6630 hc        1 298      0.048950
     25 H8          2.5450   -0.7550    6.4890 hc        1 298      0.048950
     26 H8A         1.3900   -1.7340    5.5020 hc        1 298      0.048950
     27 H9          3.0520   -3.6400    5.4450 h1        1 298      0.043700
     28 H9A         4.2110   -2.6460    6.4350 h1        1 298      0.043700
     29 H11         4.0640   -3.0860    8.6940 h4        1 298     -0.011700
     30 H12         3.0990   -3.9500   10.6220 ha        1 298      0.126500
     31 H13         0.9140   -4.9150   10.8940 ha        1 298      0.117500
     32 H14        -0.1070   -3.7010    8.4270 hc        1 298      0.049867
     33 H14A        0.5670   -5.3250    8.0060 hc        1 298      0.049867
     34 H14B       -0.7370   -5.1850    9.2610 hc        1 298      0.049867
@<TRIPOS>BOND
     1    1    2 1   
     2    1   15 1   
     3    1   16 1   
     4    1   17 1   
     5    2    3 2   
     6    2   18 1   
     7    3    4 1   
     8    3   19 1   
     9    4    5 2   
    10    4   20 1   
    11    5    6 1   
    12    6    7 1   
    13    6   21 1   
    14    6   22 1   
    15    7    8 1   
    16    7   23 1   
    17    7   24 1   
    18    8    9 1   
    19    8   25 1   
    20    8   26 1   
    21    9   10 1   
    22    9   27 1   
    23    9   28 1   
    24   10   11 2   
    25   11   12 1   
    26   11   29 1   
    27   12   13 2   
    28   12   30 1   
    29   13   14 1   
    30   13   31 1   
    31   14   32 1   
    32   14   33 1   
    33   14   34 1   
@<TRIPOS>SUBSTRUCTURE
     1 298         1 TEMP              0 ****  ****    0 ROOT
