@<TRIPOS>MOLECULE
298
   34    33     1     0     0
SMALL
bcc


@<TRIPOS>ATOM
      1 C1          1.1860    0.2590   -1.0760 c3        1 298     -0.074900
      2 C2          1.0140   -0.5730    0.1290 c2        1 298     -0.130200
      3 C3          1.8010   -0.5860    1.2100 ce        1 298     -0.264600
      4 C4          3.0130    0.2210    1.3750 ce        1 298      0.464500
      5 N5          3.5740    0.6490    2.4470 n2        1 298     -0.591900
      6 C6          3.0340    0.4090    3.7600 c3        1 298      0.100800
      7 C7          3.4930   -0.8990    4.4070 c3        1 298     -0.079400
      8 C8          2.9280   -1.0080    5.8060 c3        1 298     -0.079400
      9 C9          3.4000   -2.3110    6.4550 c3        1 298      0.100800
     10 N10         2.9670   -2.4490    7.8210 n2        1 298     -0.591900
     11 C11         2.2170   -3.4380    8.1690 ce        1 298      0.464500
     12 C12         1.7760   -3.6340    9.5530 ce        1 298     -0.264600
     13 C13         0.9960   -4.6520    9.9380 c2        1 298     -0.130200
     14 C14         0.4690   -5.7140    9.0590 c3        1 298     -0.074900
     15 H1          2.0760    0.9300   -1.0140 hc        1 298      0.046867
     16 H1A         0.2790    0.8980   -1.2280 hc        1 298      0.046867
     17 H1B         1.3020   -0.3970   -1.9770 hc        1 298      0.046867
     18 H2          0.1290   -1.2350    0.1000 ha        1 298      0.122500
     19 H3          1.5530   -1.2500    2.0580 ha        1 298      0.136000
     20 H4          3.5320    0.5010    0.4320 h4        1 298     -0.011200
     21 H6          1.9050    0.4320    3.7700 h1        1 298      0.044450
     22 H6A         3.3940    1.2690    4.3960 h1        1 298      0.044450
     23 H7          3.1500   -1.7700    3.7880 hc        1 298      0.049450
     24 H7A         4.6130   -0.9340    4.4450 hc        1 298      0.049450
     25 H8          3.2620   -0.1310    6.4200 hc        1 298      0.049450
     26 H8A         1.8080   -0.9840    5.7680 hc        1 298      0.049450
     27 H9          3.0840   -3.1700    5.7930 h1        1 298      0.044450
     28 H9A         4.5290   -2.3080    6.4850 h1        1 298      0.044450
     29 H11         1.8550   -4.2150    7.4550 h4        1 298     -0.011200
     30 H12         2.1200   -2.8880   10.2910 ha        1 298      0.136000
     31 H13         0.7050   -4.7320   11.0000 ha        1 298      0.122500
     32 H14        -0.1680   -5.2780    8.2480 hc        1 298      0.046867
     33 H14A        1.3050   -6.2810    8.5770 hc        1 298      0.046867
     34 H14B       -0.1530   -6.4380    9.6390 hc        1 298      0.046867
@<TRIPOS>BOND
     1    1    2 1   
     2    1   15 1   
     3    1   16 1   
     4    1   17 1   
     5    2    3 2   
     6    2   18 1   
     7    3    4 1   
     8    3   19 1   
     9    4    5 2   
    10    4   20 1   
    11    5    6 1   
    12    6    7 1   
    13    6   21 1   
    14    6   22 1   
    15    7    8 1   
    16    7   23 1   
    17    7   24 1   
    18    8    9 1   
    19    8   25 1   
    20    8   26 1   
    21    9   10 1   
    22    9   27 1   
    23    9   28 1   
    24   10   11 2   
    25   11   12 1   
    26   11   29 1   
    27   12   13 2   
    28   12   30 1   
    29   13   14 1   
    30   13   31 1   
    31   14   32 1   
    32   14   33 1   
    33   14   34 1   
@<TRIPOS>SUBSTRUCTURE
     1 298         1 TEMP              0 ****  ****    0 ROOT
