@<TRIPOS>MOLECULE
298
   34    33     1     0     0
SMALL
bcc


@<TRIPOS>ATOM
      1 C1          4.4060    2.9740   -0.3480 c3        1 298     -0.073900
      2 C2          4.6960    1.5290   -0.2910 c2        1 298     -0.130700
      3 C3          3.8420    0.6160    0.1890 ce        1 298     -0.265100
      4 C4          4.1710   -0.8110    0.2310 ce        1 298      0.464500
      5 N5          3.4490   -1.8170    0.5670 n2        1 298     -0.592400
      6 C6          2.0840   -1.6990    1.0020 c3        1 298      0.101800
      7 C7          1.0650   -1.4070   -0.1020 c3        1 298     -0.082400
      8 C8         -0.3300   -1.3510    0.4810 c3        1 298     -0.082400
      9 C9         -1.3460   -1.0820   -0.6300 c3        1 298      0.101800
     10 N10        -2.7080   -1.0920   -0.1640 n2        1 298     -0.592400
     11 C11        -3.4440   -0.0420   -0.2820 ce        1 298      0.464500
     12 C12        -4.8440   -0.0170    0.1530 ce        1 298     -0.265100
     13 C13        -5.6290    1.0620    0.0400 c2        1 298     -0.130700
     14 C14        -5.2260    2.3640   -0.5250 c3        1 298     -0.073900
     15 H1          4.4540    3.3320   -1.4080 hc        1 298      0.046533
     16 H1A         3.3940    3.2160    0.0600 hc        1 298      0.046533
     17 H1B         5.1690    3.5400    0.2430 hc        1 298      0.046533
     18 H2          5.6860    1.2330   -0.6810 ha        1 298      0.124000
     19 H3          2.8520    0.9100    0.5770 ha        1 298      0.137000
     20 H4          5.2140   -1.0620   -0.0670 h4        1 298     -0.012700
     21 H6          1.8290   -2.6940    1.4690 h1        1 298      0.045450
     22 H6A         1.9720   -0.9120    1.8040 h1        1 298      0.045450
     23 H7          1.3120   -0.4320   -0.5990 hc        1 298      0.050200
     24 H7A         1.1160   -2.2070   -0.8870 hc        1 298      0.050200
     25 H8         -0.5680   -2.3210    0.9910 hc        1 298      0.050200
     26 H8A        -0.3870   -0.5420    1.2560 hc        1 298      0.050200
     27 H9         -1.0550   -0.1210   -1.1500 h1        1 298      0.045450
     28 H9A        -1.2720   -1.9120   -1.3930 h1        1 298      0.045450
     29 H11        -3.0810    0.9160   -0.7230 h4        1 298     -0.012700
     30 H12        -5.2410   -0.9490    0.5930 ha        1 298      0.137000
     31 H13        -6.6740    1.0040    0.3920 ha        1 298      0.124000
     32 H14        -4.3780    2.8050    0.0560 hc        1 298      0.046533
     33 H14A       -4.8970    2.2510   -1.5890 hc        1 298      0.046533
     34 H14B       -6.0770    3.0890   -0.5010 hc        1 298      0.046533
@<TRIPOS>BOND
     1    1    2 1   
     2    1   15 1   
     3    1   16 1   
     4    1   17 1   
     5    2    3 2   
     6    2   18 1   
     7    3    4 1   
     8    3   19 1   
     9    4    5 2   
    10    4   20 1   
    11    5    6 1   
    12    6    7 1   
    13    6   21 1   
    14    6   22 1   
    15    7    8 1   
    16    7   23 1   
    17    7   24 1   
    18    8    9 1   
    19    8   25 1   
    20    8   26 1   
    21    9   10 1   
    22    9   27 1   
    23    9   28 1   
    24   10   11 2   
    25   11   12 1   
    26   11   29 1   
    27   12   13 2   
    28   12   30 1   
    29   13   14 1   
    30   13   31 1   
    31   14   32 1   
    32   14   33 1   
    33   14   34 1   
@<TRIPOS>SUBSTRUCTURE
     1 298         1 TEMP              0 ****  ****    0 ROOT
