@<TRIPOS>MOLECULE
299
   23    22     1     0     0
SMALL
bcc


@<TRIPOS>ATOM
      1 C1          0.1120   -0.1550   -0.2610 ca        1 299      0.025500
      2 C2          1.5030   -0.2560   -0.2260 ca        1 299     -0.304000
      3 C3          2.1550    0.0180    0.9870 ca        1 299      0.025500
      4 C4          1.4720    0.3830    2.1320 ca        1 299     -0.362500
      5 C5          0.0200    0.4990    2.1250 ca        1 299      0.358000
      6 C6         -0.6310    0.2070    0.8550 ca        1 299     -0.362500
      7 C7          2.2790   -0.6320   -1.4230 c3        1 299     -0.118000
      8 C11         2.2020    0.6570    3.3690 c2        1 299      0.236500
      9 C12        -2.0750    0.3020    0.7840 c2        1 299      0.236500
     10 O13        -0.6450    0.8290    3.1440 o         1 299     -0.501000
     11 P14        -1.3760    1.4700    5.2950 p3        1 299      2.474000
     12 O15        -2.2290    0.3010    5.5990 o         1 299     -1.160333
     13 O16         0.0320    1.4780    5.7520 o         1 299     -1.160333
     14 O17        -2.0280    2.7480    4.9380 o         1 299     -1.160333
     15 O20         3.4440    0.5750    3.4440 o         1 299     -0.430000
     16 O22        -2.7490    0.0770   -0.2410 o         1 299     -0.430000
     17 H1         -0.4270   -0.3670   -1.2010 ha        1 299      0.104500
     18 H3          3.2550   -0.0590    1.0320 ha        1 299      0.104500
     19 H71         2.8190    0.2550   -1.8440 hc        1 299      0.040667
     20 H72         3.0460   -1.4080   -1.1770 hc        1 299      0.040667
     21 H73         1.6150   -1.0410   -2.2250 hc        1 299      0.040667
     22 H11         1.5850    0.9470    4.2570 h4        1 299      0.151500
     23 H12        -2.5770    0.6000    1.7350 h4        1 299      0.151500
@<TRIPOS>BOND
     1    1    2 1   
     2    1    6 1   
     3    1   17 1   
     4    2    3 1   
     5    2    7 1   
     6    3    4 1   
     7    3   18 1   
     8    4    5 1   
     9    4    8 1   
    10    5    6 1   
    11    5   10 1   
    12    6    9 1   
    13    7   19 1   
    14    7   20 1   
    15    7   21 1   
    16    8   15 1   
    17    8   22 1   
    18    9   16 1   
    19    9   23 1   
    20   11   12 1   
    21   11   13 1   
    22   11   14 1   
@<TRIPOS>SUBSTRUCTURE
     1 299         1 TEMP              0 ****  ****    0 ROOT
