@<TRIPOS>MOLECULE
299
   23    23     1     0     0
SMALL
bcc


@<TRIPOS>ATOM
      1 C1          0.0660   -0.0180   -0.1140 ca        1 299     -0.004000
      2 C2          1.4620   -0.1300   -0.1320 ca        1 299     -0.274300
      3 C3          2.1510   -0.0310    1.0820 ca        1 299     -0.004000
      4 C4          1.4890    0.1350    2.2900 ca        1 299     -0.340600
      5 C5          0.0490    0.1620    2.3330 ca        1 299      0.420100
      6 C6         -0.6410    0.1480    1.0680 ca        1 299     -0.340600
      7 C7          2.1910   -0.3080   -1.4030 c3        1 299      0.000200
      8 C11         2.2240    0.3480    3.5400 c         1 299      0.579500
      9 C12        -2.0880    0.3750    1.0650 c         1 299      0.579500
     10 O13        -0.5920    0.0830    3.4490 os        1 299     -0.402500
     11 P14        -1.2420    1.3890    4.5960 p5        1 299      1.309900
     12 O15        -1.8540    0.5400    5.6540 o         1 299     -0.880167
     13 O16         0.0690    2.0380    4.8940 o         1 299     -0.880167
     14 O17        -2.1540    2.0520    3.6180 o         1 299     -0.880167
     15 O20         3.4420    0.1170    3.6540 o         1 299     -0.665100
     16 O22        -2.8030    0.1560    0.0700 o         1 299     -0.665100
     17 H1         -0.4960   -0.0520   -1.0620 ha        1 299      0.108000
     18 H3          3.2530   -0.0760    1.0890 ha        1 299      0.108000
     19 H71         2.4670    0.6830   -1.8460 hc        1 299      0.004367
     20 H72         3.1350   -0.8870   -1.2480 hc        1 299      0.004367
     21 H73         1.5650   -0.8540   -2.1530 hc        1 299      0.004367
     22 H11         1.6030    0.7680    4.3800 h4        1 299      0.108200
     23 H12        -2.4960    0.7930    2.0270 h4        1 299      0.108200
@<TRIPOS>BOND
     1    1    2 ar  
     2    1    6 ar  
     3    1   17 1   
     4    2    3 ar  
     5    2    7 1   
     6    3    4 ar  
     7    3   18 1   
     8    4    5 ar  
     9    4    8 1   
    10    5    6 ar  
    11    5   10 1   
    12    6    9 1   
    13    7   19 1   
    14    7   20 1   
    15    7   21 1   
    16    8   15 2   
    17    8   22 1   
    18    9   16 2   
    19    9   23 1   
    20   10   11 1   
    21   11   12 1   
    22   11   13 1   
    23   11   14 1   
@<TRIPOS>SUBSTRUCTURE
     1 299         1 TEMP              0 ****  ****    0 ROOT
