@<TRIPOS>MOLECULE
299
   23    22     1     0     0
SMALL
bcc


@<TRIPOS>ATOM
      1 C1         -1.1970   -0.1040    2.4900 ca        1 299      0.025500
      2 C2          0.0440   -0.1740    3.1240 ca        1 299     -0.304000
      3 C3          1.1980   -0.1520    2.3230 ca        1 299      0.025500
      4 C4          1.1450   -0.0640    0.9460 ca        1 299     -0.362500
      5 C5         -0.1370    0.0120    0.2550 ca        1 299      0.358000
      6 C6         -1.3170   -0.0140    1.1090 ca        1 299     -0.362500
      7 C7          0.1550   -0.2590    4.5930 c3        1 299     -0.118000
      8 C11         2.3770   -0.0460    0.1610 c2        1 299      0.236500
      9 C12        -2.6210    0.0560    0.4820 c2        1 299      0.236500
     10 O13        -0.2340    0.0950   -0.9990 o         1 299     -0.501000
     11 P14         0.1510    0.2340   -3.3240 p3        1 299      2.474000
     12 O15        -0.4900    1.5410   -3.5800 o         1 299     -1.160333
     13 O16         1.6080    0.1780   -3.0680 o         1 299     -1.160333
     14 O17        -0.5570   -0.9950   -3.7410 o         1 299     -1.160333
     15 O20         3.5060   -0.1100    0.6870 o         1 299     -0.430000
     16 O22        -3.7050    0.0430    1.1010 o         1 299     -0.430000
     17 H1         -2.1200   -0.1200    3.0940 ha        1 299      0.104500
     18 H3          2.1870   -0.2090    2.8100 ha        1 299      0.104500
     19 H71         0.5120    0.7110    5.0240 hc        1 299      0.040667
     20 H72        -0.8320   -0.5000    5.0600 hc        1 299      0.040667
     21 H73         0.8860   -1.0510    4.8940 hc        1 299      0.040667
     22 H11         2.2590    0.0270   -0.9500 h4        1 299      0.151500
     23 H12        -2.6080    0.1270   -0.6310 h4        1 299      0.151500
@<TRIPOS>BOND
     1    1    2 1   
     2    1    6 1   
     3    1   17 1   
     4    2    3 1   
     5    2    7 1   
     6    3    4 1   
     7    3   18 1   
     8    4    5 1   
     9    4    8 1   
    10    5    6 1   
    11    5   10 1   
    12    6    9 1   
    13    7   19 1   
    14    7   20 1   
    15    7   21 1   
    16    8   15 1   
    17    8   22 1   
    18    9   16 1   
    19    9   23 1   
    20   11   12 1   
    21   11   13 1   
    22   11   14 1   
@<TRIPOS>SUBSTRUCTURE
     1 299         1 TEMP              0 ****  ****    0 ROOT
