@<TRIPOS>MOLECULE
299
   23    20     1     0     0
SMALL
bcc


@<TRIPOS>ATOM
      1 C1         -0.4020    0.2740   -1.6900 c1        1 299      0.087500
      2 C2          0.9830    0.2260   -1.6810 c1        1 299     -0.277100
      3 C3          1.6690    0.2320   -0.4780 c1        1 299      0.078500
      4 C4          0.9710    0.2870    0.7180 cg        1 299     -0.317200
      5 C5         -0.4150    0.3350    0.7100 c1        1 299      0.386600
      6 C6         -1.1010    0.3290   -0.4940 cg        1 299     -0.346200
      7 C7          1.7460    0.2020   -2.9870 c3        1 299     -0.027000
      8 C11         1.7190    0.2820    2.0330 c         1 299      0.527100
      9 C12        -2.6110    0.4220   -0.5040 c         1 299      0.548100
     10 O13        -1.1240    0.3460    1.9230 os        1 299     -0.296000
     11 P14        -1.5110   -1.0380    2.5810 p5        1 299      1.281900
     12 O15        -0.6090   -1.3020    3.7630 o         1 299     -0.840833
     13 O16        -1.3460   -2.1420    1.5650 o         1 299     -0.840833
     14 O17        -2.9470   -0.9900    3.0450 o         1 299     -0.840833
     15 O20         1.1060    0.3300    3.0820 o         1 299     -0.666100
     16 O22        -3.2240    0.4700    0.5460 o         1 299     -0.672100
     17 H1         -0.8860    0.2510   -2.5370 ha        1 299      0.045500
     18 H3          2.6450    0.1980   -0.4720 ha        1 299      0.048500
     19 H71         2.5810   -0.2970   -2.8680 hc        1 299      0.001367
     20 H72         1.2010   -0.2320   -3.6770 hc        1 299      0.001367
     21 H73         1.9510    1.1200   -3.2620 hc        1 299      0.001367
     22 H11         2.6960    0.2330    2.0390 h4        1 299      0.093200
     23 H12        -3.0930    0.4640   -1.3540 h4        1 299      0.024200
@<TRIPOS>BOND
     1    1    6 3   
     2    1   17 1   
     3    2    3 3   
     4    2    7 1   
     5    3   18 1   
     6    4    5 3   
     7    4    8 1   
     8    5   10 1   
     9    6    9 1   
    10    7   19 1   
    11    7   20 1   
    12    7   21 1   
    13    8   15 2   
    14    8   22 1   
    15    9   16 2   
    16    9   23 1   
    17   10   11 1   
    18   11   12 1   
    19   11   13 1   
    20   11   14 1   
@<TRIPOS>SUBSTRUCTURE
     1 299         1 TEMP              0 ****  ****    0 ROOT
