@<TRIPOS>MOLECULE
29A
   49    51     1     0     0
SMALL
bcc


@<TRIPOS>ATOM
      1 C1          5.1600    0.8650    0.1760 ca        1 29A     -0.148300
      2 C2          6.1190    1.7160   -0.4160 ca        1 29A      0.159900
      3 C3          7.4830    1.5800   -0.1140 ca        1 29A     -0.209000
      4 C4          7.8860    0.5760    0.7820 ca        1 29A      0.157900
      5 C5          6.9380   -0.2810    1.3710 ca        1 29A     -0.181000
      6 C6          5.5910   -0.1260    1.0630 ca        1 29A     -0.055000
      7 C7          3.7130    1.0540   -0.1350 c3        1 29A      0.190700
      8 O8          3.0950   -0.2470   -0.0370 os        1 29A     -0.301900
      9 C9          1.7460   -0.3270   -0.2860 cc        1 29A      0.370700
     10 C10         1.1520   -1.5790   -0.1830 cd        1 29A     -0.200800
     11 C11        -0.2870   -1.7240   -0.4360 c         1 29A      0.713700
     12 N12        -0.9670   -0.5190   -0.8050 n         1 29A     -0.306500
     13 C13        -0.2620    0.6750   -0.8550 cd        1 29A      0.529800
     14 N14         1.0270    0.8210   -0.6240 nc        1 29A     -0.674300
     15 C15        -2.3740   -0.4930   -1.0450 ca        1 29A      0.004600
     16 C16        -2.9430   -1.1500   -2.1620 ca        1 29A     -0.015300
     17 C17        -4.3290   -1.0770   -2.3510 ca        1 29A     -0.137000
     18 C18        -5.1460   -0.3780   -1.4690 ca        1 29A     -0.089000
     19 C19        -4.5820    0.2700   -0.3670 ca        1 29A     -0.139600
     20 C20        -3.2040    0.2160   -0.1540 ca        1 29A     -0.074000
     21 F21         5.7330    2.6810   -1.2850 f         1 29A     -0.133900
     22 F22         9.1990    0.4350    1.0780 f         1 29A     -0.132900
     23 CL23        2.0060   -2.9720    0.2320 cl        1 29A     -0.031400
     24 O24        -0.9270   -2.7830   -0.3590 o         1 29A     -0.589500
     25 C25        -2.1150   -1.9140   -3.1220 c3        1 29A     -0.073800
     26 C26        -5.4040    1.0620    0.5950 c         1 29A      0.666700
     27 O27        -4.9790    2.1350    1.0740 o         1 29A     -0.610100
     28 N28        -6.6170    0.5280    0.9820 n         1 29A     -0.547900
     29 C29        -7.5510    1.2560    1.7920 c3        1 29A      0.086000
     30 C30        -8.7330    1.8630    1.0200 c3        1 29A      0.098400
     31 O31        -9.4450    0.7930    0.4210 oh        1 29A     -0.611800
     32 HN28       -6.9810   -0.2530    0.4870 hn        1 29A      0.320500
     33 HO31      -10.2170    1.1780   -0.0090 ho        1 29A      0.405000
     34 H3          8.2240    2.2480   -0.5760 ha        1 29A      0.167000
     35 H5          7.2690   -1.0650    2.0670 ha        1 29A      0.157000
     36 H6          4.8440   -0.7990    1.5150 ha        1 29A      0.163000
     37 H7          3.2400    1.7450    0.6140 h1        1 29A      0.073200
     38 H7A         3.5750    1.4580   -1.1730 h1        1 29A      0.073200
     39 H13        -0.8420    1.5900   -1.1180 h5        1 29A      0.072800
     40 H17        -4.7780   -1.5870   -3.2180 ha        1 29A      0.145000
     41 H18        -6.2300   -0.3300   -1.6570 ha        1 29A      0.142000
     42 H20        -2.7800    0.7440    0.7190 ha        1 29A      0.163000
     43 H25        -1.6300   -2.7810   -2.5990 hc        1 29A      0.061367
     44 H25A       -2.7330   -2.3120   -3.9640 hc        1 29A      0.061367
     45 H25B       -1.3100   -1.2680   -3.5530 hc        1 29A      0.061367
     46 H29        -7.9650    0.5430    2.5610 h1        1 29A      0.074200
     47 H29A       -7.0140    2.0960    2.3180 h1        1 29A      0.074200
     48 H30        -9.3920    2.4130    1.7430 h1        1 29A      0.034200
     49 H30A       -8.3790    2.5770    0.2290 h1        1 29A      0.034200
@<TRIPOS>BOND
     1    1    2 ar  
     2    1    6 ar  
     3    1    7 1   
     4    2    3 ar  
     5    2   21 1   
     6    3    4 ar  
     7    3   34 1   
     8    4    5 ar  
     9    4   22 1   
    10    5    6 ar  
    11    5   35 1   
    12    6   36 1   
    13    7    8 1   
    14    7   37 1   
    15    7   38 1   
    16    8    9 1   
    17    9   10 2   
    18    9   14 1   
    19   10   11 1   
    20   10   23 1   
    21   11   12 1   
    22   11   24 2   
    23   12   13 1   
    24   12   15 1   
    25   13   14 2   
    26   13   39 1   
    27   15   16 ar  
    28   15   20 ar  
    29   16   17 ar  
    30   16   25 1   
    31   17   18 ar  
    32   17   40 1   
    33   18   19 ar  
    34   18   41 1   
    35   19   20 ar  
    36   19   26 1   
    37   20   42 1   
    38   25   43 1   
    39   25   44 1   
    40   25   45 1   
    41   26   27 2   
    42   26   28 1   
    43   28   29 1   
    44   28   32 1   
    45   29   30 1   
    46   29   46 1   
    47   29   47 1   
    48   30   31 1   
    49   30   48 1   
    50   30   49 1   
    51   31   33 1   
@<TRIPOS>SUBSTRUCTURE
     1 29A         1 TEMP              0 ****  ****    0 ROOT
