@<TRIPOS>MOLECULE
29A
   50    52     1     0     0
SMALL
bcc


@<TRIPOS>ATOM
      1 C1          0.0330   -0.0290   -0.0830 ca        1 29A     -0.164300
      2 C2          1.1920    0.7620    0.0720 ca        1 29A      0.169900
      3 C3          1.8410    0.8440    1.3150 ca        1 29A     -0.207000
      4 C4          1.3140    0.1370    2.4080 ca        1 29A      0.171900
      5 C5          0.1520   -0.6450    2.2630 ca        1 29A     -0.181000
      6 C6         -0.4700   -0.7190    1.0230 ca        1 29A     -0.052000
      7 C7         -0.6270   -0.1420   -1.4150 c3        1 29A      0.192700
      8 O8         -2.0480    0.0090   -1.1710 os        1 29A     -0.288900
      9 C9         -2.8850    0.0170   -2.2510 cc        1 29A      0.379700
     10 C10        -4.2420    0.2020   -2.0100 cd        1 29A     -0.199800
     11 C11        -5.1830    0.2210   -3.1330 c         1 29A      0.716700
     12 N12        -4.5980    0.0280   -4.4300 n         1 29A     -0.336500
     13 C13        -3.2190   -0.1430   -4.5430 cd        1 29A      0.518800
     14 N14        -2.3700   -0.1610   -3.5420 nc        1 29A     -0.645300
     15 C15        -5.4030    0.0800   -5.6010 ca        1 29A      0.024600
     16 C16        -6.3480   -0.9380   -5.8900 ca        1 29A      0.050700
     17 C17        -7.1440   -0.8160   -7.0410 ca        1 29A     -0.133000
     18 C18        -7.0350    0.2730   -7.8910 ca        1 29A     -0.077000
     19 C19        -6.0990    1.2820   -7.6100 ca        1 29A     -0.214600
     20 C20        -5.2830    1.1800   -6.4700 ca        1 29A     -0.037000
     21 F21         1.6980    1.4500   -0.9790 f         1 29A     -0.133900
     22 F22         1.9290    0.2120    3.6100 f         1 29A     -0.123900
     23 Cl23       -4.8830    0.4190   -0.4700 cl        1 29A     -0.004400
     24 O24        -6.4100    0.3840   -3.0620 o         1 29A     -0.595500
     25 C25        -6.5270   -2.1050   -5.0000 c3        1 29A     -0.093800
     26 C26        -5.9020    2.4660   -8.4360 c         1 29A      0.577700
     27 O27        -5.0060    3.3000   -8.3800 o         1 29A     -0.434100
     28 N28        -6.9220    2.7410   -9.5270 ny        1 29A     -0.674800
     29 C29        -8.2370    3.1700   -8.9660 c3        1 29A      0.100800
     30 C30        -9.3890    2.9540   -9.9540 c3        1 29A      0.106400
     31 O31        -9.3340    1.5900  -10.3380 oh        1 29A     -0.638800
     32 HN28       -6.5590    3.4740  -10.1500 hn        1 29A      0.466800
     33 HO31      -10.1670    1.3730  -10.7780 ho        1 29A      0.455000
     34 H3          2.7480    1.4560    1.4290 ha        1 29A      0.173000
     35 H5         -0.2510   -1.1890    3.1310 ha        1 29A      0.162000
     36 H6         -1.3850   -1.3230    0.9040 ha        1 29A      0.155000
     37 H7         -0.4470   -1.1540   -1.8650 h1        1 29A      0.073200
     38 H7A        -0.2790    0.6640   -2.1130 h1        1 29A      0.073200
     39 H13        -2.8090   -0.2840   -5.5670 h5        1 29A      0.066800
     40 H17        -7.8790   -1.6090   -7.2660 ha        1 29A      0.170000
     41 H18        -7.6980    0.3160   -8.7720 ha        1 29A      0.148000
     42 H20        -4.5510    1.9820   -6.2590 ha        1 29A      0.175000
     43 H25        -6.9020   -1.7560   -3.9980 hc        1 29A      0.082367
     44 H25A       -5.5550   -2.6370   -4.8420 hc        1 29A      0.082367
     45 H25B       -7.2640   -2.8330   -5.4200 hc        1 29A      0.082367
     46 H29        -8.1750    4.2600   -8.6880 hx        1 29A      0.120200
     47 H29A       -8.4300    2.5580   -8.0360 hx        1 29A      0.120200
     48 H30        -9.2830    3.6080  -10.8600 h1        1 29A      0.076200
     49 H30A      -10.3520    3.1930   -9.4280 h1        1 29A      0.076200
     50 H282       -7.0660    1.8840  -10.0800 hn        1 29A      0.466800
@<TRIPOS>BOND
     1    1    2 ar  
     2    1    6 ar  
     3    1    7 1   
     4    2    3 ar  
     5    2   21 1   
     6    3    4 ar  
     7    3   34 1   
     8    4    5 ar  
     9    4   22 1   
    10    5    6 ar  
    11    5   35 1   
    12    6   36 1   
    13    7    8 1   
    14    7   37 1   
    15    7   38 1   
    16    8    9 1   
    17    9   10 2   
    18    9   14 1   
    19   10   11 1   
    20   10   23 1   
    21   11   12 1   
    22   11   24 2   
    23   12   13 1   
    24   12   15 1   
    25   13   14 2   
    26   13   39 1   
    27   15   16 ar  
    28   15   20 ar  
    29   16   17 ar  
    30   16   25 1   
    31   17   18 ar  
    32   17   40 1   
    33   18   19 ar  
    34   18   41 1   
    35   19   20 ar  
    36   19   26 1   
    37   20   42 1   
    38   25   43 1   
    39   25   44 1   
    40   25   45 1   
    41   26   27 2   
    42   26   28 1   
    43   28   29 1   
    44   28   32 1   
    45   28   50 1   
    46   29   30 1   
    47   29   46 1   
    48   29   47 1   
    49   30   31 1   
    50   30   48 1   
    51   30   49 1   
    52   31   33 1   
@<TRIPOS>SUBSTRUCTURE
     1 29A         1 TEMP              0 ****  ****    0 ROOT
