@<TRIPOS>MOLECULE
29A
   49    45     1     0     0
SMALL
bcc


@<TRIPOS>ATOM
      1 C1          4.2400   -0.1020    4.8640 c1        1 29A     -0.142000
      2 C2          5.2060   -1.0920    4.7130 c1        1 29A      0.124500
      3 C3          6.0250   -1.4290    5.7780 c1        1 29A     -0.194500
      4 C4          5.8800   -0.7760    7.0030 c1        1 29A      0.124500
      5 C5          4.9160    0.2110    7.1540 c1        1 29A     -0.194500
      6 C6          4.0950    0.5490    6.0860 c1        1 29A     -0.055000
      7 C7          3.2710    0.2220    3.6940 c3        1 29A      0.033000
      8 O8          2.3750   -0.8540    3.5100 os        1 29A     -0.186000
      9 C9          1.5310   -0.7170    2.3620 c2        1 29A      0.186000
     10 C10         0.0650   -0.7670    2.5160 c1        1 29A     -0.267000
     11 C11        -0.8030   -0.7420    1.3130 c2        1 29A      0.352000
     12 N12        -0.2200   -0.7120    0.0170 n         1 29A     -0.241000
     13 C13         1.2390   -0.6320   -0.1300 c2        1 29A      0.106000
     14 N14         2.1060   -0.6870    1.0590 n2        1 29A     -0.245000
     15 C15        -1.0700   -0.7270   -1.1630 c2        1 29A      0.014000
     16 C16        -1.5320   -1.9390   -1.6740 c2        1 29A     -0.008000
     17 C17        -2.3890   -1.9520   -2.7810 c1        1 29A     -0.136000
     18 C18        -2.7790   -0.7520   -3.3740 c1        1 29A     -0.091000
     19 C19        -2.3180    0.4590   -2.8640 c1        1 29A     -0.121000
     20 C20        -1.4610    0.4720   -1.7550 c1        1 29A     -0.074000
     21 F21         5.3490   -1.7140    3.5360 f         1 29A     -0.098500
     22 F22         6.7290   -1.0490    8.0180 f         1 29A     -0.098500
     23 CL23       -0.6370   -1.0270    4.0920 cl        1 29A      0.054000
     24 O24        -2.0060   -0.7840    1.4340 o         1 29A     -0.314000
     25 C25        -1.0490   -3.2510   -1.0700 c3        1 29A     -0.199000
     26 C26        -2.7300    1.7850   -3.5360 c2        1 29A      0.345000
     27 O27        -2.3270    2.8390   -3.0910 o         1 29A     -0.362000
     28 N28        -3.6700    1.7770   -4.6000 n         1 29A     -0.376000
     29 C29        -3.9980    3.0030   -5.2780 c3        1 29A     -0.030000
     30 C30        -4.8460    2.7010   -6.4690 c3        1 29A     -0.044000
     31 O31        -5.0190    3.8690   -7.2290 oh        1 29A     -0.326000
     32 HN28       -4.1190    1.0090   -4.8050 hn        1 29A      0.227000
     33 HO31       -5.3100    3.6560   -8.0330 ho        1 29A      0.204000
     34 H3          6.7080   -2.1280    5.6710 ha        1 29A      0.162000
     35 H5          4.8140    0.6700    8.0160 ha        1 29A      0.162000
     36 H6          3.4150    1.2450    6.1930 ha        1 29A      0.163000
     37 H7          3.7900    0.3630    2.8650 h1        1 29A      0.113000
     38 H7A         2.7610    1.0410    3.9050 h1        1 29A      0.113000
     39 H13         1.6330   -0.6110   -1.0110 h5        1 29A      0.203000
     40 H17        -2.7150   -2.8070   -3.1420 ha        1 29A      0.145000
     41 H18        -3.3760   -0.7600   -4.1460 ha        1 29A      0.139000
     42 H20        -1.1420    1.3080   -1.4030 ha        1 29A      0.163000
     43 H25        -1.0080   -3.1670   -0.0940 hc        1 29A      0.101000
     44 H25A       -1.6740   -3.9740   -1.3110 hc        1 29A      0.101000
     45 H25B       -0.1590   -3.4610   -1.4160 hc        1 29A      0.101000
     46 H29        -4.4930    3.5990   -4.6620 h1        1 29A      0.116500
     47 H29A       -3.1730    3.4470   -5.5690 h1        1 29A      0.116500
     48 H30        -5.7160    2.3740   -6.1730 h1        1 29A      0.066500
     49 H30A       -4.4070    2.0140   -7.0180 h1        1 29A      0.066500
@<TRIPOS>BOND
     1    1    6 1   
     2    1    7 1   
     3    2    3 1   
     4    2   21 1   
     5    3   34 1   
     6    4    5 1   
     7    4   22 1   
     8    5   35 1   
     9    6   36 1   
    10    7    8 1   
    11    7   37 1   
    12    7   38 1   
    13    8    9 1   
    14    9   10 1   
    15    9   14 1   
    16   10   11 1   
    17   11   12 1   
    18   11   24 1   
    19   12   13 1   
    20   12   15 1   
    21   13   14 1   
    22   13   39 1   
    23   15   16 1   
    24   15   20 1   
    25   16   17 1   
    26   16   25 1   
    27   17   40 1   
    28   18   19 1   
    29   18   41 1   
    30   19   26 1   
    31   20   42 1   
    32   25   43 1   
    33   25   44 1   
    34   25   45 1   
    35   26   27 1   
    36   26   28 1   
    37   28   29 1   
    38   28   32 1   
    39   29   30 1   
    40   29   46 1   
    41   29   47 1   
    42   30   31 1   
    43   30   48 1   
    44   30   49 1   
    45   31   33 1   
@<TRIPOS>SUBSTRUCTURE
     1 29A         1 TEMP              0 ****  ****    0 ROOT
