@<TRIPOS>MOLECULE
29A
   50    52     1     0     0
SMALL
bcc


@<TRIPOS>ATOM
      1 C1          0.0330   -0.0290   -0.0840 ca        1 29A     -0.164300
      2 C2          1.1990    0.7540    0.0620 ca        1 29A      0.169900
      3 C3          1.8510    0.8430    1.3030 ca        1 29A     -0.207000
      4 C4          1.3190    0.1520    2.4040 ca        1 29A      0.171900
      5 C5          0.1500   -0.6210    2.2690 ca        1 29A     -0.181000
      6 C6         -0.4750   -0.7030    1.0310 ca        1 29A     -0.052000
      7 C7         -0.6300   -0.1490   -1.4130 c3        1 29A      0.192700
      8 O8         -2.0490    0.0190   -1.1680 os        1 29A     -0.288900
      9 C9         -2.8880    0.0240   -2.2480 cc        1 29A      0.379700
     10 C10        -4.2430    0.2260   -2.0070 cd        1 29A     -0.199800
     11 C11        -5.1850    0.2420   -3.1280 c         1 29A      0.716700
     12 N12        -4.6040    0.0300   -4.4240 n         1 29A     -0.336500
     13 C13        -3.2270   -0.1570   -4.5360 cd        1 29A      0.518800
     14 N14        -2.3770   -0.1730   -3.5370 nc        1 29A     -0.645300
     15 C15        -5.4100    0.0780   -5.5950 ca        1 29A      0.024600
     16 C16        -6.3670   -0.9330   -5.8710 ca        1 29A      0.050700
     17 C17        -7.1630   -0.8140   -7.0220 ca        1 29A     -0.133000
     18 C18        -7.0440    0.2650   -7.8840 ca        1 29A     -0.077000
     19 C19        -6.0950    1.2660   -7.6150 ca        1 29A     -0.214600
     20 C20        -5.2790    1.1670   -6.4750 ca        1 29A     -0.037000
     21 F21         1.7090    1.4260   -0.9970 f         1 29A     -0.133900
     22 F22         1.9370    0.2340    3.6040 f         1 29A     -0.123900
     23 CL23       -4.8790    0.4660   -0.4680 cl        1 29A     -0.004400
     24 O24        -6.4110    0.4190   -3.0570 o         1 29A     -0.595500
     25 C25        -6.5570   -2.0880   -4.9680 c3        1 29A     -0.093800
     26 C26        -5.8860    2.4390   -8.4540 c         1 29A      0.577700
     27 O27        -4.9810    3.2630   -8.4090 o         1 29A     -0.434100
     28 N28        -6.9060    2.7150   -9.5460 n4        1 29A     -0.674800
     29 C29        -8.2150    3.1640   -8.9860 c3        1 29A      0.100800
     30 C30        -9.3720    2.9510   -9.9700 c3        1 29A      0.106400
     31 O31        -9.3330    1.5830  -10.3410 oh        1 29A     -0.638800
     32 HN28       -7.0610    1.8530  -10.0900 hn        1 29A      0.466800
     33 HO31      -10.1700    1.3720  -10.7770 ho        1 29A      0.455000
     34 H3          2.7630    1.4480    1.4090 ha        1 29A      0.173000
     35 H5         -0.2560   -1.1520    3.1430 ha        1 29A      0.162000
     36 H6         -1.3960   -1.2990    0.9190 ha        1 29A      0.155000
     37 H7         -0.2760    0.6460   -2.1210 h1        1 29A      0.073200
     38 H7A        -0.4610   -1.1680   -1.8520 h1        1 29A      0.073200
     39 H13        -2.8200   -0.3140   -5.5600 h5        1 29A      0.066800
     40 H17        -7.9070   -1.6010   -7.2380 ha        1 29A      0.170000
     41 H18        -7.7070    0.3060   -8.7640 ha        1 29A      0.148000
     42 H20        -4.5390    1.9640   -6.2730 ha        1 29A      0.175000
     43 H25        -6.9270   -1.7250   -3.9700 hc        1 29A      0.082367
     44 H25A       -5.5910   -2.6290   -4.8060 hc        1 29A      0.082367
     45 H25B       -7.3030   -2.8120   -5.3800 hc        1 29A      0.082367
     46 H29        -8.4130    2.5640   -8.0500 hx        1 29A      0.120200
     47 H29A       -8.1390    4.2560   -8.7190 hx        1 29A      0.120200
     48 H30        -9.2590    3.5960  -10.8830 h1        1 29A      0.076200
     49 H30A      -10.3310    3.2080   -9.4440 h1        1 29A      0.076200
     50 H282       -6.5350    3.4360  -10.1770 hn        1 29A      0.466800
@<TRIPOS>BOND
     1    1    2 ar  
     2    1    6 ar  
     3    1    7 1   
     4    2    3 ar  
     5    2   21 1   
     6    3    4 ar  
     7    3   34 1   
     8    4    5 ar  
     9    4   22 1   
    10    5    6 ar  
    11    5   35 1   
    12    6   36 1   
    13    7    8 1   
    14    7   37 1   
    15    7   38 1   
    16    8    9 1   
    17    9   10 2   
    18    9   14 1   
    19   10   11 1   
    20   10   23 1   
    21   11   12 1   
    22   11   24 2   
    23   12   13 1   
    24   12   15 1   
    25   13   14 2   
    26   13   39 1   
    27   15   16 ar  
    28   15   20 ar  
    29   16   17 ar  
    30   16   25 1   
    31   17   18 ar  
    32   17   40 1   
    33   18   19 ar  
    34   18   41 1   
    35   19   20 ar  
    36   19   26 1   
    37   20   42 1   
    38   25   43 1   
    39   25   44 1   
    40   25   45 1   
    41   26   27 2   
    42   26   28 1   
    43   28   29 1   
    44   28   32 1   
    45   28   50 1   
    46   29   30 1   
    47   29   46 1   
    48   29   47 1   
    49   30   31 1   
    50   30   48 1   
    51   30   49 1   
    52   31   33 1   
@<TRIPOS>SUBSTRUCTURE
     1 29A         1 TEMP              0 ****  ****    0 ROOT
