@<TRIPOS>MOLECULE
29A
   50    52     1     0     0
SMALL
bcc


@<TRIPOS>ATOM
      1 C1          0.0310   -0.0340   -0.0820 ca        1 29A     -0.164300
      2 C2          1.1940    0.7520    0.0720 ca        1 29A      0.169900
      3 C3          1.8430    0.8350    1.3140 ca        1 29A     -0.207000
      4 C4          1.3120    0.1340    2.4100 ca        1 29A      0.171900
      5 C5          0.1460   -0.6430    2.2670 ca        1 29A     -0.181000
      6 C6         -0.4760   -0.7180    1.0270 ca        1 29A     -0.052000
      7 C7         -0.6290   -0.1470   -1.4130 c3        1 29A      0.192700
      8 O8         -2.0500    0.0100   -1.1690 os        1 29A     -0.288900
      9 C9         -2.8860    0.0180   -2.2500 cc        1 29A      0.379700
     10 C10        -4.2440    0.2080   -2.0090 cd        1 29A     -0.199800
     11 C11        -5.1840    0.2280   -3.1320 c         1 29A      0.716700
     12 N12        -4.5990    0.0300   -4.4290 n         1 29A     -0.336500
     13 C13        -3.2210   -0.1460   -4.5410 cd        1 29A      0.518800
     14 N14        -2.3730   -0.1650   -3.5400 nc        1 29A     -0.645300
     15 C15        -5.4040    0.0820   -5.6000 ca        1 29A      0.024600
     16 C16        -6.3520   -0.9350   -5.8860 ca        1 29A      0.050700
     17 C17        -7.1480   -0.8130   -7.0380 ca        1 29A     -0.133000
     18 C18        -7.0360    0.2740   -7.8900 ca        1 29A     -0.077000
     19 C19        -6.0970    1.2810   -7.6110 ca        1 29A     -0.214600
     20 C20        -5.2810    1.1790   -6.4710 ca        1 29A     -0.037000
     21 F21         1.7030    1.4350   -0.9810 f         1 29A     -0.133900
     22 F22         1.9280    0.2090    3.6110 f         1 29A     -0.123900
     23 CL23       -4.8840    0.4310   -0.4700 cl        1 29A     -0.004400
     24 O24        -6.4110    0.3950   -3.0620 o         1 29A     -0.595500
     25 C25        -6.5350   -2.0990   -4.9940 c3        1 29A     -0.093800
     26 C26        -5.8960    2.4630   -8.4400 c         1 29A      0.577700
     27 O27        -4.9980    3.2940   -8.3860 o         1 29A     -0.434100
     28 N28        -6.9160    2.7380   -9.5320 n4        1 29A     -0.674800
     29 C29        -8.2300    3.1720   -8.9720 c3        1 29A      0.100800
     30 C30        -9.3820    2.9560   -9.9600 c3        1 29A      0.106400
     31 O31        -9.3310    1.5910  -10.3410 oh        1 29A     -0.638800
     32 HN28       -6.5500    3.4680  -10.1570 hn        1 29A      0.466800
     33 HO31      -10.1640    1.3750  -10.7800 ho        1 29A      0.455000
     34 H3          2.7520    1.4430    1.4270 ha        1 29A      0.173000
     35 H5         -0.2590   -1.1820    3.1360 ha        1 29A      0.162000
     36 H6         -1.3940   -1.3170    0.9090 ha        1 29A      0.155000
     37 H7         -0.4530   -1.1610   -1.8610 h1        1 29A      0.073200
     38 H7A        -0.2780    0.6560   -2.1130 h1        1 29A      0.073200
     39 H13        -2.8120   -0.2910   -5.5650 h5        1 29A      0.066800
     40 H17        -7.8850   -1.6040   -7.2610 ha        1 29A      0.170000
     41 H18        -7.6990    0.3180   -8.7710 ha        1 29A      0.148000
     42 H20        -4.5480    1.9800   -6.2620 ha        1 29A      0.175000
     43 H25        -6.9080   -1.7470   -3.9930 hc        1 29A      0.082367
     44 H25A       -5.5640   -2.6340   -4.8350 hc        1 29A      0.082367
     45 H25B       -7.2740   -2.8250   -5.4120 hc        1 29A      0.082367
     46 H29        -8.1640    4.2630   -8.6970 hx        1 29A      0.120200
     47 H29A       -8.4250    2.5630   -8.0400 hx        1 29A      0.120200
     48 H30        -9.2740    3.6080  -10.8680 h1        1 29A      0.076200
     49 H30A      -10.3450    3.2000   -9.4340 h1        1 29A      0.076200
     50 H282       -7.0610    1.8810  -10.0830 hn        1 29A      0.466800
@<TRIPOS>BOND
     1    1    2 ar  
     2    1    6 ar  
     3    1    7 1   
     4    2    3 ar  
     5    2   21 1   
     6    3    4 ar  
     7    3   34 1   
     8    4    5 ar  
     9    4   22 1   
    10    5    6 ar  
    11    5   35 1   
    12    6   36 1   
    13    7    8 1   
    14    7   37 1   
    15    7   38 1   
    16    8    9 1   
    17    9   10 2   
    18    9   14 1   
    19   10   11 1   
    20   10   23 1   
    21   11   12 1   
    22   11   24 2   
    23   12   13 1   
    24   12   15 1   
    25   13   14 2   
    26   13   39 1   
    27   15   16 ar  
    28   15   20 ar  
    29   16   17 ar  
    30   16   25 1   
    31   17   18 ar  
    32   17   40 1   
    33   18   19 ar  
    34   18   41 1   
    35   19   20 ar  
    36   19   26 1   
    37   20   42 1   
    38   25   43 1   
    39   25   44 1   
    40   25   45 1   
    41   26   27 2   
    42   26   28 1   
    43   28   29 1   
    44   28   32 1   
    45   28   50 1   
    46   29   30 1   
    47   29   46 1   
    48   29   47 1   
    49   30   31 1   
    50   30   48 1   
    51   30   49 1   
    52   31   33 1   
@<TRIPOS>SUBSTRUCTURE
     1 29A         1 TEMP              0 ****  ****    0 ROOT
