@<TRIPOS>MOLECULE
29B
   28    30     1     0     0
SMALL
bcc


@<TRIPOS>ATOM
      1 C1          0.1200    0.0760   -0.0680 ca        1 29B     -0.165000
      2 C2          1.5030   -0.1800   -0.0440 ca        1 29B      0.124900
      3 C3          2.1710   -0.3390    1.1840 ca        1 29B     -0.165000
      4 C4          1.4540   -0.2430    2.3700 ca        1 29B     -0.098000
      5 C5          0.0730    0.0120    2.3600 ca        1 29B     -0.018000
      6 C6         -0.5810    0.1700    1.1290 ca        1 29B     -0.098000
      7 C7         -0.6540    0.0750    3.6020 cc        1 29B     -0.186300
      8 C8         -1.7780    0.9200    3.9860 cc        1 29B      0.360800
      9 N9         -2.1690    0.6050    5.2620 nd        1 29B     -0.499800
     10 N10        -1.3670   -0.3660    5.6850 na        1 29B     -0.006600
     11 C11        -0.4210   -0.7360    4.7320 cd        1 29B     -0.138300
     12 C12        -2.4160    1.9660    3.2020 ca        1 29B     -0.080500
     13 C13        -1.6530    2.8230    2.3940 ca        1 29B     -0.226800
     14 C14        -2.3140    3.8310    1.6730 ca        1 29B      0.387200
     15 N15        -3.6460    4.0270    1.7100 nb        1 29B     -0.661000
     16 C16        -4.3660    3.1990    2.4910 ca        1 29B      0.387200
     17 C17        -3.8040    2.1600    3.2550 ca        1 29B     -0.226800
     18 F18         2.1930   -0.2740   -1.2060 f         1 29B     -0.139900
     19 HN10       -1.4750   -0.7390    6.6000 hn        1 29B      0.326700
     20 H1         -0.3960    0.1970   -1.0320 ha        1 29B      0.150500
     21 H3          3.2530   -0.5360    1.1940 ha        1 29B      0.150500
     22 H4          1.9770   -0.3650    3.3320 ha        1 29B      0.142500
     23 H6         -1.6630    0.3740    1.1140 ha        1 29B      0.142500
     24 H11         0.3150   -1.5200    4.9050 h4        1 29B      0.182000
     25 H13        -0.5630    2.7050    2.3250 ha        1 29B      0.154500
     26 H14        -1.7440    4.5250    1.0280 h4        1 29B      0.023100
     27 H16        -5.4560    3.3810    2.5070 h4        1 29B      0.023100
     28 H17        -4.4430    1.5220    3.8790 ha        1 29B      0.154500
@<TRIPOS>BOND
     1    1    2 ar  
     2    1    6 ar  
     3    1   20 1   
     4    2    3 ar  
     5    2   18 1   
     6    3    4 ar  
     7    3   21 1   
     8    4    5 ar  
     9    4   22 1   
    10    5    6 ar  
    11    5    7 1   
    12    6   23 1   
    13    7    8 1   
    14    7   11 2   
    15    8    9 2   
    16    8   12 1   
    17    9   10 1   
    18   10   11 1   
    19   10   19 1   
    20   11   24 1   
    21   12   13 ar  
    22   12   17 ar  
    23   13   14 ar  
    24   13   25 1   
    25   14   15 ar  
    26   14   26 1   
    27   15   16 ar  
    28   16   17 ar  
    29   16   27 1   
    30   17   28 1   
@<TRIPOS>SUBSTRUCTURE
     1 29B         1 TEMP              0 ****  ****    0 ROOT
