@<TRIPOS>MOLECULE
29B
   28    30     1     0     0
SMALL
bcc


@<TRIPOS>ATOM
      1 C1          2.4530   -1.0520    0.8880 ca        1 29B     -0.165000
      2 C2          3.5760   -0.5620    0.1970 ca        1 29B      0.124900
      3 C3          3.4750    0.6120   -0.5730 ca        1 29B     -0.165000
      4 C4          2.2600    1.2830   -0.6420 ca        1 29B     -0.098000
      5 C5          1.1320    0.8040    0.0440 ca        1 29B     -0.018000
      6 C6          1.2460   -0.3690    0.8060 ca        1 29B     -0.098000
      7 C7         -0.1080    1.5340   -0.0170 cc        1 29B     -0.186300
      8 C8         -1.4810    1.0450   -0.0450 cc        1 29B      0.360800
      9 N9         -2.3430    2.1110   -0.0680 nd        1 29B     -0.499800
     10 N10        -1.5990    3.2120   -0.0590 na        1 29B     -0.006600
     11 C11        -0.2340    2.9380   -0.0310 cd        1 29B     -0.138300
     12 C12        -1.9360   -0.3370   -0.0740 ca        1 29B     -0.080500
     13 C13        -1.2530   -1.3010   -0.8300 ca        1 29B     -0.226800
     14 C14        -1.7440   -2.6180   -0.8410 ca        1 29B      0.387200
     15 N15        -2.8390   -3.0130   -0.1630 nb        1 29B     -0.661000
     16 C16        -3.4860   -2.0770    0.5570 ca        1 29B      0.387200
     17 C17        -3.0800   -0.7320    0.6340 ca        1 29B     -0.226800
     18 F18         4.7570   -1.2210    0.2710 f         1 29B     -0.139900
     19 HN10       -2.0320    4.1060   -0.0810 hn        1 29B      0.326700
     20 H1          2.5400   -1.9690    1.4880 ha        1 29B      0.150500
     21 H3          4.3570    0.9870   -1.1130 ha        1 29B      0.150500
     22 H4          2.1800    2.2000   -1.2460 ha        1 29B      0.142500
     23 H6          0.3630   -0.7520    1.3430 ha        1 29B      0.142500
     24 H11         0.5240    3.7200   -0.0140 h4        1 29B      0.182000
     25 H13        -0.3520   -1.0330   -1.3990 ha        1 29B      0.154500
     26 H14        -1.2330   -3.4020   -1.4270 h4        1 29B      0.023100
     27 H16        -4.3820   -2.4240    1.1020 h4        1 29B      0.023100
     28 H17        -3.6540   -0.0120    1.2340 ha        1 29B      0.154500
@<TRIPOS>BOND
     1    1    2 ar  
     2    1    6 ar  
     3    1   20 1   
     4    2    3 ar  
     5    2   18 1   
     6    3    4 ar  
     7    3   21 1   
     8    4    5 ar  
     9    4   22 1   
    10    5    6 ar  
    11    5    7 1   
    12    6   23 1   
    13    7    8 1   
    14    7   11 2   
    15    8    9 2   
    16    8   12 1   
    17    9   10 1   
    18   10   11 1   
    19   10   19 1   
    20   11   24 1   
    21   12   13 ar  
    22   12   17 ar  
    23   13   14 ar  
    24   13   25 1   
    25   14   15 ar  
    26   14   26 1   
    27   15   16 ar  
    28   16   17 ar  
    29   16   27 1   
    30   17   28 1   
@<TRIPOS>SUBSTRUCTURE
     1 29B         1 TEMP              0 ****  ****    0 ROOT
