@<TRIPOS>MOLECULE
29B
   28    21     1     0     0
SMALL
bcc


@<TRIPOS>ATOM
      1 C1          0.7340    1.7070   -2.5510 c1        1 29B     -0.067500
      2 C2          2.0660    1.3310   -2.6040 c1        1 29B      0.092100
      3 C3          2.6930    0.8390   -1.4700 c1        1 29B     -0.108500
      4 C4          1.9870    0.7240   -0.2820 c1        1 29B     -0.045500
      5 C5          0.6540    1.1000   -0.2290 c1        1 29B     -0.018000
      6 C6          0.0270    1.5920   -1.3630 c1        1 29B     -0.067500
      7 C7         -0.0240    1.0740    0.9800 cg        1 29B     -0.151200
      8 C8         -0.7940    0.0460    1.4470 ce        1 29B      0.147800
      9 N9         -1.2510    0.3900    2.6690 n1        1 29B     -0.233400
     10 N10        -0.7650    1.6390    2.9690 nf        1 29B     -0.199000
     11 C11        -0.0130    2.0560    1.9290 ch        1 29B     -0.062000
     12 C12        -1.0280   -1.1610    0.7970 cg        1 29B     -0.003200
     13 C13        -0.1520   -2.1980    0.9460 c1        1 29B     -0.067500
     14 C14        -0.4320   -3.4300    0.3750 c1        1 29B     -0.067500
     15 N15        -1.5820   -3.6070   -0.3340 n1        1 29B     -0.460800
     16 C16        -2.4580   -2.5740   -0.4840 c1        1 29B      0.304300
     17 C17        -2.1790   -1.3400    0.0860 c1        1 29B     -0.099500
     18 F18         2.7590    1.4760   -3.7420 f         1 29B     -0.107100
     19 HN10       -0.9240    2.1060    3.7370 DU        1 29B      0.229500
     20 H1          0.2920    2.0540   -3.3490 ha        1 29B      0.096250
     21 H3          3.6320    0.5740   -1.5080 ha        1 29B      0.091500
     22 H4          2.4290    0.3770    0.5170 ha        1 29B      0.078500
     23 H6         -0.9110    1.8570   -1.3260 ha        1 29B      0.096250
     24 H11         0.4590    2.9110    1.8660 DU        1 29B      0.229500
     25 H13         0.6740   -2.0710    1.4550 ha        1 29B      0.096250
     26 H14         0.1940   -4.1710    0.4820 ha        1 29B      0.096250
     27 H16        -3.2810   -2.7020   -0.9920 ha        1 29B      0.102500
     28 H17        -2.8070   -0.6000   -0.0210 ha        1 29B      0.097500
@<TRIPOS>BOND
     1    1    6 3   
     2    1   20 1   
     3    2    3 3   
     4    2   18 1   
     5    3   21 1   
     6    4    5 3   
     7    4   22 1   
     8    6   23 1   
     9    7    8 1   
    10    7   11 3   
    11    8    9 2   
    12    8   12 1   
    13    9   10 2   
    14   10   11 1   
    15   12   17 3   
    16   13   14 3   
    17   13   25 1   
    18   14   26 1   
    19   15   16 3   
    20   16   27 1   
    21   17   28 1   
@<TRIPOS>SUBSTRUCTURE
     1 29B         1 TEMP              0 ****  ****    0 ROOT
