@<TRIPOS>MOLECULE
29B
   28    30     1     0     0
SMALL
bcc


@<TRIPOS>ATOM
      1 C1          0.1140    0.0630   -0.0660 ca        1 29B     -0.165000
      2 C2          1.4990   -0.1850   -0.0460 ca        1 29B      0.124900
      3 C3          2.1720   -0.3320    1.1800 ca        1 29B     -0.165000
      4 C4          1.4590   -0.2320    2.3690 ca        1 29B     -0.098000
      5 C5          0.0770    0.0160    2.3620 ca        1 29B     -0.018000
      6 C6         -0.5830    0.1620    1.1320 ca        1 29B     -0.098000
      7 C7         -0.6460    0.0830    3.6060 cc        1 29B     -0.186300
      8 C8         -1.7730    0.9260    3.9890 cc        1 29B      0.360800
      9 N9         -2.1570    0.6170    5.2690 nd        1 29B     -0.499800
     10 N10        -1.3480   -0.3470    5.6950 na        1 29B     -0.006600
     11 C11        -0.4050   -0.7190    4.7400 cd        1 29B     -0.138300
     12 C12        -2.4170    1.9650    3.2010 ca        1 29B     -0.080500
     13 C13        -1.6620    2.8180    2.3840 ca        1 29B     -0.226800
     14 C14        -2.3290    3.8200    1.6580 ca        1 29B      0.387200
     15 N15        -3.6630    4.0100    1.7010 nb        1 29B     -0.661000
     16 C16        -4.3750    3.1850    2.4910 ca        1 29B      0.387200
     17 C17        -3.8060    2.1540    3.2590 ca        1 29B     -0.226800
     18 F18         2.1850   -0.2830   -1.2100 f         1 29B     -0.139900
     19 HN10       -1.4510   -0.7150    6.6120 hn        1 29B      0.326700
     20 H1         -0.4060    0.1760   -1.0290 ha        1 29B      0.150500
     21 H3          3.2550   -0.5230    1.1870 ha        1 29B      0.150500
     22 H4          1.9860   -0.3440    3.3290 ha        1 29B      0.142500
     23 H6         -1.6660    0.3600    1.1200 ha        1 29B      0.142500
     24 H11         0.3360   -1.4980    4.9160 h4        1 29B      0.182000
     25 H13        -0.5720    2.7040    2.3100 ha        1 29B      0.154500
     26 H14        -1.7660    4.5110    1.0070 h4        1 29B      0.023100
     27 H16        -5.4660    3.3630    2.5110 h4        1 29B      0.023100
     28 H17        -4.4400    1.5170    3.8910 ha        1 29B      0.154500
@<TRIPOS>BOND
     1    1    2 ar  
     2    1    6 ar  
     3    1   20 1   
     4    2    3 ar  
     5    2   18 1   
     6    3    4 ar  
     7    3   21 1   
     8    4    5 ar  
     9    4   22 1   
    10    5    6 ar  
    11    5    7 1   
    12    6   23 1   
    13    7    8 1   
    14    7   11 2   
    15    8    9 2   
    16    8   12 1   
    17    9   10 1   
    18   10   11 1   
    19   10   19 1   
    20   11   24 1   
    21   12   13 ar  
    22   12   17 ar  
    23   13   14 ar  
    24   13   25 1   
    25   14   15 ar  
    26   14   26 1   
    27   15   16 ar  
    28   16   17 ar  
    29   16   27 1   
    30   17   28 1   
@<TRIPOS>SUBSTRUCTURE
     1 29B         1 TEMP              0 ****  ****    0 ROOT
