@<TRIPOS>MOLECULE
29E
   41    43     1     0     0
SMALL
bcc


@<TRIPOS>ATOM
      1 C           0.0210    0.7000    0.4810 c3        1 29E      0.078100
      2 N           1.4740    0.4880    0.2940 n4        1 29E     -0.757000
      3 C1          2.1690    0.1950    1.5860 c3        1 29E      0.094800
      4 C2          3.6640   -0.0260    1.4050 c3        1 29E     -0.116400
      5 C3          4.3290   -0.1090    2.7900 c3        1 29E      0.246400
      6 C14         5.7780   -0.3740    2.6480 cc        1 29E     -0.218400
      7 S           6.9530    0.7490    2.2320 ss        1 29E      0.107200
      8 C17         8.1920   -0.3540    2.2890 cc        1 29E     -0.158100
      9 C16         7.7500   -1.6140    2.6400 cd        1 29E     -0.155000
     10 C15         6.3410   -1.6270    2.8530 cd        1 29E     -0.133000
     11 O           4.0570    1.1640    3.4000 os        1 29E     -0.358900
     12 C4          3.9290    1.1560    4.7860 ca        1 29E      0.097100
     13 C13         3.1020    2.1990    5.3130 ca        1 29E     -0.047000
     14 C12         2.4570    3.1600    4.4900 ca        1 29E     -0.129000
     15 C11         1.6790    4.1450    5.0460 ca        1 29E     -0.122000
     16 C10         1.5090    4.2130    6.4500 ca        1 29E     -0.118000
     17 C9          2.1270    3.3000    7.2680 ca        1 29E     -0.108000
     18 C8          2.9440    2.2710    6.7210 ca        1 29E     -0.019000
     19 C7          3.6030    1.3260    7.5540 ca        1 29E     -0.122000
     20 C6          4.3990    0.3490    7.0100 ca        1 29E     -0.102000
     21 C5          4.5720    0.2560    5.6090 ca        1 29E     -0.174000
     22 H1         -0.1460    1.5610    1.1840 hx        1 29E      0.111033
     23 H2         -0.4420   -0.2270    0.9150 hx        1 29E      0.111033
     24 H3         -0.4520    0.9280   -0.5120 hx        1 29E      0.111033
     25 H4          1.6280   -0.2930   -0.3540 hn        1 29E      0.452800
     26 H6          1.6880   -0.7190    2.0380 hx        1 29E      0.119200
     27 H7          2.0020    1.0740    2.2820 hx        1 29E      0.119200
     28 H8          4.1290    0.8220    0.8360 hc        1 29E      0.080200
     29 H9          3.8700   -0.9820    0.8580 hc        1 29E      0.080200
     30 H10         3.8470   -0.9330    3.3920 h1        1 29E      0.071700
     31 H11         9.2300   -0.0890    2.0820 h4        1 29E      0.188000
     32 H12         8.3830   -2.4980    2.7480 ha        1 29E      0.170000
     33 H13         5.7900   -2.5230    3.1470 ha        1 29E      0.154000
     34 H14         2.6190    3.1110    3.4030 ha        1 29E      0.118000
     35 H15         1.1880    4.8990    4.4130 ha        1 29E      0.135000
     36 H16         0.8820    5.0130    6.8750 ha        1 29E      0.146000
     37 H17         2.0090    3.3510    8.3620 ha        1 29E      0.147000
     38 H18         3.4670    1.4000    8.6450 ha        1 29E      0.148000
     39 H19         4.9210   -0.3750    7.6540 ha        1 29E      0.148000
     40 H20         5.2290   -0.5240    5.1970 ha        1 29E      0.151000
     41 HN3         1.8930    1.3290   -0.1230 hn        1 29E      0.452800
@<TRIPOS>BOND
     1    1    2 1   
     2    1   22 1   
     3    1   23 1   
     4    1   24 1   
     5    2    3 1   
     6    2   25 1   
     7    2   41 1   
     8    3    4 1   
     9    3   26 1   
    10    3   27 1   
    11    4    5 1   
    12    4   28 1   
    13    4   29 1   
    14    5    6 1   
    15    5   11 1   
    16    5   30 1   
    17    6    7 1   
    18    6   10 2   
    19    7    8 1   
    20    8    9 2   
    21    8   31 1   
    22    9   10 1   
    23    9   32 1   
    24   10   33 1   
    25   11   12 1   
    26   12   13 ar  
    27   12   21 ar  
    28   13   14 ar  
    29   13   18 ar  
    30   14   15 ar  
    31   14   34 1   
    32   15   16 ar  
    33   15   35 1   
    34   16   17 ar  
    35   16   36 1   
    36   17   18 ar  
    37   17   37 1   
    38   18   19 ar  
    39   19   20 ar  
    40   19   38 1   
    41   20   21 ar  
    42   20   39 1   
    43   21   40 1   
@<TRIPOS>SUBSTRUCTURE
     1 29E         1 TEMP              0 ****  ****    0 ROOT
