@<TRIPOS>MOLECULE
29E
   40    42     1     0     0
SMALL
bcc


@<TRIPOS>ATOM
      1 C           2.0410    5.0040   -0.2060 c3        1 29E      0.152100
      2 N           2.6030    3.7280    0.1480 n3        1 29E     -0.825200
      3 C1          1.8290    2.6020   -0.3390 c3        1 29E      0.158800
      4 C2          2.3400    1.2610    0.1800 c3        1 29E     -0.082400
      5 C3          1.4980    0.1170   -0.3920 c3        1 29E      0.222400
      6 C14         2.1420   -1.1980   -0.1430 cc        1 29E     -0.166400
      7 S           2.3090   -1.9340    1.3570 ss        1 29E      0.083200
      8 C17         3.1280   -3.2480    0.7520 cc        1 29E     -0.180100
      9 C16         3.2960   -3.1660   -0.6150 cd        1 29E     -0.158000
     10 C15         2.7190   -1.9710   -1.1380 cd        1 29E     -0.151000
     11 O           0.2230    0.2200    0.2730 os        1 29E     -0.336900
     12 C4         -0.8730   -0.2900   -0.3990 ca        1 29E      0.139100
     13 C13        -2.1360    0.2010    0.0730 ca        1 29E     -0.053000
     14 C12        -2.2370    1.1560    1.1190 ca        1 29E     -0.096000
     15 C11        -3.4670    1.5960    1.5430 ca        1 29E     -0.142000
     16 C10        -4.6480    1.1020    0.9410 ca        1 29E     -0.118000
     17 C9         -4.5760    0.1790   -0.0740 ca        1 29E     -0.128000
     18 C8         -3.3170   -0.2950   -0.5340 ca        1 29E     -0.014000
     19 C7         -3.2220   -1.2480   -1.5860 ca        1 29E     -0.151000
     20 C6         -1.9960   -1.6940   -2.0110 ca        1 29E     -0.094000
     21 C5         -0.8040   -1.2200   -1.4170 ca        1 29E     -0.208000
     22 H1          2.0100    5.0950   -1.3230 h1        1 29E      0.030033
     23 H2          0.9980    5.1670    0.1850 h1        1 29E      0.030033
     24 H3          2.7040    5.8120    0.2030 h1        1 29E      0.030033
     25 H4          2.7310    3.6600    1.1400 hn        1 29E      0.356800
     26 H6          0.7330    2.6870   -0.0700 h1        1 29E      0.036700
     27 H7          1.8970    2.6120   -1.4640 h1        1 29E      0.036700
     28 H8          3.4050    1.1020   -0.1280 hc        1 29E      0.064200
     29 H9          2.2900    1.2310    1.3000 hc        1 29E      0.064200
     30 H10         1.3550    0.2650   -1.5010 h1        1 29E      0.066700
     31 H11         3.4760   -4.0670    1.3800 h4        1 29E      0.172000
     32 H12         3.8010   -3.9080   -1.2350 ha        1 29E      0.154000
     33 H13         2.7400   -1.7100   -2.1990 ha        1 29E      0.152000
     34 H14        -1.3080    1.5300    1.5770 ha        1 29E      0.145000
     35 H15        -3.5490    2.3360    2.3530 ha        1 29E      0.132000
     36 H16        -5.6230    1.4680    1.2960 ha        1 29E      0.131000
     37 H17        -5.4890   -0.2100   -0.5490 ha        1 29E      0.133000
     38 H18        -4.1490   -1.6170   -2.0470 ha        1 29E      0.133000
     39 H19        -1.9190   -2.4350   -2.8220 ha        1 29E      0.132000
     40 H20         0.1620   -1.6130   -1.7640 ha        1 29E      0.147000
@<TRIPOS>BOND
     1    1    2 1   
     2    1   22 1   
     3    1   23 1   
     4    1   24 1   
     5    2    3 1   
     6    2   25 1   
     7    3    4 1   
     8    3   26 1   
     9    3   27 1   
    10    4    5 1   
    11    4   28 1   
    12    4   29 1   
    13    5    6 1   
    14    5   11 1   
    15    5   30 1   
    16    6    7 1   
    17    6   10 2   
    18    7    8 1   
    19    8    9 2   
    20    8   31 1   
    21    9   10 1   
    22    9   32 1   
    23   10   33 1   
    24   11   12 1   
    25   12   13 ar  
    26   12   21 ar  
    27   13   14 ar  
    28   13   18 ar  
    29   14   15 ar  
    30   14   34 1   
    31   15   16 ar  
    32   15   35 1   
    33   16   17 ar  
    34   16   36 1   
    35   17   18 ar  
    36   17   37 1   
    37   18   19 ar  
    38   19   20 ar  
    39   19   38 1   
    40   20   21 ar  
    41   20   39 1   
    42   21   40 1   
@<TRIPOS>SUBSTRUCTURE
     1 29E         1 TEMP              0 ****  ****    0 ROOT
