@<TRIPOS>MOLECULE
29E
   41    43     1     0     0
SMALL
bcc


@<TRIPOS>ATOM
      1 C           0.0300    0.7330    0.4680 c3        1 29E      0.078100
      2 N           1.4830    0.5160    0.2840 ny        1 29E     -0.757000
      3 C1          2.1720    0.2130    1.5770 c3        1 29E      0.094800
      4 C2          3.6670   -0.0140    1.4000 c3        1 29E     -0.116400
      5 C3          4.3270   -0.1080    2.7870 c3        1 29E      0.246400
      6 C14         5.7750   -0.3780    2.6480 cc        1 29E     -0.218400
      7 S           6.9560    0.7420    2.2430 ss        1 29E      0.107200
      8 C17         8.1910   -0.3650    2.2980 cc        1 29E     -0.158100
      9 C16         7.7420   -1.6260    2.6390 cd        1 29E     -0.155000
     10 C15         6.3320   -1.6350    2.8470 cd        1 29E     -0.133000
     11 O           4.0580    1.1620    3.4040 os        1 29E     -0.358900
     12 C4          3.9250    1.1470    4.7890 ca        1 29E      0.097100
     13 C13         3.1020    2.1900    5.3200 ca        1 29E     -0.047000
     14 C12         2.4640    3.1590    4.5010 ca        1 29E     -0.129000
     15 C11         1.6880    4.1450    5.0610 ca        1 29E     -0.122000
     16 C10         1.5150    4.2050    6.4640 ca        1 29E     -0.118000
     17 C9          2.1270    3.2840    7.2790 ca        1 29E     -0.108000
     18 C8          2.9400    2.2550    6.7280 ca        1 29E     -0.019000
     19 C7          3.5920    1.3020    7.5580 ca        1 29E     -0.122000
     20 C6          4.3850    0.3240    7.0100 ca        1 29E     -0.102000
     21 C5          4.5620    0.2390    5.6090 ca        1 29E     -0.174000
     22 H1         -0.4380   -0.1960    0.8940 hx        1 29E      0.111033
     23 H2         -0.4380    0.9680   -0.5260 hx        1 29E      0.111033
     24 H3         -0.1350    1.5900    1.1750 hx        1 29E      0.111033
     25 H4          1.9070    1.3570   -0.1260 hn        1 29E      0.452800
     26 H6          2.0060    1.0880    2.2770 hx        1 29E      0.119200
     27 H7          1.6860   -0.7020    2.0220 hx        1 29E      0.119200
     28 H8          3.8720   -0.9670    0.8470 hc        1 29E      0.080200
     29 H9          4.1370    0.8360    0.8380 hc        1 29E      0.080200
     30 H10         3.8390   -0.9340    3.3810 h1        1 29E      0.071700
     31 H11         9.2310   -0.1040    2.0960 h4        1 29E      0.188000
     32 H12         8.3710   -2.5130    2.7450 ha        1 29E      0.170000
     33 H13         5.7760   -2.5300    3.1350 ha        1 29E      0.154000
     34 H14         2.6290    3.1160    3.4140 ha        1 29E      0.118000
     35 H15         1.2030    4.9050    4.4310 ha        1 29E      0.135000
     36 H16         0.8910    5.0050    6.8920 ha        1 29E      0.146000
     37 H17         2.0050    3.3290    8.3730 ha        1 29E      0.147000
     38 H18         3.4540    1.3700    8.6480 ha        1 29E      0.148000
     39 H19         4.9010   -0.4070    7.6510 ha        1 29E      0.148000
     40 H20         5.2170   -0.5420    5.1930 ha        1 29E      0.151000
     41 HN3         1.6360   -0.2620   -0.3680 hn        1 29E      0.452800
@<TRIPOS>BOND
     1    1    2 1   
     2    1   22 1   
     3    1   23 1   
     4    1   24 1   
     5    2    3 1   
     6    2   25 1   
     7    2   41 1   
     8    3    4 1   
     9    3   26 1   
    10    3   27 1   
    11    4    5 1   
    12    4   28 1   
    13    4   29 1   
    14    5    6 1   
    15    5   11 1   
    16    5   30 1   
    17    6    7 1   
    18    6   10 2   
    19    7    8 1   
    20    8    9 2   
    21    8   31 1   
    22    9   10 1   
    23    9   32 1   
    24   10   33 1   
    25   11   12 1   
    26   12   13 ar  
    27   12   21 ar  
    28   13   14 ar  
    29   13   18 ar  
    30   14   15 ar  
    31   14   34 1   
    32   15   16 ar  
    33   15   35 1   
    34   16   17 ar  
    35   16   36 1   
    36   17   18 ar  
    37   17   37 1   
    38   18   19 ar  
    39   19   20 ar  
    40   19   38 1   
    41   20   21 ar  
    42   20   39 1   
    43   21   40 1   
@<TRIPOS>SUBSTRUCTURE
     1 29E         1 TEMP              0 ****  ****    0 ROOT
