@<TRIPOS>MOLECULE
29E
   41    43     1     0     0
SMALL
bcc


@<TRIPOS>ATOM
      1 C           0.0240    0.7200    0.4780 c3        1 29E      0.078100
      2 N           1.4770    0.5060    0.2910 n4        1 29E     -0.757000
      3 C1          2.1700    0.2060    1.5830 c3        1 29E      0.094800
      4 C2          3.6650   -0.0180    1.4010 c3        1 29E     -0.116400
      5 C3          4.3290   -0.1080    2.7870 c3        1 29E      0.246400
      6 C14         5.7770   -0.3750    2.6450 cc        1 29E     -0.218400
      7 S           6.9550    0.7480    2.2350 ss        1 29E      0.107200
      8 C17         8.1920   -0.3570    2.2890 cc        1 29E     -0.158100
      9 C16         7.7470   -1.6190    2.6340 cd        1 29E     -0.155000
     10 C15         6.3380   -1.6300    2.8460 cd        1 29E     -0.133000
     11 O           4.0590    1.1640    3.4020 os        1 29E     -0.358900
     12 C4          3.9280    1.1510    4.7880 ca        1 29E      0.097100
     13 C13         3.1020    2.1930    5.3180 ca        1 29E     -0.047000
     14 C12         2.4600    3.1570    4.4970 ca        1 29E     -0.129000
     15 C11         1.6820    4.1410    5.0570 ca        1 29E     -0.122000
     16 C10         1.5100    4.2040    6.4600 ca        1 29E     -0.118000
     17 C9          2.1260    3.2870    7.2760 ca        1 29E     -0.108000
     18 C8          2.9420    2.2600    6.7260 ca        1 29E     -0.019000
     19 C7          3.5990    1.3100    7.5560 ca        1 29E     -0.122000
     20 C6          4.3940    0.3340    7.0090 ca        1 29E     -0.102000
     21 C5          4.5690    0.2470    5.6080 ca        1 29E     -0.174000
     22 H1         -0.4470    0.9520   -0.5160 hx        1 29E      0.111033
     23 H2         -0.4410   -0.2090    0.9070 hx        1 29E      0.111033
     24 H3         -0.1410    1.5780    1.1840 hx        1 29E      0.111033
     25 H4          1.8980    1.3470   -0.1220 hn        1 29E      0.452800
     26 H6          2.0040    1.0820    2.2810 hx        1 29E      0.119200
     27 H7          1.6870   -0.7090    2.0300 hx        1 29E      0.119200
     28 H8          3.8700   -0.9720    0.8510 hc        1 29E      0.080200
     29 H9          4.1320    0.8320    0.8370 hc        1 29E      0.080200
     30 H10         3.8440   -0.9330    3.3850 h1        1 29E      0.071700
     31 H11         9.2310   -0.0950    2.0830 h4        1 29E      0.188000
     32 H12         8.3780   -2.5040    2.7400 ha        1 29E      0.170000
     33 H13         5.7840   -2.5260    3.1370 ha        1 29E      0.154000
     34 H14         2.6230    3.1130    3.4110 ha        1 29E      0.118000
     35 H15         1.1930    4.8990    4.4260 ha        1 29E      0.135000
     36 H16         0.8840    5.0030    6.8870 ha        1 29E      0.146000
     37 H17         2.0060    3.3330    8.3700 ha        1 29E      0.147000
     38 H18         3.4620    1.3800    8.6460 ha        1 29E      0.148000
     39 H19         4.9150   -0.3930    7.6510 ha        1 29E      0.148000
     40 H20         5.2260   -0.5330    5.1930 ha        1 29E      0.151000
     41 HN3         1.6300   -0.2740   -0.3600 hn        1 29E      0.452800
@<TRIPOS>BOND
     1    1    2 1   
     2    1   22 1   
     3    1   23 1   
     4    1   24 1   
     5    2    3 1   
     6    2   25 1   
     7    2   41 1   
     8    3    4 1   
     9    3   26 1   
    10    3   27 1   
    11    4    5 1   
    12    4   28 1   
    13    4   29 1   
    14    5    6 1   
    15    5   11 1   
    16    5   30 1   
    17    6    7 1   
    18    6   10 2   
    19    7    8 1   
    20    8    9 2   
    21    8   31 1   
    22    9   10 1   
    23    9   32 1   
    24   10   33 1   
    25   11   12 1   
    26   12   13 ar  
    27   12   21 ar  
    28   13   14 ar  
    29   13   18 ar  
    30   14   15 ar  
    31   14   34 1   
    32   15   16 ar  
    33   15   35 1   
    34   16   17 ar  
    35   16   36 1   
    36   17   18 ar  
    37   17   37 1   
    38   18   19 ar  
    39   19   20 ar  
    40   19   38 1   
    41   20   21 ar  
    42   20   39 1   
    43   21   40 1   
@<TRIPOS>SUBSTRUCTURE
     1 29E         1 TEMP              0 ****  ****    0 ROOT
