@<TRIPOS>MOLECULE
29E
   40    34     1     0     0
SMALL
bcc


@<TRIPOS>ATOM
      1 C          -2.4020   -2.8530   -4.0610 c3        1 29E     -0.123000
      2 N          -1.7510   -1.6520   -3.8870 n3        1 29E     -0.303000
      3 C1         -1.6940   -1.3330   -2.4530 c3        1 29E     -0.074000
      4 C2         -0.5180   -0.2470   -2.1690 c3        1 29E     -0.163000
      5 C3          0.0310   -0.4730   -0.7700 c3        1 29E      0.105000
      6 C14         1.4790   -0.8500   -0.8560 c2        1 29E     -0.428000
      7 S           2.6580    0.1180   -0.9910 ss        1 29E      0.632000
      8 C17         3.9690   -0.7540   -1.1780 c1        1 29E     -0.452000
      9 C16         3.5870   -2.1230   -1.1540 c1        1 29E     -0.159000
     10 C15         2.0020   -2.2030   -0.9500 c1        1 29E     -0.154000
     11 O          -0.1100    0.7150    0.0030 os        1 29E     -0.218000
     12 C4         -0.1920    0.4860    1.3900 c1        1 29E      0.096000
     13 C13        -0.1260    1.7420    2.0060 c1        1 29E     -0.053000
     14 C12        -0.0270    2.9330    1.2160 c2        1 29E     -0.094000
     15 C11         0.0280    4.2060    1.8530 c1        1 29E     -0.142000
     16 C10        -0.0160    4.2940    3.2250 c1        1 29E     -0.123000
     17 C9         -0.1140    3.1210    4.0140 c1        1 29E     -0.123000
     18 C8         -0.1690    1.8380    3.3890 c1        1 29E     -0.014000
     19 C7         -0.2750    0.6960    4.1510 c1        1 29E     -0.123000
     20 C6         -0.3390   -0.5460    3.5330 c1        1 29E     -0.123000
     21 C5         -0.2970   -0.6360    2.1430 c1        1 29E     -0.210000
     22 H1         -3.2850   -2.8470   -3.5160 h1        1 29E      0.069333
     23 H2         -2.5880   -2.9720   -4.9360 h1        1 29E      0.069333
     24 H3         -1.8740   -3.5260   -3.7740 h1        1 29E      0.069333
     25 H4         -2.1910   -1.0240   -4.3060 hn        1 29E      0.153000
     26 H6         -1.5200   -2.1100   -1.9700 h1        1 29E      0.072500
     27 H7         -2.5280   -0.9690   -2.1760 h1        1 29E      0.072500
     28 H8          0.1540   -0.3520   -2.7850 hc        1 29E      0.103000
     29 H9         -0.9050    0.7120   -2.2390 hc        1 29E      0.103000
     30 H10        -0.4240   -1.1340   -0.3800 h1        1 29E      0.103000
     31 H11         4.9100   -0.4020   -1.2940 DU        1 29E      0.158333
     32 H12         4.1560   -2.8460   -1.2400 DU        1 29E      0.158333
     33 H13         1.4620   -3.0470   -0.9000 DU        1 29E      0.158333
     34 H14         0.0020    2.8760    0.2700 ha        1 29E      0.146000
     35 H15         0.0960    5.0390    1.3030 ha        1 29E      0.132000
     36 H16         0.0180    5.1310    3.6390 ha        1 29E      0.132250
     37 H17        -0.1430    3.1900    4.9670 ha        1 29E      0.132250
     38 H18        -0.3010    0.7610    5.1570 ha        1 29E      0.132250
     39 H19        -0.4130   -1.3490    4.0640 ha        1 29E      0.132250
     40 H20        -0.3500   -1.6130    1.6590 ha        1 29E      0.146000
@<TRIPOS>BOND
     1    1    2 1   
     2    1   22 1   
     3    1   23 1   
     4    1   24 1   
     5    2    3 1   
     6    2   25 1   
     7    3    4 1   
     8    3   26 1   
     9    3   27 1   
    10    4    5 1   
    11    4   28 1   
    12    4   29 1   
    13    5    6 1   
    14    5   11 1   
    15    5   30 1   
    16    6    7 1   
    17    6   10 1   
    18    7    8 1   
    19    8    9 1   
    20    9   10 1   
    21   11   12 1   
    22   12   21 1   
    23   13   14 1   
    24   13   18 1   
    25   14   15 1   
    26   14   34 1   
    27   15   35 1   
    28   16   17 1   
    29   16   36 1   
    30   17   37 1   
    31   19   20 1   
    32   19   38 1   
    33   20   39 1   
    34   21   40 1   
@<TRIPOS>SUBSTRUCTURE
     1 29E         1 TEMP              0 ****  ****    0 ROOT
