@<TRIPOS>MOLECULE
29F
   39    41     1     0     0
SMALL
bcc


@<TRIPOS>ATOM
      1 C           0.1260   -0.3600   -0.4120 c3        1 29F     -0.087100
      2 N           3.5910    4.6480   -4.0800 ns        1 29F     -0.493400
      3 O           4.2520    5.6100   -6.0410 o         1 29F     -0.625500
      4 C1          1.5660   -0.0620    0.0010 c3        1 29F     -0.013700
      5 N1          3.4000    5.8940   -2.0260 nc        1 29F     -0.616100
      6 C2          1.6190    0.1760    1.5080 c3        1 29F     -0.087100
      7 C3          2.4160   -1.2850   -0.3180 c3        1 29F     -0.087100
      8 C4          2.0430    1.1740   -0.7150 ca        1 29F     -0.040300
      9 C5          1.3590    2.3840   -0.5240 ca        1 29F     -0.135000
     10 C6          1.7660    3.5500   -1.1670 ca        1 29F     -0.093000
     11 C7          2.8720    3.5220   -2.0230 ca        1 29F     -0.155900
     12 C8          3.5670    2.3250   -2.2170 ca        1 29F     -0.093000
     13 C9          3.1540    1.1630   -1.5680 ca        1 29F     -0.135000
     14 C10         3.3070    4.7670   -2.7130 cd        1 29F      0.547500
     15 C11         4.0100    5.7600   -4.8300 c         1 29F      0.708100
     16 C12         4.1240    7.0300   -4.0900 ca        1 29F     -0.190600
     17 C13         4.5350    8.1960   -4.7490 ca        1 29F     -0.059000
     18 C14         4.6390    9.3850   -4.0430 ca        1 29F     -0.154000
     19 C15         4.3330    9.4180   -2.6750 ca        1 29F     -0.095000
     20 C16         3.9250    8.2760   -2.0050 ca        1 29F     -0.123000
     21 C17         3.8110    7.0480   -2.7040 ca        1 29F      0.182400
     22 H          -0.2360   -1.2760    0.1140 hc        1 29F      0.038922
     23 HA         -0.5450    0.4900   -0.1450 hc        1 29F      0.038922
     24 HB          0.0670   -0.5320   -1.5130 hc        1 29F      0.038922
     25 HN          3.4850    3.7680   -4.5330 hn        1 29F      0.339500
     26 H2          2.6640    0.4050    1.8270 hc        1 29F      0.038922
     27 H2A         1.2710   -0.7370    2.0490 hc        1 29F      0.038922
     28 H2B         0.9620    1.0310    1.7960 hc        1 29F      0.038922
     29 H3          3.4750   -1.1220   -0.0040 hc        1 29F      0.038922
     30 H3A         2.3880   -1.5100   -1.4110 hc        1 29F      0.038922
     31 H3B         2.0190   -2.1720    0.2330 hc        1 29F      0.038922
     32 H5          0.4860    2.4190    0.1470 ha        1 29F      0.140500
     33 H6          1.2220    4.4920   -0.9960 ha        1 29F      0.145000
     34 H8          4.4550    2.2910   -2.8680 ha        1 29F      0.145000
     35 H9          3.7240    0.2370   -1.7380 ha        1 29F      0.140500
     36 H13         4.7700    8.1460   -5.8240 ha        1 29F      0.158000
     37 H14         4.9610   10.3050   -4.5540 ha        1 29F      0.139000
     38 H15         4.4200   10.3680   -2.1250 ha        1 29F      0.137000
     39 H16         3.6900    8.3140   -0.9310 ha        1 29F      0.153000
@<TRIPOS>BOND
     1    1    4 1   
     2    1   22 1   
     3    1   23 1   
     4    1   24 1   
     5    2   14 1   
     6    2   15 1   
     7    2   25 1   
     8    3   15 2   
     9    4    6 1   
    10    4    7 1   
    11    4    8 1   
    12    5   14 2   
    13    5   21 1   
    14    6   26 1   
    15    6   27 1   
    16    6   28 1   
    17    7   29 1   
    18    7   30 1   
    19    7   31 1   
    20    8    9 ar  
    21    8   13 ar  
    22    9   10 ar  
    23    9   32 1   
    24   10   11 ar  
    25   10   33 1   
    26   11   12 ar  
    27   11   14 1   
    28   12   13 ar  
    29   12   34 1   
    30   13   35 1   
    31   15   16 1   
    32   16   17 ar  
    33   16   21 ar  
    34   17   18 ar  
    35   17   36 1   
    36   18   19 ar  
    37   18   37 1   
    38   19   20 ar  
    39   19   38 1   
    40   20   21 ar  
    41   20   39 1   
@<TRIPOS>SUBSTRUCTURE
     1 29F         1 TEMP              0 ****  ****    0 ROOT
