@<TRIPOS>MOLECULE
29F
   39    41     1     0     0
SMALL
bcc


@<TRIPOS>ATOM
      1 C           0.1270   -0.3550   -0.3950 c3        1 29F     -0.087100
      2 N           3.5710    4.6530   -4.0850 n         1 29F     -0.493400
      3 O           4.2160    5.6190   -6.0490 o         1 29F     -0.625500
      4 C1          1.5720   -0.0630    0.0020 c3        1 29F     -0.013700
      5 N1          3.4050    5.8930   -2.0250 nc        1 29F     -0.616100
      6 C2          1.6440    0.1690    1.5100 c3        1 29F     -0.087100
      7 C3          2.4140   -1.2890   -0.3310 c3        1 29F     -0.087100
      8 C4          2.0470    1.1730   -0.7150 ca        1 29F     -0.040300
      9 C5          1.3690    2.3850   -0.5120 ca        1 29F     -0.135000
     10 C6          1.7730    3.5510   -1.1550 ca        1 29F     -0.093000
     11 C7          2.8690    3.5220   -2.0240 ca        1 29F     -0.155900
     12 C8          3.5580    2.3240   -2.2300 ca        1 29F     -0.093000
     13 C9          3.1480    1.1610   -1.5800 ca        1 29F     -0.135000
     14 C10         3.3020    4.7680   -2.7140 cd        1 29F      0.547500
     15 C11         3.9860    5.7660   -4.8350 c         1 29F      0.708100
     16 C12         4.1120    7.0330   -4.0930 ca        1 29F     -0.190600
     17 C13         4.5190    8.2000   -4.7520 ca        1 29F     -0.059000
     18 C14         4.6330    9.3870   -4.0430 ca        1 29F     -0.154000
     19 C15         4.3420    9.4160   -2.6730 ca        1 29F     -0.095000
     20 C16         3.9370    8.2730   -2.0020 ca        1 29F     -0.123000
     21 C17         3.8120    7.0480   -2.7040 ca        1 29F      0.182400
     22 H          -0.2320   -1.2720    0.1300 hc        1 29F      0.038922
     23 HA         -0.5380    0.4970   -0.1170 hc        1 29F      0.038922
     24 HB          0.0550   -0.5220   -1.4960 hc        1 29F      0.038922
     25 HN          3.4580    3.7740   -4.5390 hn        1 29F      0.339500
     26 H2          0.9940    1.0260    1.8080 hc        1 29F      0.038922
     27 H2A         2.6930    0.3920    1.8170 hc        1 29F      0.038922
     28 H2B         1.2980   -0.7440    2.0500 hc        1 29F      0.038922
     29 H3          3.4770   -1.1310   -0.0290 hc        1 29F      0.038922
     30 H3A         2.3730   -1.5100   -1.4250 hc        1 29F      0.038922
     31 H3B         2.0200   -2.1760    0.2210 hc        1 29F      0.038922
     32 H5          0.5040    2.4210    0.1680 ha        1 29F      0.140500
     33 H6          1.2340    4.4940   -0.9750 ha        1 29F      0.145000
     34 H8          4.4390    2.2890   -2.8900 ha        1 29F      0.145000
     35 H9          3.7130    0.2330   -1.7600 ha        1 29F      0.140500
     36 H13         4.7430    8.1530   -5.8300 ha        1 29F      0.158000
     37 H14         4.9530   10.3070   -4.5540 ha        1 29F      0.139000
     38 H15         4.4370   10.3640   -2.1210 ha        1 29F      0.137000
     39 H16         3.7120    8.3090   -0.9250 ha        1 29F      0.153000
@<TRIPOS>BOND
     1    1    4 1   
     2    1   22 1   
     3    1   23 1   
     4    1   24 1   
     5    2   14 1   
     6    2   15 1   
     7    2   25 1   
     8    3   15 2   
     9    4    6 1   
    10    4    7 1   
    11    4    8 1   
    12    5   14 2   
    13    5   21 1   
    14    6   26 1   
    15    6   27 1   
    16    6   28 1   
    17    7   29 1   
    18    7   30 1   
    19    7   31 1   
    20    8    9 ar  
    21    8   13 ar  
    22    9   10 ar  
    23    9   32 1   
    24   10   11 ar  
    25   10   33 1   
    26   11   12 ar  
    27   11   14 1   
    28   12   13 ar  
    29   12   34 1   
    30   13   35 1   
    31   15   16 1   
    32   16   17 ar  
    33   16   21 ar  
    34   17   18 ar  
    35   17   36 1   
    36   18   19 ar  
    37   18   37 1   
    38   19   20 ar  
    39   19   38 1   
    40   20   21 ar  
    41   20   39 1   
@<TRIPOS>SUBSTRUCTURE
     1 29F         1 TEMP              0 ****  ****    0 ROOT
