@<TRIPOS>MOLECULE
29F
   39    36     1     0     0
SMALL
bcc


@<TRIPOS>ATOM
      1 C          -3.0870   -3.3770    1.8350 c3        1 29F     -0.205000
      2 N          -0.4460    2.0140   -1.9370 n         1 29F     -0.333000
      3 O          -0.7360    3.7480   -3.3760 o         1 29F     -0.350000
      4 C1         -1.5620   -3.3890    1.8410 c3        1 29F     -0.021000
      5 N1          1.6730    1.9520   -0.6260 n1        1 29F     -0.189000
      6 C2         -1.0560   -3.3960    3.2920 c3        1 29F     -0.205000
      7 C3         -1.0670   -4.6220    1.1330 c3        1 29F     -0.205000
      8 C4         -1.0370   -2.1360    1.1190 c2        1 29F     -0.033000
      9 C5         -1.3470   -0.8730    1.6060 c2        1 29F     -0.134000
     10 C6         -0.8880    0.2610    0.9430 c1        1 29F     -0.109000
     11 C7         -0.1170    0.1290   -0.2090 c1        1 29F     -0.072000
     12 C8          0.1940   -1.1350   -0.6950 c1        1 29F     -0.077000
     13 C9         -0.2660   -2.2680   -0.0310 c1        1 29F     -0.136000
     14 C10         0.3840    1.3870   -0.9520 c2        1 29F      0.169000
     15 C11        -0.0070    3.1820   -2.5870 c2        1 29F      0.345000
     16 C12         1.3400    3.7710   -2.2470 c2        1 29F     -0.170000
     17 C13         1.7980    4.9190   -2.9210 c2        1 29F     -0.059000
     18 C14         3.0510    5.4410   -2.6300 c1        1 29F     -0.154000
     19 C15         3.8550    4.8300   -1.6720 c1        1 29F     -0.109000
     20 C16         3.4040    3.6960   -1.0070 c1        1 29F     -0.109000
     21 C17         2.1340    3.1660   -1.3010 c1        1 29F      0.043000
     22 H          -3.4230   -4.2900    1.9820 hc        1 29F      0.078444
     23 HA         -3.4120   -2.7900    2.5480 hc        1 29F      0.078444
     24 HB         -3.4080   -3.0460    0.9660 hc        1 29F      0.078444
     25 HN         -1.2570    1.6580   -2.1410 hn        1 29F      0.253000
     26 H2         -1.5540   -2.7350    3.8160 hc        1 29F      0.078444
     27 H2A        -1.1890   -4.2890    3.6800 hc        1 29F      0.078444
     28 H2B        -0.0980   -3.1720    3.3060 hc        1 29F      0.078444
     29 H3         -0.0950   -4.5750    1.0360 hc        1 29F      0.078444
     30 H3A        -1.3050   -5.4160    1.6540 hc        1 29F      0.078444
     31 H3B        -1.4820   -4.6780    0.2450 hc        1 29F      0.078444
     32 H5         -1.8880   -0.7800    2.4130 ha        1 29F      0.139000
     33 H6         -1.1060    1.1480    1.2850 ha        1 29F      0.138000
     34 H8          0.7350   -1.2270   -1.5030 ha        1 29F      0.152000
     35 H9         -0.0470   -3.1580   -0.3740 ha        1 29F      0.142000
     36 H13         1.2330    5.3500   -3.5950 ha        1 29F      0.158000
     37 H14         3.3690    6.2380   -3.0970 ha        1 29F      0.139000
     38 H15         4.7380    5.1980   -1.4670 ha        1 29F      0.145000
     39 H16         3.9690    3.2660   -0.3330 ha        1 29F      0.145000
@<TRIPOS>BOND
     1    1    4 1   
     2    1   22 1   
     3    1   23 1   
     4    1   24 1   
     5    2   14 1   
     6    2   15 1   
     7    2   25 1   
     8    3   15 1   
     9    4    6 1   
    10    4    7 1   
    11    4    8 1   
    12    5   14 1   
    13    6   26 1   
    14    6   27 1   
    15    6   28 1   
    16    7   29 1   
    17    7   30 1   
    18    7   31 1   
    19    8    9 1   
    20    8   13 1   
    21    9   10 1   
    22    9   32 1   
    23   10   33 1   
    24   11   12 1   
    25   11   14 1   
    26   12   34 1   
    27   13   35 1   
    28   15   16 1   
    29   16   17 1   
    30   16   21 1   
    31   17   18 1   
    32   17   36 1   
    33   18   37 1   
    34   19   20 1   
    35   19   38 1   
    36   20   39 1   
@<TRIPOS>SUBSTRUCTURE
     1 29F         1 TEMP              0 ****  ****    0 ROOT
