@<TRIPOS>MOLECULE
29F
   39    41     1     0     0
SMALL
bcc


@<TRIPOS>ATOM
      1 C           5.4920    0.4610    1.3640 c3        1 29F     -0.087100
      2 N          -1.3790   -1.2470    0.7190 n         1 29F     -0.493400
      3 O          -3.2250   -2.4300    1.3490 o         1 29F     -0.625500
      4 C1          4.9780    0.1530   -0.0400 c3        1 29F     -0.013700
      5 N1         -1.5240    0.8970   -0.3720 nc        1 29F     -0.616100
      6 C2          5.3920    1.2760   -0.9870 c3        1 29F     -0.087100
      7 C3          5.6360   -1.1370   -0.5150 c3        1 29F     -0.087100
      8 C4          3.4750    0.0550   -0.0100 ca        1 29F     -0.040300
      9 C5          2.7250    1.1650    0.4090 ca        1 29F     -0.135000
     10 C6          1.3350    1.1180    0.4530 ca        1 29F     -0.093000
     11 C7          0.6660   -0.0540    0.0790 ca        1 29F     -0.155900
     12 C8          1.4010   -1.1640   -0.3470 ca        1 29F     -0.093000
     13 C9          2.7930   -1.1070   -0.3900 ca        1 29F     -0.135000
     14 C10        -0.8200   -0.1060    0.1270 cd        1 29F      0.547500
     15 C11        -2.7710   -1.4010    0.8180 c         1 29F      0.708100
     16 C12        -3.5820   -0.3000    0.2680 ca        1 29F     -0.190600
     17 C13        -4.9810   -0.3590    0.3180 ca        1 29F     -0.059000
     18 C14        -5.7340    0.6830   -0.2020 ca        1 29F     -0.154000
     19 C15        -5.0950    1.7910   -0.7760 ca        1 29F     -0.095000
     20 C16        -3.7130    1.8690   -0.8360 ca        1 29F     -0.123000
     21 C17        -2.9210    0.8170   -0.3100 ca        1 29F      0.182400
     22 H           5.0780    1.4300    1.7330 hc        1 29F      0.038922
     23 HA          5.1940   -0.3480    2.0720 hc        1 29F      0.038922
     24 HB          6.6060    0.5340    1.3520 hc        1 29F      0.038922
     25 HN         -0.7830   -1.9560    1.0860 hn        1 29F      0.339500
     26 H2          6.5050    1.3530   -1.0200 hc        1 29F      0.038922
     27 H2A         5.0160    1.0710   -2.0180 hc        1 29F      0.038922
     28 H2B         4.9780    2.2540   -0.6430 hc        1 29F      0.038922
     29 H3          5.3780   -1.9850    0.1640 hc        1 29F      0.038922
     30 H3A         5.3100   -1.3860   -1.5530 hc        1 29F      0.038922
     31 H3B         6.7460   -1.0130   -0.5150 hc        1 29F      0.038922
     32 H5          3.2390    2.0920    0.7070 ha        1 29F      0.140500
     33 H6          0.7640    2.0020    0.7750 ha        1 29F      0.145000
     34 H8          0.8900   -2.0840   -0.6690 ha        1 29F      0.145000
     35 H9          3.3430   -1.9960   -0.7330 ha        1 29F      0.140500
     36 H13        -5.4610   -1.2400    0.7740 ha        1 29F      0.158000
     37 H14        -6.8320    0.6430   -0.1660 ha        1 29F      0.139000
     38 H15        -5.7030    2.6120   -1.1870 ha        1 29F      0.137000
     39 H16        -3.2230    2.7440   -1.2900 ha        1 29F      0.153000
@<TRIPOS>BOND
     1    1    4 1   
     2    1   22 1   
     3    1   23 1   
     4    1   24 1   
     5    2   14 1   
     6    2   15 1   
     7    2   25 1   
     8    3   15 2   
     9    4    6 1   
    10    4    7 1   
    11    4    8 1   
    12    5   14 2   
    13    5   21 1   
    14    6   26 1   
    15    6   27 1   
    16    6   28 1   
    17    7   29 1   
    18    7   30 1   
    19    7   31 1   
    20    8    9 ar  
    21    8   13 ar  
    22    9   10 ar  
    23    9   32 1   
    24   10   11 ar  
    25   10   33 1   
    26   11   12 ar  
    27   11   14 1   
    28   12   13 ar  
    29   12   34 1   
    30   13   35 1   
    31   15   16 1   
    32   16   17 ar  
    33   16   21 ar  
    34   17   18 ar  
    35   17   36 1   
    36   18   19 ar  
    37   18   37 1   
    38   19   20 ar  
    39   19   38 1   
    40   20   21 ar  
    41   20   39 1   
@<TRIPOS>SUBSTRUCTURE
     1 29F         1 TEMP              0 ****  ****    0 ROOT
