@<TRIPOS>MOLECULE
29F
   39    41     1     0     0
SMALL
bcc


@<TRIPOS>ATOM
      1 C           0.1240   -0.3430   -0.3680 c3        1 29F     -0.087100
      2 N           3.5410    4.6570   -4.0930 n         1 29F     -0.493400
      3 O           4.1600    5.6260   -6.0640 o         1 29F     -0.625500
      4 C1          1.5770   -0.0620    0.0080 c3        1 29F     -0.013700
      5 N1          3.4180    5.8890   -2.0260 nc        1 29F     -0.616100
      6 C2          1.6730    0.1650    1.5150 c3        1 29F     -0.087100
      7 C3          2.4060   -1.2910   -0.3420 c3        1 29F     -0.087100
      8 C4          2.0480    1.1740   -0.7120 ca        1 29F     -0.040300
      9 C5          1.3810    2.3890   -0.4940 ca        1 29F     -0.135000
     10 C6          1.7830    3.5560   -1.1390 ca        1 29F     -0.093000
     11 C7          2.8650    3.5230   -2.0260 ca        1 29F     -0.155900
     12 C8          3.5430    2.3200   -2.2460 ca        1 29F     -0.093000
     13 C9          3.1350    1.1580   -1.5940 ca        1 29F     -0.135000
     14 C10         3.2950    4.7680   -2.7180 cd        1 29F      0.547500
     15 C11         3.9510    5.7690   -4.8450 c         1 29F      0.708100
     16 C12         4.0980    7.0320   -4.1010 ca        1 29F     -0.190600
     17 C13         4.5030    8.1990   -4.7620 ca        1 29F     -0.059000
     18 C14         4.6380    9.3830   -4.0510 ca        1 29F     -0.154000
     19 C15         4.3690    9.4090   -2.6750 ca        1 29F     -0.095000
     20 C16         3.9670    8.2660   -2.0030 ca        1 29F     -0.123000
     21 C17         3.8220    7.0440   -2.7070 ca        1 29F      0.182400
     22 H          -0.2340   -1.2590    0.1600 hc        1 29F      0.038922
     23 HA         -0.5320    0.5120   -0.0780 hc        1 29F      0.038922
     24 HB          0.0340   -0.5060   -1.4680 hc        1 29F      0.038922
     25 HN          3.4140    3.7800   -4.5480 hn        1 29F      0.339500
     26 H2          2.7280    0.3800    1.8070 hc        1 29F      0.038922
     27 H2A         1.3300   -0.7480    2.0580 hc        1 29F      0.038922
     28 H2B         1.0330    1.0240    1.8260 hc        1 29F      0.038922
     29 H3          3.4740   -1.1410   -0.0550 hc        1 29F      0.038922
     30 H3A         2.3460   -1.5090   -1.4350 hc        1 29F      0.038922
     31 H3B         2.0140   -2.1780    0.2140 hc        1 29F      0.038922
     32 H5          0.5270    2.4290    0.1990 ha        1 29F      0.140500
     33 H6          1.2530    4.5020   -0.9480 ha        1 29F      0.145000
     34 H8          4.4130    2.2820   -2.9200 ha        1 29F      0.145000
     35 H9          3.6910    0.2280   -1.7860 ha        1 29F      0.140500
     36 H13         4.7090    8.1550   -5.8440 ha        1 29F      0.158000
     37 H14         4.9550   10.3020   -4.5640 ha        1 29F      0.139000
     38 H15         4.4800   10.3540   -2.1210 ha        1 29F      0.137000
     39 H16         3.7600    8.2990   -0.9220 ha        1 29F      0.153000
@<TRIPOS>BOND
     1    1    4 1   
     2    1   22 1   
     3    1   23 1   
     4    1   24 1   
     5    2   14 1   
     6    2   15 1   
     7    2   25 1   
     8    3   15 2   
     9    4    6 1   
    10    4    7 1   
    11    4    8 1   
    12    5   14 2   
    13    5   21 1   
    14    6   26 1   
    15    6   27 1   
    16    6   28 1   
    17    7   29 1   
    18    7   30 1   
    19    7   31 1   
    20    8    9 ar  
    21    8   13 ar  
    22    9   10 ar  
    23    9   32 1   
    24   10   11 ar  
    25   10   33 1   
    26   11   12 ar  
    27   11   14 1   
    28   12   13 ar  
    29   12   34 1   
    30   13   35 1   
    31   15   16 1   
    32   16   17 ar  
    33   16   21 ar  
    34   17   18 ar  
    35   17   36 1   
    36   18   19 ar  
    37   18   37 1   
    38   19   20 ar  
    39   19   38 1   
    40   20   21 ar  
    41   20   39 1   
@<TRIPOS>SUBSTRUCTURE
     1 29F         1 TEMP              0 ****  ****    0 ROOT
