@<TRIPOS>MOLECULE
29G
   20    21     1     0     0
SMALL
bcc


@<TRIPOS>ATOM
      1 NAB        -0.0780    0.0620    0.0250 n4        1 29G     -0.840300
      2 CAJ         1.4030    0.0210    0.0040 ca        1 29G      0.615200
      3 NAG         2.0310    0.0130    1.1900 nb        1 29G     -0.687000
      4 C5          2.0850   -0.0090   -1.2480 ca        1 29G     -0.429900
      5 C6          1.4960   -0.0030   -2.5650 ca        1 29G      0.471200
      6 N1          2.2230   -0.0330   -3.6630 nb        1 29G     -0.588000
      7 C2          3.6070   -0.0700   -3.5120 ca        1 29G      0.742900
      8 N3          4.2910   -0.0790   -2.3600 nb        1 29G     -0.604000
      9 C4          3.5400   -0.0480   -1.1980 ca        1 29G      0.727300
     10 NAH         4.2000   -0.0560    0.0280 nb        1 29G     -0.558000
     11 CAI         3.4260   -0.0260    1.1240 ca        1 29G      0.762900
     12 NAA         4.1320   -0.0340    2.4400 n4        1 29G     -0.818300
     13 H1         -0.4440   -0.7750   -0.4550 hn        1 29G      0.500133
     14 H2         -0.3970    0.9100   -0.4690 hn        1 29G      0.500133
     15 H3          0.3970    0.0260   -2.7090 h4        1 29G      0.054100
     16 H4          4.2070   -0.0940   -4.4610 h5        1 29G      0.137100
     17 H5          3.8440   -0.8650    2.9810 hn        1 29G      0.505133
     18 H6          3.8900    0.8200    2.9660 hn        1 29G      0.505133
     19 HAB3       -0.4480    0.0800    0.9920 hn        1 29G      0.500133
     20 HAA3        5.1580   -0.0640    2.2920 hn        1 29G      0.505133
@<TRIPOS>BOND
     1    1    2 1   
     2    1   13 1   
     3    1   14 1   
     4    1   19 1   
     5    2    3 ar  
     6    2    4 ar  
     7    3   11 ar  
     8    4    5 ar  
     9    4    9 ar  
    10    5    6 ar  
    11    5   15 1   
    12    6    7 ar  
    13    7    8 ar  
    14    7   16 1   
    15    8    9 ar  
    16    9   10 ar  
    17   10   11 ar  
    18   11   12 1   
    19   12   17 1   
    20   12   18 1   
    21   12   20 1   
@<TRIPOS>SUBSTRUCTURE
     1 29G         1 TEMP              0 ****  ****    0 ROOT
