@<TRIPOS>MOLECULE
29G
   18    19     1     0     0
SMALL
bcc


@<TRIPOS>ATOM
      1 NAB        -0.0210    0.1950    0.0250 nh        1 29G     -0.957500
      2 CAJ         1.3520    0.0600    0.0290 ca        1 29G      0.769200
      3 NAG         1.9920    0.0190    1.2210 nb        1 29G     -0.840000
      4 C5          2.0830    0.0150   -1.2240 ca        1 29G     -0.530900
      5 C6          1.5010    0.0460   -2.5240 ca        1 29G      0.496200
      6 N1          2.2230    0.0110   -3.6360 nb        1 29G     -0.730000
      7 C2          3.5960   -0.0570   -3.4600 ca        1 29G      0.664900
      8 N3          4.2820   -0.0890   -2.3210 nb        1 29G     -0.681000
      9 C4          3.5270   -0.0530   -1.1410 ca        1 29G      0.743300
     10 NAH         4.1830   -0.0780    0.0610 nb        1 29G     -0.776000
     11 CAI         3.3900   -0.0550    1.1870 ca        1 29G      0.947900
     12 NAA         4.0280   -0.1540    2.4140 nh        1 29G     -0.944500
     13 H1         -0.5090   -0.0050   -0.8120 hn        1 29G      0.437300
     14 H2         -0.5200    0.1280    0.8800 hn        1 29G      0.437300
     15 H3          0.4070    0.1070   -2.6670 h4        1 29G      0.014100
     16 H4          4.1920   -0.0860   -4.3980 h5        1 29G      0.056100
     17 H5          5.0150   -0.0760    2.4430 hn        1 29G      0.446300
     18 H6          3.5090    0.0160    3.2400 hn        1 29G      0.446300
@<TRIPOS>BOND
     1    1    2 1   
     2    1   13 1   
     3    1   14 1   
     4    2    3 ar  
     5    2    4 ar  
     6    3   11 ar  
     7    4    5 ar  
     8    4    9 ar  
     9    5    6 ar  
    10    5   15 1   
    11    6    7 ar  
    12    7    8 ar  
    13    7   16 1   
    14    8    9 ar  
    15    9   10 ar  
    16   10   11 ar  
    17   11   12 1   
    18   12   17 1   
    19   12   18 1   
@<TRIPOS>SUBSTRUCTURE
     1 29G         1 TEMP              0 ****  ****    0 ROOT
