@<TRIPOS>MOLECULE
29G
   18    19     1     0     0
SMALL
bcc


@<TRIPOS>ATOM
      1 NAB        -0.0130    0.2610    0.0250 nv        1 29G     -0.957500
      2 CAJ         1.3580    0.1100    0.0290 ca        1 29G      0.769200
      3 NAG         2.0050    0.1350    1.2180 nb        1 29G     -0.840000
      4 C5          2.0800   -0.0220   -1.2230 ca        1 29G     -0.530900
      5 C6          1.4910   -0.0630   -2.5180 ca        1 29G      0.496200
      6 N1          2.2050   -0.1770   -3.6310 nb        1 29G     -0.730000
      7 C2          3.5780   -0.2500   -3.4580 ca        1 29G      0.664900
      8 N3          4.2710   -0.2210   -2.3240 nb        1 29G     -0.681000
      9 C4          3.5240   -0.1020   -1.1430 ca        1 29G      0.743300
     10 NAH         4.1870   -0.0610    0.0540 nb        1 29G     -0.776000
     11 CAI         3.4020    0.0420    1.1810 ca        1 29G      0.947900
     12 NAA         4.0460    0.0120    2.4070 nv        1 29G     -0.944500
     13 H1         -0.5080    0.0160   -0.7950 hn        1 29G      0.437300
     14 H2         -0.5070    0.2530    0.8850 hn        1 29G      0.437300
     15 H3          0.3960    0.0020   -2.6590 h4        1 29G      0.014100
     16 H4          4.1680   -0.3440   -4.3960 h5        1 29G      0.056100
     17 H5          5.0350    0.0790    2.4270 hn        1 29G      0.446300
     18 H6          3.5350    0.2380    3.2240 hn        1 29G      0.446300
@<TRIPOS>BOND
     1    1    2 1   
     2    1   13 1   
     3    1   14 1   
     4    2    3 ar  
     5    2    4 ar  
     6    3   11 ar  
     7    4    5 ar  
     8    4    9 ar  
     9    5    6 ar  
    10    5   15 1   
    11    6    7 ar  
    12    7    8 ar  
    13    7   16 1   
    14    8    9 ar  
    15    9   10 ar  
    16   10   11 ar  
    17   11   12 1   
    18   12   17 1   
    19   12   18 1   
@<TRIPOS>SUBSTRUCTURE
     1 29G         1 TEMP              0 ****  ****    0 ROOT
