@<TRIPOS>MOLECULE
29H
   18    19     1     0     0
SMALL
bcc


@<TRIPOS>ATOM
      1 NAH         0.0060    0.0030   -0.0420 n         1 29H     -0.508400
      2 CAJ         1.4390    0.0020   -0.0280 c         1 29H      0.739100
      3 OAB         2.0070    0.0010   -1.1210 o         1 29H     -0.517500
      4 C5          2.0570    0.0020    1.2960 ca        1 29H     -0.414200
      5 C6          3.4690    0.0010    1.4560 ca        1 29H      0.521200
      6 N1          4.0370    0.0010    2.6670 nb        1 29H     -0.655000
      7 C2          3.1890    0.0020    3.7410 ca        1 29H      0.695900
      8 N3          1.8350    0.0030    3.7280 nb        1 29H     -0.641000
      9 C4          1.2590    0.0030    2.4830 ca        1 29H      0.659300
     10 NAG        -0.1560    0.0040    2.3880 nc        1 29H     -0.625700
     11 CAI        -0.6720    0.0030    1.1730 cd        1 29H      0.562800
     12 NAA        -2.1780    0.0040    1.1260 n4        1 29H     -0.809600
     13 H1         -0.4580    0.0030   -0.9260 hn        1 29H      0.357500
     14 H2          4.1370    0.0000    0.5690 h4        1 29H      0.077100
     15 H3          3.6660    0.0020    4.7510 h5        1 29H      0.096100
     16 H4         -2.5070    0.8460    0.6370 hn        1 29H      0.487800
     17 H5         -2.5530    0.0050    2.0900 hn        1 29H      0.487800
     18 HAA3       -2.5080   -0.8380    0.6390 hn        1 29H      0.487800
@<TRIPOS>BOND
     1    1    2 1   
     2    1   11 1   
     3    1   13 1   
     4    2    3 2   
     5    2    4 1   
     6    4    5 ar  
     7    4    9 ar  
     8    5    6 ar  
     9    5   14 1   
    10    6    7 ar  
    11    7    8 ar  
    12    7   15 1   
    13    8    9 ar  
    14    9   10 1   
    15   10   11 2   
    16   11   12 1   
    17   12   16 1   
    18   12   17 1   
    19   12   18 1   
@<TRIPOS>SUBSTRUCTURE
     1 29H         1 TEMP              0 ****  ****    0 ROOT
