@<TRIPOS>MOLECULE
29J
   45    46     1     0     0
SMALL
bcc


@<TRIPOS>ATOM
      1 O1          1.5000    0.2700    0.2390 oh        1 29J     -0.626800
      2 C5          0.1030    0.0060    0.1250 c3        1 29J      0.167800
      3 C          -0.5310   -0.0550    1.5230 c3        1 29J     -0.105400
      4 C4         -0.1580   -1.2970   -0.6380 c3        1 29J     -0.105400
      5 C3          0.2420   -2.5260    0.1500 c3        1 29J     -0.082400
      6 C2         -0.4110   -2.5550    1.5150 c3        1 29J     -0.086400
      7 C1         -0.1070   -1.2910    2.2890 c3        1 29J     -0.082400
      8 C6         -0.4970    1.2020   -0.6650 c3        1 29J     -0.011400
      9 C13         0.0030    2.5080   -0.0260 c3        1 29J      0.106800
     10 N          -0.2520    3.7240   -0.8710 nx        1 29J     -0.679400
     11 C15        -1.6950    4.0720   -0.9030 c3        1 29J      0.084600
     12 C14         0.5560    4.8720   -0.3890 c3        1 29J      0.084600
     13 C7         -0.1840    1.1690   -2.1260 ca        1 29J     -0.201300
     14 C12        -1.2260    1.1150   -3.0600 ca        1 29J     -0.092500
     15 C11        -0.9580    1.0860   -4.4250 ca        1 29J     -0.186500
     16 C10         0.3750    1.1040   -4.8640 ca        1 29J      0.158100
     17 O           0.7270    1.0910   -6.1860 oh        1 29J     -0.475100
     18 C9          1.4350    1.1470   -3.9360 ca        1 29J     -0.186500
     19 C8          1.1450    1.1720   -2.5800 ca        1 29J     -0.092500
     20 H1          1.9110   -0.5220    0.6100 ho        1 29J      0.433000
     21 H2         -0.2300    0.8550    2.1040 hc        1 29J      0.054700
     22 H3         -1.6470   -0.0510    1.4140 hc        1 29J      0.054700
     23 H4         -1.2510   -1.3490   -0.8840 hc        1 29J      0.054700
     24 H5          0.4150   -1.2700   -1.6030 hc        1 29J      0.054700
     25 H6          1.3580   -2.5580    0.2650 hc        1 29J      0.053200
     26 H7         -0.0560   -3.4400   -0.4290 hc        1 29J      0.053200
     27 H8         -0.0420   -3.4450    2.0890 hc        1 29J      0.056700
     28 H9         -1.5210   -2.6690    1.3990 hc        1 29J      0.056700
     29 H10        -0.6440   -1.3130    3.2730 hc        1 29J      0.053200
     30 H11         0.9920   -1.2380    2.5100 hc        1 29J      0.053200
     31 H12        -1.6150    1.1370   -0.5310 hc        1 29J      0.069700
     32 H13        -0.5000    2.6650    0.9680 hx        1 29J      0.113200
     33 H14         1.1200    2.4370    0.1320 hx        1 29J      0.113200
     34 H16        -2.2700    3.2000   -1.3180 hx        1 29J      0.101867
     35 H17        -2.0520    4.3030    0.1350 hx        1 29J      0.101867
     36 H18        -1.8470    4.9700   -1.5600 hx        1 29J      0.101867
     37 H19         0.2850    5.1030    0.6750 hx        1 29J      0.101867
     38 H20         0.3490    5.7690   -1.0330 hx        1 29J      0.101867
     39 H21         1.6470    4.6120   -0.4490 hx        1 29J      0.101867
     40 H22        -2.2730    1.0760   -2.7190 ha        1 29J      0.149500
     41 H23        -1.7810    1.0320   -5.1520 ha        1 29J      0.163000
     42 H24        -0.0750    0.9800   -6.7210 ho        1 29J      0.437000
     43 H25         2.4730    1.1410   -4.3010 ha        1 29J      0.163000
     44 H26         1.9660    1.1570   -1.8420 ha        1 29J      0.149500
     45 HN1         0.0450    3.4920   -1.8350 hn        1 29J      0.464800
@<TRIPOS>BOND
     1    1    2 1   
     2    1   20 1   
     3    2    3 1   
     4    2    4 1   
     5    2    8 1   
     6    3    7 1   
     7    3   21 1   
     8    3   22 1   
     9    4    5 1   
    10    4   23 1   
    11    4   24 1   
    12    5    6 1   
    13    5   25 1   
    14    5   26 1   
    15    6    7 1   
    16    6   27 1   
    17    6   28 1   
    18    7   29 1   
    19    7   30 1   
    20    8    9 1   
    21    8   13 1   
    22    8   31 1   
    23    9   10 1   
    24    9   32 1   
    25    9   33 1   
    26   10   11 1   
    27   10   12 1   
    28   10   45 1   
    29   11   34 1   
    30   11   35 1   
    31   11   36 1   
    32   12   37 1   
    33   12   38 1   
    34   12   39 1   
    35   13   14 ar  
    36   13   19 ar  
    37   14   15 ar  
    38   14   40 1   
    39   15   16 ar  
    40   15   41 1   
    41   16   17 1   
    42   16   18 ar  
    43   17   42 1   
    44   18   19 ar  
    45   18   43 1   
    46   19   44 1   
@<TRIPOS>SUBSTRUCTURE
     1 29J         1 TEMP              0 ****  ****    0 ROOT
