@<TRIPOS>MOLECULE
29J
   44    42     1     0     0
SMALL
bcc


@<TRIPOS>ATOM
      1 O1          1.9530   -1.0840    0.8960 oh        1 29J     -0.334000
      2 C5          0.7110   -1.1160    0.8970 c3        1 29J      0.091000
      3 C           0.1150   -1.3360    2.3930 c3        1 29J     -0.186500
      4 C4          0.1520   -2.4690    0.2770 c3        1 29J     -0.186500
      5 C3         -1.3710   -2.5500    0.2980 c3        1 29J     -0.154000
      6 C2         -1.9000   -1.6830    1.1870 c3        1 29J     -0.157000
      7 C1         -1.3820   -1.4030    2.4240 c3        1 29J     -0.154000
      8 C6          0.1040    0.1070    0.2160 c3        1 29J     -0.048000
      9 C13         0.7780    1.3520    0.7230 c3        1 29J     -0.060000
     10 N          -0.2280    2.3180    1.1220 n3        1 29J     -0.271000
     11 C15         0.0870    2.8220    2.4070 c3        1 29J     -0.119500
     12 C14        -0.2570    3.4100    0.1680 c3        1 29J     -0.119500
     13 C7          0.3050   -0.0000   -1.2990 c2        1 29J     -0.105000
     14 C12        -0.7710    0.1360   -2.1460 c2        1 29J     -0.100000
     15 C11        -0.5760    0.1210   -3.5340 c1        1 29J     -0.162000
     16 C10         0.6930   -0.0300   -4.0500 c1        1 29J      0.075000
     17 O           0.8820   -0.1190   -5.4440 o         1 29J     -0.254000
     18 C9          1.7750   -0.1680   -3.1950 c1        1 29J     -0.216000
     19 C8          1.5790   -0.1530   -1.8180 c1        1 29J     -0.076000
     20 H1          2.2700   -1.7660    1.3730 ho        1 29J      0.199000
     21 H2          0.4080   -0.5950    2.9610 hc        1 29J      0.094500
     22 H3          0.4760   -2.1750    2.7570 hc        1 29J      0.094500
     23 H4          0.4560   -2.5380   -0.6490 hc        1 29J      0.094500
     24 H5          0.5100   -3.2150    0.7810 hc        1 29J      0.094500
     25 H6         -1.6380   -3.4600    0.5410 hc        1 29J      0.079250
     26 H7         -1.7130   -2.3430   -0.5900 hc        1 29J      0.079250
     27 H8         -2.8230   -1.9860    1.3440 hc        1 29J      0.079000
     28 H9         -1.9610   -0.8170    0.7170 hc        1 29J      0.079000
     29 H10        -1.6610   -2.1150    3.0600 hc        1 29J      0.079250
     30 H11        -1.7300   -0.5510    2.7290 hc        1 29J      0.079250
     31 H12        -0.8540    0.1490    0.4160 hc        1 29J      0.112000
     32 H13         1.3380    1.1290    1.4900 h1        1 29J      0.082000
     33 H14         1.3360    1.7350    0.0100 h1        1 29J      0.082000
     34 H16        -0.5410    3.5430    2.6400 h1        1 29J      0.069833
     35 H17         0.0170    2.1060    3.0640 h1        1 29J      0.069833
     36 H18         1.0090    3.1780    2.4030 h1        1 29J      0.069833
     37 H19        -0.7820    4.1610    0.5420 h1        1 29J      0.069833
     38 H20         0.6590    3.7090   -0.0130 h1        1 29J      0.069833
     39 H21        -0.6680    3.1080   -0.6580 h1        1 29J      0.069833
     40 H22        -1.6720    0.2440   -1.7790 ha        1 29J      0.134000
     41 H23        -1.3490    0.2200   -4.1440 ha        1 29J      0.148000
     42 H24         1.2280    0.6510   -5.7500 ho        1 29J      0.217000
     43 H25         2.6810   -0.2760   -3.5620 ha        1 29J      0.132000
     44 H26         2.3550   -0.2510   -1.2060 ha        1 29J      0.157000
@<TRIPOS>BOND
     1    1    2 1   
     2    1   20 1   
     3    2    3 1   
     4    2    4 1   
     5    2    8 1   
     6    3    7 1   
     7    3   21 1   
     8    3   22 1   
     9    4    5 1   
    10    4   23 1   
    11    4   24 1   
    12    5    6 1   
    13    5   25 1   
    14    5   26 1   
    15    6    7 1   
    16    6   27 1   
    17    6   28 1   
    18    7   29 1   
    19    7   30 1   
    20    8    9 1   
    21    8   13 1   
    22    8   31 1   
    23    9   10 1   
    24    9   32 1   
    25    9   33 1   
    26   10   11 1   
    27   10   12 1   
    28   11   34 1   
    29   11   35 1   
    30   11   36 1   
    31   12   37 1   
    32   12   38 1   
    33   12   39 1   
    34   13   14 1   
    35   13   19 1   
    36   14   15 1   
    37   14   40 1   
    38   15   41 1   
    39   16   18 1   
    40   17   42 1   
    41   18   43 1   
    42   19   44 1   
@<TRIPOS>SUBSTRUCTURE
     1 29J         1 TEMP              0 ****  ****    0 ROOT
