@<TRIPOS>MOLECULE
29J
   45    46     1     0     0
SMALL
bcc


@<TRIPOS>ATOM
      1 O1          1.4920    0.2690    0.2230 oh        1 29J     -0.626800
      2 C5          0.0940    0.0150    0.1000 c3        1 29J      0.167800
      3 C          -0.5430   -0.0770    1.4940 c3        1 29J     -0.105400
      4 C4         -0.1720   -1.2670   -0.6960 c3        1 29J     -0.105400
      5 C3          0.2200   -2.5170    0.0620 c3        1 29J     -0.082400
      6 C2         -0.4360   -2.5770    1.4250 c3        1 29J     -0.086400
      7 C1         -0.1270   -1.3330    2.2300 c3        1 29J     -0.082400
      8 C6         -0.4980    1.2330   -0.6620 c3        1 29J     -0.011400
      9 C13         0.0050    2.5210    0.0100 c3        1 29J      0.106800
     10 N          -0.2410    3.7580   -0.8050 n4        1 29J     -0.679400
     11 C15        -1.6810    4.1140   -0.8350 c3        1 29J      0.084600
     12 C14         0.5710    4.8910   -0.2920 c3        1 29J      0.084600
     13 C7         -0.1820    1.2350   -2.1230 ca        1 29J     -0.201300
     14 C12        -1.2230    1.2080   -3.0600 ca        1 29J     -0.092500
     15 C11        -0.9510    1.2120   -4.4250 ca        1 29J     -0.186500
     16 C10         0.3830    1.2350   -4.8600 ca        1 29J      0.158100
     17 O           0.7380    1.2540   -6.1810 oh        1 29J     -0.475100
     18 C9          1.4410    1.2510   -3.9290 ca        1 29J     -0.186500
     19 C8          1.1480    1.2440   -2.5730 ca        1 29J     -0.092500
     20 H1          1.8980   -0.5340    0.5750 ho        1 29J      0.433000
     21 H2         -1.6590   -0.0650    1.3830 hc        1 29J      0.054700
     22 H3         -0.2390    0.8170    2.0980 hc        1 29J      0.054700
     23 H4          0.4030   -1.2190   -1.6590 hc        1 29J      0.054700
     24 H5         -1.2640   -1.3070   -0.9450 hc        1 29J      0.054700
     25 H6         -0.0810   -3.4150   -0.5390 hc        1 29J      0.053200
     26 H7          1.3360   -2.5580    0.1780 hc        1 29J      0.053200
     27 H8         -0.0720   -3.4820    1.9780 hc        1 29J      0.056700
     28 H9         -1.5460   -2.6820    1.3040 hc        1 29J      0.056700
     29 H10        -0.6660   -1.3770    3.2130 hc        1 29J      0.053200
     30 H11         0.9710   -1.2910    2.4550 hc        1 29J      0.053200
     31 H12        -1.6170    1.1700   -0.5320 hc        1 29J      0.069700
     32 H13         1.1220    2.4400    0.1710 hx        1 29J      0.113200
     33 H14        -0.5000    2.6560    1.0070 hx        1 29J      0.113200
     34 H16        -2.2590    3.2560   -1.2730 hx        1 29J      0.101867
     35 H17        -2.0420    4.3200    0.2080 hx        1 29J      0.101867
     36 H18        -1.8280    5.0290   -1.4690 hx        1 29J      0.101867
     37 H19         1.6610    4.6270   -0.3530 hx        1 29J      0.101867
     38 H20         0.2960    5.0960    0.7770 hx        1 29J      0.101867
     39 H21         0.3700    5.8040   -0.9140 hx        1 29J      0.101867
     40 H22        -2.2710    1.1650   -2.7220 ha        1 29J      0.149500
     41 H23        -1.7730    1.1790   -5.1550 ha        1 29J      0.163000
     42 H24        -0.0630    1.1590   -6.7200 ho        1 29J      0.437000
     43 H25         2.4800    1.2500   -4.2920 ha        1 29J      0.163000
     44 H26         1.9670    1.2080   -1.8340 ha        1 29J      0.149500
     45 HN1         0.0590    3.5490   -1.7740 hn        1 29J      0.464800
@<TRIPOS>BOND
     1    1    2 1   
     2    1   20 1   
     3    2    3 1   
     4    2    4 1   
     5    2    8 1   
     6    3    7 1   
     7    3   21 1   
     8    3   22 1   
     9    4    5 1   
    10    4   23 1   
    11    4   24 1   
    12    5    6 1   
    13    5   25 1   
    14    5   26 1   
    15    6    7 1   
    16    6   27 1   
    17    6   28 1   
    18    7   29 1   
    19    7   30 1   
    20    8    9 1   
    21    8   13 1   
    22    8   31 1   
    23    9   10 1   
    24    9   32 1   
    25    9   33 1   
    26   10   11 1   
    27   10   12 1   
    28   10   45 1   
    29   11   34 1   
    30   11   35 1   
    31   11   36 1   
    32   12   37 1   
    33   12   38 1   
    34   12   39 1   
    35   13   14 ar  
    36   13   19 ar  
    37   14   15 ar  
    38   14   40 1   
    39   15   16 ar  
    40   15   41 1   
    41   16   17 1   
    42   16   18 ar  
    43   17   42 1   
    44   18   19 ar  
    45   18   43 1   
    46   19   44 1   
@<TRIPOS>SUBSTRUCTURE
     1 29J         1 TEMP              0 ****  ****    0 ROOT
