@<TRIPOS>MOLECULE
29J
   45    46     1     0     0
SMALL
bcc


@<TRIPOS>ATOM
      1 O1          1.5000    0.2790    0.2160 oh        1 29J     -0.626800
      2 C5          0.1020    0.0210    0.1010 c3        1 29J      0.167800
      3 C          -0.5280   -0.0700    1.4990 c3        1 29J     -0.105400
      4 C4         -0.1650   -1.2640   -0.6900 c3        1 29J     -0.105400
      5 C3          0.2350   -2.5110    0.0690 c3        1 29J     -0.082400
      6 C2         -0.4140   -2.5700    1.4350 c3        1 29J     -0.086400
      7 C1         -0.1050   -1.3230    2.2360 c3        1 29J     -0.082400
      8 C6         -0.4970    1.2350   -0.6610 c3        1 29J     -0.011400
      9 C13         0.0070    2.5260    0.0050 c3        1 29J      0.106800
     10 N          -0.2490    3.7600   -0.8120 n4        1 29J     -0.679400
     11 C15        -1.6910    4.1130   -0.8290 c3        1 29J      0.084600
     12 C14         0.5650    4.8960   -0.3090 c3        1 29J      0.084600
     13 C7         -0.1890    1.2330   -2.1240 ca        1 29J     -0.201300
     14 C12        -1.2350    1.2030   -3.0550 ca        1 29J     -0.092500
     15 C11        -0.9700    1.2040   -4.4210 ca        1 29J     -0.186500
     16 C10         0.3620    1.2280   -4.8640 ca        1 29J      0.158100
     17 O           0.7090    1.2440   -6.1870 oh        1 29J     -0.475100
     18 C9          1.4240    1.2480   -3.9390 ca        1 29J     -0.186500
     19 C8          1.1390    1.2440   -2.5810 ca        1 29J     -0.092500
     20 H1          1.9090   -0.5220    0.5690 ho        1 29J      0.433000
     21 H2         -1.6440   -0.0610    1.3930 hc        1 29J      0.054700
     22 H3         -0.2230    0.8270    2.0990 hc        1 29J      0.054700
     23 H4         -1.2580   -1.3080   -0.9340 hc        1 29J      0.054700
     24 H5          0.4050   -1.2170   -1.6560 hc        1 29J      0.054700
     25 H6          1.3510   -2.5490    0.1800 hc        1 29J      0.053200
     26 H7         -0.0670   -3.4120   -0.5280 hc        1 29J      0.053200
     27 H8         -0.0440   -3.4720    1.9890 hc        1 29J      0.056700
     28 H9         -1.5250   -2.6780    1.3210 hc        1 29J      0.056700
     29 H10         0.9950   -1.2770    2.4550 hc        1 29J      0.053200
     30 H11        -0.6390   -1.3660    3.2220 hc        1 29J      0.053200
     31 H12        -1.6150    1.1700   -0.5250 hc        1 29J      0.069700
     32 H13        -0.4910    2.6620    1.0050 hx        1 29J      0.113200
     33 H14         1.1250    2.4490    0.1570 hx        1 29J      0.113200
     34 H16        -1.8450    5.0250   -1.4650 hx        1 29J      0.101867
     35 H17        -2.2710    3.2520   -1.2590 hx        1 29J      0.101867
     36 H18        -2.0420    4.3220    0.2160 hx        1 29J      0.101867
     37 H19         1.6550    4.6340   -0.3800 hx        1 29J      0.101867
     38 H20         0.3000    5.1030    0.7620 hx        1 29J      0.101867
     39 H21         0.3560    5.8070   -0.9310 hx        1 29J      0.101867
     40 H22        -2.2810    1.1590   -2.7120 ha        1 29J      0.149500
     41 H23        -1.7960    1.1680   -5.1470 ha        1 29J      0.163000
     42 H24        -0.0950    1.1470   -6.7210 ho        1 29J      0.437000
     43 H25         2.4610    1.2470   -4.3070 ha        1 29J      0.163000
     44 H26         1.9620    1.2100   -1.8460 ha        1 29J      0.149500
     45 HN1         0.0420    3.5490   -1.7820 hn        1 29J      0.464800
@<TRIPOS>BOND
     1    1    2 1   
     2    1   20 1   
     3    2    3 1   
     4    2    4 1   
     5    2    8 1   
     6    3    7 1   
     7    3   21 1   
     8    3   22 1   
     9    4    5 1   
    10    4   23 1   
    11    4   24 1   
    12    5    6 1   
    13    5   25 1   
    14    5   26 1   
    15    6    7 1   
    16    6   27 1   
    17    6   28 1   
    18    7   29 1   
    19    7   30 1   
    20    8    9 1   
    21    8   13 1   
    22    8   31 1   
    23    9   10 1   
    24    9   32 1   
    25    9   33 1   
    26   10   11 1   
    27   10   12 1   
    28   10   45 1   
    29   11   34 1   
    30   11   35 1   
    31   11   36 1   
    32   12   37 1   
    33   12   38 1   
    34   12   39 1   
    35   13   14 ar  
    36   13   19 ar  
    37   14   15 ar  
    38   14   40 1   
    39   15   16 ar  
    40   15   41 1   
    41   16   17 1   
    42   16   18 ar  
    43   17   42 1   
    44   18   19 ar  
    45   18   43 1   
    46   19   44 1   
@<TRIPOS>SUBSTRUCTURE
     1 29J         1 TEMP              0 ****  ****    0 ROOT
