@<TRIPOS>MOLECULE
29J
   44    45     1     0     0
SMALL
bcc


@<TRIPOS>ATOM
      1 O1         -1.5380    0.0500   -1.6250 oh        1 29J     -0.603800
      2 C5         -1.5780    0.1390   -0.2020 c3        1 29J      0.159800
      3 C          -2.8680   -0.5070    0.3310 c3        1 29J     -0.107900
      4 C4         -1.5100    1.6030    0.2530 c3        1 29J     -0.107900
      5 C3         -2.7620    2.3870   -0.0740 c3        1 29J     -0.080400
      6 C2         -4.0030    1.7190    0.4780 c3        1 29J     -0.081400
      7 C1         -4.1080    0.2910   -0.0110 c3        1 29J     -0.080400
      8 C6         -0.3470   -0.6420    0.3250 c3        1 29J     -0.000400
      9 C13        -0.2000   -1.9750   -0.4400 c3        1 29J      0.182800
     10 N           0.6760   -2.9210    0.2360 n3        1 29J     -0.747600
     11 C15        -0.0040   -3.7200    1.2280 c3        1 29J      0.164100
     12 C14         1.4800   -3.7070   -0.6690 c3        1 29J      0.164100
     13 C7          0.9260    0.1380    0.2350 ca        1 29J     -0.096300
     14 C12         1.7190    0.3100    1.3770 ca        1 29J     -0.086000
     15 C11         2.9240    1.0020    1.3140 ca        1 29J     -0.188500
     16 C10         3.3450    1.5280    0.0830 ca        1 29J      0.118100
     17 O           4.5440    2.2070    0.0790 oh        1 29J     -0.501100
     18 C9          2.5660    1.3620   -1.0710 ca        1 29J     -0.188500
     19 C8          1.3640    0.6660   -0.9860 ca        1 29J     -0.086000
     20 H1         -2.2800    0.5680   -1.9580 ho        1 29J      0.402000
     21 H2         -2.9700   -1.5370   -0.0980 hc        1 29J      0.055450
     22 H3         -2.7840   -0.6010    1.4450 hc        1 29J      0.055450
     23 H4         -1.3350    1.6170    1.3600 hc        1 29J      0.055450
     24 H5         -0.6300    2.0920   -0.2410 hc        1 29J      0.055450
     25 H6         -2.6690    3.4200    0.3540 hc        1 29J      0.040700
     26 H7         -2.8600    2.4980   -1.1860 hc        1 29J      0.040700
     27 H8         -3.9670    1.7300    1.6000 hc        1 29J      0.042700
     28 H9         -4.9130    2.2940    0.1660 hc        1 29J      0.042700
     29 H10        -4.2670    0.2850   -1.1220 hc        1 29J      0.040700
     30 H11        -5.0020   -0.2010    0.4540 hc        1 29J      0.040700
     31 H12        -0.5580   -0.8580    1.4120 hc        1 29J      0.057700
     32 H13        -1.2280   -2.4130   -0.5970 h1        1 29J      0.044200
     33 H14         0.2130   -1.7330   -1.4610 h1        1 29J      0.044200
     34 H16        -0.7450   -4.4430    0.7850 h1        1 29J      0.028700
     35 H17         0.7580   -4.3040    1.8080 h1        1 29J      0.028700
     36 H18        -0.5520   -3.0420    1.9330 h1        1 29J      0.028700
     37 H19         2.0910   -3.0170   -1.3090 h1        1 29J      0.028700
     38 H20         2.1770   -4.3490   -0.0700 h1        1 29J      0.028700
     39 H21         0.8720   -4.3730   -1.3410 h1        1 29J      0.028700
     40 H22         1.3930   -0.1140    2.3390 ha        1 29J      0.142500
     41 H23         3.5510    1.1390    2.2060 ha        1 29J      0.138500
     42 H24         4.7180    2.4950   -0.8280 ho        1 29J      0.416000
     43 H25         2.9030    1.7750   -2.0320 ha        1 29J      0.138500
     44 H26         0.7390    0.5330   -1.8850 ha        1 29J      0.142500
@<TRIPOS>BOND
     1    1    2 1   
     2    1   20 1   
     3    2    3 1   
     4    2    4 1   
     5    2    8 1   
     6    3    7 1   
     7    3   21 1   
     8    3   22 1   
     9    4    5 1   
    10    4   23 1   
    11    4   24 1   
    12    5    6 1   
    13    5   25 1   
    14    5   26 1   
    15    6    7 1   
    16    6   27 1   
    17    6   28 1   
    18    7   29 1   
    19    7   30 1   
    20    8    9 1   
    21    8   13 1   
    22    8   31 1   
    23    9   10 1   
    24    9   32 1   
    25    9   33 1   
    26   10   11 1   
    27   10   12 1   
    28   11   34 1   
    29   11   35 1   
    30   11   36 1   
    31   12   37 1   
    32   12   38 1   
    33   12   39 1   
    34   13   14 ar  
    35   13   19 ar  
    36   14   15 ar  
    37   14   40 1   
    38   15   16 ar  
    39   15   41 1   
    40   16   17 1   
    41   16   18 ar  
    42   17   42 1   
    43   18   19 ar  
    44   18   43 1   
    45   19   44 1   
@<TRIPOS>SUBSTRUCTURE
     1 29J         1 TEMP              0 ****  ****    0 ROOT
