@<TRIPOS>MOLECULE
29K
   64    65     1     0     0
SMALL
bcc


@<TRIPOS>ATOM
      1 C10        -1.1000    0.8040   -0.4150 ca        1 29K     -0.046000
      2 C13        -3.7160   -0.0280    0.1950 ca        1 29K     -0.135000
      3 C15        -3.8150    0.9460    2.3030 c2        1 29K      0.033000
      4 C17        -6.1180    0.3580    2.9960 c2        1 29K     -0.023000
      5 C20        -3.5880    1.6630    3.5650 c3        1 29K     -0.203000
      6 C24        -4.9770   -4.0530    1.9010 cx        1 29K     -0.156500
      7 C28        -2.7540   -1.1830   -3.1180 c2        1 29K     -0.007000
      8 C02         0.3030    1.3010   -0.5990 c2        1 29K      0.339000
      9 N03         1.3460    0.4000   -0.6230 ns        1 29K     -0.352000
     10 C04         1.2540   -0.9750   -0.2190 c3        1 29K      0.013000
     11 C05         1.7160   -1.2990    1.1690 c2        1 29K     -0.177000
     12 C06         2.3090   -0.4770    1.9870 c1        1 29K     -0.156000
     13 C07        -0.4370    5.6820    0.4680 c3        1 29K     -0.274000
     14 C08         2.9100    0.3150    2.8200 c2        1 29K     -0.155000
     15 C09        -1.6710    1.1390    0.8440 ca        1 29K     -0.053000
     16 C11        -1.8310    0.1150   -1.3620 ca        1 29K      0.013000
     17 C12        -3.1710   -0.3650   -1.0240 ca        1 29K      0.067000
     18 C14        -2.9510    0.7440    1.1440 ca        1 29K     -0.058000
     19 C16        -5.0360    0.3300    2.0560 c2        1 29K     -0.159000
     20 C18        -5.9210    1.0200    4.1740 c2        1 29K     -0.194000
     21 C19        -4.6960    1.6710    4.5120 c1        1 29K     -0.041000
     22 N21        -5.0740   -0.3020    0.7120 nx        1 29K      0.088000
     23 C23        -4.9480   -2.6340    1.5210 cu        1 29K     -0.118000
     24 C25        -4.0890   -3.0710    2.6280 cx        1 29K     -0.156500
     25 N26        -6.7950    1.0830   -0.9760 n9        1 29K     -0.411000
     26 N27        -3.7630   -1.0650   -2.0930 na        1 29K     -0.219000
     27 C29        -2.8930   -1.9240   -4.2260 c2        1 29K     -0.217000
     28 C30         1.3170    1.6980   -3.5370 c1        1 29K     -0.086000
     29 C31         0.4020    0.9220   -3.5340 c1        1 29K     -0.202000
     30 C32        -0.6590    0.0260   -3.6590 c2        1 29K      0.064000
     31 C33        -1.5920   -0.3120   -2.7480 c2        1 29K     -0.081000
     32 H1         -7.0640   -0.1490    2.7490 ha        1 29K      0.153000
     33 H2         -2.6870    1.2360    4.1050 hc        1 29K      0.195500
     34 H3         -6.1750   -1.9490   -0.0760 hx        1 29K      0.179000
     35 H4         -5.7940    0.2440    0.0850 hn        1 29K      0.323000
     36 H5         -5.8740   -4.4540    2.4150 hc        1 29K      0.145000
     37 H6         -4.5230   -4.8020    1.2230 hc        1 29K      0.145000
     38 H7          2.2630    0.7950   -0.6330 hn        1 29K      0.243000
     39 H8         -1.0760    1.7330    1.5580 ha        1 29K      0.176000
     40 H9          1.8880   -1.5790   -0.9370 h1        1 29K      0.102500
     41 H10         0.1870   -1.3260   -0.3280 h1        1 29K      0.102500
     42 H11         1.5400   -2.3500    1.4590 ha        1 29K      0.150000
     43 H12        -0.0990    5.7550    1.5250 hc        1 29K      0.068250
     44 H13        -0.0850    4.7220    0.0280 hc        1 29K      0.068250
     45 H14        -1.5470    5.7260    0.4310 hc        1 29K      0.068250
     46 H15         2.3650    0.9250    3.5560 ha        1 29K      0.143000
     47 H16        -0.0160    6.5310   -0.1120 hc        1 29K      0.068250
     48 H17         4.0060    0.4210    2.8400 ha        1 29K      0.143000
     49 H18        -6.7310    1.0710    4.9240 ha        1 29K      0.176000
     50 H19        -3.3190    2.7480    3.3600 hc        1 29K      0.195500
     51 H20        -5.9600   -4.0420    4.6400 ha        1 29K      0.000500
     52 H21        -6.2550   -4.2580    5.2110 ha        1 29K      0.000500
     53 H22        -4.3510   -2.7740    3.6640 hc        1 29K      0.145000
     54 H23        -2.9930   -3.1110    2.4770 hc        1 29K      0.145000
     55 H24        -7.7180    0.6980   -1.0100 hn        1 29K      0.173000
     56 H25        -6.3880    1.0440   -1.8900 hn        1 29K      0.173000
     57 H27        -4.2580   -1.9010   -1.8620 hn        1 29K      0.213000
     58 H28        -3.7820   -2.5370   -4.4290 ha        1 29K      0.141500
     59 H29        -2.1170   -1.9530   -5.0020 ha        1 29K      0.141500
     60 H30         2.1170    2.3990   -3.5120 ha        1 29K      0.242000
     61 H31        -0.7310   -0.4280   -4.6730 ha        1 29K      0.155000
     62 C22        -5.4290   -1.7130    0.7090 c2        1 29K     -0.144000
     63 O01         0.5240    2.5230   -0.7100 o         1 29K     -0.342000
     64 H263       -6.8490    2.0390   -0.6830 hn        1 29K      0.173000
@<TRIPOS>BOND
     1    1    8 1   
     2    1   15 1   
     3    1   16 1   
     4    2   17 1   
     5    2   18 1   
     6    2   22 1   
     7    3    5 1   
     8    3   18 1   
     9    3   19 1   
    10    4   19 1   
    11    4   20 1   
    12    4   32 1   
    13    5   21 1   
    14    5   33 1   
    15    5   50 1   
    16    6   23 1   
    17    6   24 1   
    18    6   36 1   
    19    6   37 1   
    20    7   26 1   
    21    7   27 1   
    22    7   31 1   
    23    8    9 1   
    24    8   63 1   
    25    9   10 1   
    26    9   38 1   
    27   10   11 1   
    28   10   40 1   
    29   10   41 1   
    30   11   12 1   
    31   11   42 1   
    32   12   14 1   
    33   13   43 1   
    34   13   44 1   
    35   13   45 1   
    36   13   47 1   
    37   14   46 1   
    38   14   48 1   
    39   15   18 1   
    40   15   39 1   
    41   16   17 1   
    42   16   31 1   
    43   17   26 1   
    44   19   22 1   
    45   20   21 1   
    46   20   49 1   
    47   22   35 1   
    48   22   62 1   
    49   23   24 1   
    50   23   62 1   
    51   24   53 1   
    52   24   54 1   
    53   25   55 1   
    54   25   56 1   
    55   25   64 1   
    56   26   57 1   
    57   27   58 1   
    58   27   59 1   
    59   28   29 1   
    60   28   60 1   
    61   29   30 1   
    62   30   31 1   
    63   30   61 1   
    64   34   62 1   
    65   51   52 1   
@<TRIPOS>SUBSTRUCTURE
     1 29K         1 TEMP              0 ****  ****    0 ROOT
