@<TRIPOS>MOLECULE
29K
   63    68     1     0     0
SMALL
bcc


@<TRIPOS>ATOM
      1 C10         1.6500    0.7930   -0.5330 ca        1 29K     -0.150600
      2 C13        -0.7250   -0.4850    0.3090 ca        1 29K      0.005800
      3 C15        -0.0270   -2.6570   -0.1490 cp        1 29K     -0.075000
      4 C17        -2.0710   -3.8680    0.5240 ca        1 29K     -0.154000
      5 C20         0.5690   -3.8500   -0.5360 ca        1 29K     -0.081000
      6 C24        -5.2280    0.0620    0.0400 c3        1 29K     -0.082400
      7 C28        -0.9940    3.1390    0.5400 ca        1 29K     -0.026200
      8 C02         2.9980    1.1770   -1.0460 c         1 29K      0.705100
      9 N03         3.6530   -0.0080   -1.4540 n         1 29K     -0.540900
     10 C04         2.8950   -1.1900   -1.0210 c3        1 29K      0.126000
     11 C05         3.5890   -2.0570    0.0360 c3        1 29K     -0.096400
     12 C06         4.0750   -1.3020    1.2670 c3        1 29K     -0.070700
     13 C07         3.7230   -2.0640    2.5300 c3        1 29K     -0.090600
     14 C08         5.5720   -1.0660    1.2160 c3        1 29K     -0.090600
     15 C09         1.5680   -0.6270   -0.5360 ca        1 29K     -0.045300
     16 C11         0.5860    1.5620   -0.1080 cp        1 29K      0.037000
     17 C12        -0.6310    0.9060    0.3390 ca        1 29K     -0.076200
     18 C14         0.4050   -1.2700   -0.1740 cp        1 29K     -0.045000
     19 C16        -1.3730   -2.6650    0.3770 ca        1 29K     -0.005200
     20 C18        -1.4350   -5.0470    0.1380 ca        1 29K     -0.100000
     21 C19        -0.1400   -5.0410   -0.3880 ca        1 29K     -0.158000
     22 N21        -1.7630   -1.3490    0.7210 na        1 29K     -0.064300
     23 C23        -3.8820   -0.5110   -0.3440 c3        1 29K     -0.117400
     24 C25        -6.0130    0.4420   -1.2160 c3        1 29K      0.160800
     25 N26        -7.3330    0.9480   -0.9270 n3        1 29K     -0.916800
     26 N27        -1.5560    1.8680    0.8210 na        1 29K     -0.157300
     27 C29        -1.5340    4.4060    0.7670 ca        1 29K     -0.160000
     28 C30        -0.7380    5.5150    0.4810 ca        1 29K     -0.095000
     29 C31         0.5610    5.3750   -0.0160 ca        1 29K     -0.163000
     30 C32         1.1140    4.1140   -0.2480 ca        1 29K     -0.058000
     31 C33         0.3440    2.9900    0.0200 cp        1 29K     -0.086000
     32 H1         -3.0910   -3.8930    0.9290 ha        1 29K      0.138000
     33 H2          1.5820   -3.8550   -0.9640 ha        1 29K      0.137000
     34 H3         -3.6750   -1.8370    1.3630 h1        1 29K      0.065200
     35 H4         -3.1470   -0.1270    1.6770 h1        1 29K      0.065200
     36 H5         -5.8070   -0.6920    0.6360 hc        1 29K      0.048200
     37 H6         -5.0840    0.9640    0.6900 hc        1 29K      0.048200
     38 H7          4.6430   -0.0510   -1.4160 hn        1 29K      0.311500
     39 H8          2.7170   -1.8310   -1.9350 h1        1 29K      0.076700
     40 H9          2.8500   -2.8420    0.3490 hc        1 29K      0.055200
     41 H10         4.4520   -2.5830   -0.4500 hc        1 29K      0.055200
     42 H11         3.5560   -0.3020    1.3110 hc        1 29K      0.058700
     43 H12         2.6160   -2.1800    2.6210 hc        1 29K      0.035533
     44 H13         4.1880   -3.0780    2.5200 hc        1 29K      0.035533
     45 H14         4.0960   -1.5120    3.4270 hc        1 29K      0.035533
     46 H15         5.8590   -0.4900    0.3050 hc        1 29K      0.035533
     47 H16         5.8970   -0.4850    2.1130 hc        1 29K      0.035533
     48 H17         6.1230   -2.0370    1.2080 hc        1 29K      0.035533
     49 H18        -1.9700   -6.0030    0.2470 ha        1 29K      0.134000
     50 H19         0.3250   -5.9910   -0.6910 ha        1 29K      0.135000
     51 H20        -3.2870    0.2550   -0.9080 hc        1 29K      0.054700
     52 H21        -4.0210   -1.3870   -1.0310 hc        1 29K      0.054700
     53 H22        -5.3860    1.1730   -1.8100 h1        1 29K      0.027200
     54 H23        -6.1380   -0.4790   -1.8560 h1        1 29K      0.027200
     55 H24        -7.2940    1.7230   -0.2960 hn        1 29K      0.351300
     56 H25        -7.7910    1.2290   -1.7700 hn        1 29K      0.351300
     57 H27        -2.5260    1.7230    0.6550 hn        1 29K      0.268700
     58 H28        -2.5500    4.5310    1.1640 ha        1 29K      0.135000
     59 H29        -1.1450    6.5230    0.6520 ha        1 29K      0.131000
     60 H30         1.1600    6.2730   -0.2270 ha        1 29K      0.136000
     61 H31         2.1410    4.0050   -0.6370 ha        1 29K      0.176000
     62 C22        -3.1300   -0.9570    0.9120 c3        1 29K      0.034300
     63 O01         3.4930    2.3070   -1.1620 o         1 29K     -0.617500
@<TRIPOS>BOND
     1    1    8 1   
     2    1   15 ar  
     3    1   16 ar  
     4    2   17 ar  
     5    2   18 ar  
     6    2   22 1   
     7    3    5 ar  
     8    3   18 1   
     9    3   19 ar  
    10    4   19 ar  
    11    4   20 ar  
    12    4   32 1   
    13    5   21 ar  
    14    5   33 1   
    15    6   23 1   
    16    6   24 1   
    17    6   36 1   
    18    6   37 1   
    19    7   26 1   
    20    7   27 ar  
    21    7   31 ar  
    22    8    9 1   
    23    8   63 2   
    24    9   10 1   
    25    9   38 1   
    26   10   11 1   
    27   10   15 1   
    28   10   39 1   
    29   11   12 1   
    30   11   40 1   
    31   11   41 1   
    32   12   13 1   
    33   12   14 1   
    34   12   42 1   
    35   13   43 1   
    36   13   44 1   
    37   13   45 1   
    38   14   46 1   
    39   14   47 1   
    40   14   48 1   
    41   15   18 ar  
    42   16   17 ar  
    43   16   31 1   
    44   17   26 1   
    45   19   22 1   
    46   20   21 ar  
    47   20   49 1   
    48   21   50 1   
    49   22   62 1   
    50   23   51 1   
    51   23   52 1   
    52   23   62 1   
    53   24   25 1   
    54   24   53 1   
    55   24   54 1   
    56   25   55 1   
    57   25   56 1   
    58   26   57 1   
    59   27   28 ar  
    60   27   58 1   
    61   28   29 ar  
    62   28   59 1   
    63   29   30 ar  
    64   29   60 1   
    65   30   31 ar  
    66   30   61 1   
    67   34   62 1   
    68   35   62 1   
@<TRIPOS>SUBSTRUCTURE
     1 29K         1 TEMP              0 ****  ****    0 ROOT
