@<TRIPOS>MOLECULE
29K
   64    66     1     0     0
SMALL
bcc


@<TRIPOS>ATOM
      1 C10        -0.8400    1.4380   -0.2380 ca        1 29K     -0.035000
      2 C13        -3.5480    1.1120    0.4730 ca        1 29K     -0.088000
      3 C15        -3.3390    1.9070    2.6490 cp        1 29K     -0.046000
      4 C17        -5.6290    1.5520    3.4610 ca        1 29K     -0.091000
      5 C20        -2.9540    2.4270    3.8720 ca        1 29K     -0.082000
      6 C24        -6.2990   -2.8320   -0.0460 c3        1 29K     -0.133000
      7 C28        -2.9260   -0.3100   -2.8070 c2        1 29K      0.032000
      8 C02         0.6130    1.6930   -0.4910 c2        1 29K      0.341000
      9 N03         1.5090    0.6450   -0.4220 n         1 29K     -0.363000
     10 C04         1.2190   -0.6490    0.1240 c3        1 29K      0.007000
     11 C05         1.7240   -0.9400    1.5010 c2        1 29K     -0.222000
     12 C06         2.4490   -0.1300    2.2740 c2        1 29K     -0.140000
     13 C07        -4.4840    2.9470   -0.7330 c1        1 29K     -0.130000
     14 C08         2.9260   -0.5030    3.6200 c3        1 29K     -0.194000
     15 C09        -1.2900    1.8410    1.0500 ca        1 29K     -0.102000
     16 C11        -1.7140    0.8860   -1.1530 ca        1 29K     -0.038000
     17 C12        -3.1120    0.7060   -0.7730 ca        1 29K      0.067000
     18 C14        -2.6050    1.6720    1.4090 cq        1 29K     -0.004000
     19 C16        -4.6890    1.4720    2.4470 ca        1 29K     -0.103000
     20 C18        -5.2170    2.0820    4.6940 ca        1 29K     -0.110000
     21 C19        -3.9090    2.5110    4.8950 ca        1 29K     -0.115000
     22 N21        -4.9070    0.9740    1.0520 n4        1 29K      0.247000
     23 C23        -4.9440   -1.5060    1.5400 c3        1 29K     -0.022000
     24 C25        -4.9190   -2.6920    0.5770 c3        1 29K     -0.175000
     25 N26        -6.4280   -4.0540   -0.9010 n4        1 29K     -0.071000
     26 N27        -3.8530    0.0890   -1.7930 na        1 29K     -0.230000
     27 C29        -3.2290   -1.0900   -3.8560 c2        1 29K     -0.278000
     28 C30         1.6510    1.6150   -3.4600 c1        1 29K     -0.104000
     29 C31         0.5920    1.0560   -3.4010 c1        1 29K     -0.189000
     30 C32        -0.6400    0.4010   -3.4530 c2        1 29K      0.041000
     31 C33        -1.5990    0.3330   -2.5120 c2        1 29K     -0.064000
     32 H1         -6.6640    1.2120    3.3140 ha        1 29K      0.152000
     33 H2         -1.9220    2.7700    4.0400 ha        1 29K      0.153000
     34 H3         -6.5820   -0.2510    0.7630 hx        1 29K      0.111000
     35 H4         -5.4820    1.6910    0.5400 hn        1 29K      0.289000
     36 H5         -6.5090   -1.9270   -0.6920 hx        1 29K      0.159500
     37 H6         -7.0850   -2.8950    0.7600 hx        1 29K      0.159500
     38 H7          2.4730    0.8840   -0.5100 hn        1 29K      0.236000
     39 H8         -0.5670    2.2860    1.7530 ha        1 29K      0.167000
     40 H9          1.6750   -1.4170   -0.5740 h1        1 29K      0.098000
     41 H10         0.1010   -0.8110    0.1180 h1        1 29K      0.098000
     42 H11         1.4450   -1.9510    1.8460 ha        1 29K      0.129000
     43 H12        -3.7760    3.7230   -0.4170 ha        1 29K      0.053500
     44 H13         2.7440    0.8830    1.9490 ha        1 29K      0.124000
     45 H14        -4.4890    2.7750   -1.8160 ha        1 29K      0.053500
     46 H15         2.5910   -1.5260    3.9170 hc        1 29K      0.087667
     47 H16         2.5450    0.2270    4.3780 hc        1 29K      0.087667
     48 H17         4.0450   -0.4770    3.6480 hc        1 29K      0.087667
     49 H18        -5.9500    2.1570    5.5130 ha        1 29K      0.150000
     50 H19        -3.6140    2.9270    5.8720 ha        1 29K      0.151000
     51 H20        -5.5570   -1.8140    2.4340 hc        1 29K      0.067000
     52 H21        -3.8920   -1.3470    1.9030 hc        1 29K      0.067000
     53 H22        -4.6360   -3.6210    1.1370 hc        1 29K      0.087500
     54 H23        -4.1530   -2.5110   -0.2200 hc        1 29K      0.087500
     55 H24        -6.2630   -4.8940   -0.3390 hn        1 29K      0.247667
     56 H25        -5.7360   -4.0270   -1.6540 hn        1 29K      0.247667
     57 H27        -4.5980   -0.5110   -1.5090 hn        1 29K      0.238000
     58 H28        -4.2300   -1.5050   -4.0180 ha        1 29K      0.127000
     59 H29        -2.4920   -1.3270   -4.6320 ha        1 29K      0.127000
     60 H30         2.5800    2.1310   -3.4860 ha        1 29K      0.239000
     61 H31        -0.8280   -0.0950   -4.4310 ha        1 29K      0.148000
     62 C22        -5.4950   -0.3080    0.8960 c2        1 29K     -0.741000
     63 O01         1.0230    2.8430   -0.7450 o         1 29K     -0.344000
     64 H263       -7.3650   -4.1030   -1.3090 hn        1 29K      0.247667
@<TRIPOS>BOND
     1    1    8 1   
     2    1   15 1   
     3    1   16 1   
     4    2   17 1   
     5    2   18 1   
     6    2   22 1   
     7    3    5 1   
     8    3   18 1   
     9    3   19 1   
    10    4   19 1   
    11    4   20 1   
    12    4   32 1   
    13    5   21 1   
    14    5   33 1   
    15    6   24 1   
    16    6   25 1   
    17    6   36 1   
    18    6   37 1   
    19    7   26 1   
    20    7   27 1   
    21    7   31 1   
    22    8    9 1   
    23    8   63 1   
    24    9   10 1   
    25    9   38 1   
    26   10   11 1   
    27   10   40 1   
    28   10   41 1   
    29   11   12 1   
    30   11   42 1   
    31   12   14 1   
    32   12   44 1   
    33   13   43 1   
    34   13   45 1   
    35   14   46 1   
    36   14   47 1   
    37   14   48 1   
    38   15   18 1   
    39   15   39 1   
    40   16   17 1   
    41   16   31 1   
    42   17   26 1   
    43   19   22 1   
    44   20   21 1   
    45   20   49 1   
    46   21   50 1   
    47   22   35 1   
    48   22   62 1   
    49   23   24 1   
    50   23   51 1   
    51   23   52 1   
    52   23   62 1   
    53   24   53 1   
    54   24   54 1   
    55   25   55 1   
    56   25   56 1   
    57   25   64 1   
    58   26   57 1   
    59   27   58 1   
    60   27   59 1   
    61   28   29 1   
    62   28   60 1   
    63   29   30 1   
    64   30   31 1   
    65   30   61 1   
    66   34   62 1   
@<TRIPOS>SUBSTRUCTURE
     1 29K         1 TEMP              0 ****  ****    0 ROOT
