@<TRIPOS>MOLECULE
29K
   63    51     1     0     0
SMALL
bcc


@<TRIPOS>ATOM
      1 C10         2.1550   -0.0660   -1.0570 c1        1 29K     -0.127000
      2 C13        -0.5790   -0.0070   -0.4560 c1        1 29K      0.010500
      3 C15        -0.3270   -0.0080    1.7730 c1        1 29K     -0.025500
      4 C17        -2.6030    0.0120    2.5440 c1        1 29K     -0.114000
      5 C20         0.1150   -0.1120    3.0980 c1        1 29K     -0.114000
      6 C22        -3.0140    0.2060   -0.7160 c3        1 29K     -0.025000
      7 C24        -5.3620   -0.6700   -0.7280 c3        1 29K     -0.162000
      8 C28         0.0550    0.0550   -4.0410 c1        1 29K     -0.025500
      9 O01         4.3740   -0.2600   -2.0690 o         1 29K     -0.343000
     10 C02         3.6710   -0.1950   -1.0740 c1        1 29K      0.344000
     11 N03         4.1270   -0.2410    0.2830 n2        1 29K     -0.356000
     12 C04         2.9930   -0.1590    1.1290 c3        1 29K      0.044000
     13 C05         3.0920    1.0750    1.9960 c3        1 29K     -0.180000
     14 C06         4.4660    1.1070    2.6870 c3        1 29K     -0.108000
     15 C07         5.0590    2.5310    2.5870 c3        1 29K     -0.212000
     16 C08         4.3050    0.7230    4.1610 c3        1 29K     -0.212000
     17 C09         1.7470   -0.0750    0.2480 c2        1 29K     -0.042000
     18 C11         1.1860   -0.0270   -2.1110 c1        1 29K      0.037000
     19 C12        -0.1560    0.0030   -1.8090 c1        1 29K      0.010500
     20 C14         0.3560   -0.0450    0.5590 c1        1 29K     -0.045000
     21 C16        -1.6770    0.0540    1.5000 c1        1 29K     -0.025500
     22 C18        -2.1650   -0.0910    3.8560 c1        1 29K     -0.129250
     23 C19        -0.8030   -0.1530    4.1320 c1        1 29K     -0.129250
     24 N21        -1.8370    0.0540    0.1210 n1        1 29K     -0.175000
     25 C23        -3.8880   -1.0580   -0.6090 c3        1 29K     -0.196000
     26 C25        -6.2380   -1.8820   -0.3900 c3        1 29K     -0.077000
     27 N26        -7.6130   -1.4870   -0.3670 n3        1 29K     -0.350000
     28 N27        -0.8600    0.0530   -2.9980 DU        1 29K     -0.199000
     29 C29        -0.1190   -0.0230   -5.4360 c1        1 29K     -0.114000
     30 C30         0.9760   -0.1480   -6.2620 c1        1 29K     -0.129250
     31 C31         2.2580   -0.1970   -5.7170 c1        1 29K     -0.129250
     32 C32         2.4310   -0.1210   -4.3430 c1        1 29K     -0.114000
     33 C33         1.3150    0.0060   -3.5020 c1        1 29K     -0.025500
     34 H1         -3.5570    0.0550    2.3510 ha        1 29K      0.147750
     35 H2          1.0720   -0.1550    3.2920 ha        1 29K      0.147750
     36 H3         -2.7390    0.3340   -1.6470 h1        1 29K      0.104500
     37 H4         -3.5250    0.9800   -0.4200 h1        1 29K      0.104500
     38 H5         -5.5490   -0.3780   -1.6400 hc        1 29K      0.087500
     39 H6         -5.5580    0.0580   -0.1050 hc        1 29K      0.087500
     40 H7          4.9960   -0.3680    0.5560 hn        1 29K      0.225000
     41 H8          2.9440   -0.9560    1.6950 h1        1 29K      0.120000
     42 H9          2.9890    1.8680    1.4430 hc        1 29K      0.101000
     43 H10         2.3870    1.0550    2.6730 hc        1 29K      0.101000
     44 H11         5.0610    0.4790    2.2520 hc        1 29K      0.085000
     45 H12         5.8720    2.5880    3.1410 hc        1 29K      0.076000
     46 H13         4.3970    3.1850    2.9080 hc        1 29K      0.076000
     47 H14         5.2850    2.7270    1.6560 hc        1 29K      0.076000
     48 H15         5.1880    0.6960    4.5900 hc        1 29K      0.076000
     49 H16         3.8830   -0.1620    4.2250 hc        1 29K      0.076000
     50 H17         3.7450    1.3830    4.6100 hc        1 29K      0.076000
     51 H18        -2.8110   -0.1190    4.5830 ha        1 29K      0.133750
     52 H19        -0.4970   -0.2250    5.0520 ha        1 29K      0.133750
     53 H20        -3.7330   -1.4890    0.2540 hc        1 29K      0.094000
     54 H21        -3.6550   -1.6760   -1.3280 hc        1 29K      0.094000
     55 H22        -6.1090   -2.5800   -1.0720 h1        1 29K      0.066500
     56 H23        -5.9840   -2.2340    0.4900 h1        1 29K      0.066500
     57 H24        -7.8420   -1.2310    0.4780 hn        1 29K      0.147000
     58 H25        -8.1350   -2.1900   -0.6240 hn        1 29K      0.147000
     59 H27        -1.7660    0.1290   -3.0810 DU        1 29K      0.222000
     60 H28        -1.0210    0.0120   -5.8200 ha        1 29K      0.147750
     61 H29         0.8530   -0.2020   -7.2390 ha        1 29K      0.133750
     62 H30         3.0360   -0.2860   -6.3040 ha        1 29K      0.133750
     63 H31         3.3310   -0.1560   -3.9600 ha        1 29K      0.147750
@<TRIPOS>BOND
     1    1   17 1   
     2    1   18 1   
     3    2   19 1   
     4    3    5 1   
     5    4   21 1   
     6    4   34 1   
     7    5   35 1   
     8    6   24 1   
     9    6   25 1   
    10    6   36 1   
    11    6   37 1   
    12    7   25 1   
    13    7   26 1   
    14    7   38 1   
    15    7   39 1   
    16    8   29 1   
    17    9   10 1   
    18   11   12 1   
    19   11   40 1   
    20   12   13 1   
    21   12   17 1   
    22   12   41 1   
    23   13   14 1   
    24   13   42 1   
    25   13   43 1   
    26   14   15 1   
    27   14   16 1   
    28   14   44 1   
    29   15   45 1   
    30   15   46 1   
    31   15   47 1   
    32   16   48 1   
    33   16   49 1   
    34   16   50 1   
    35   17   20 1   
    36   22   23 1   
    37   22   51 1   
    38   23   52 1   
    39   25   53 1   
    40   25   54 1   
    41   26   27 1   
    42   26   55 1   
    43   26   56 1   
    44   27   57 1   
    45   27   58 1   
    46   29   60 1   
    47   30   31 1   
    48   30   61 1   
    49   31   62 1   
    50   32   33 1   
    51   32   63 1   
@<TRIPOS>SUBSTRUCTURE
     1 29K         1 TEMP              0 ****  ****    0 ROOT
