@<TRIPOS>MOLECULE
29K
   64    66     1     0     0
SMALL
bcc


@<TRIPOS>ATOM
      1 C10        -0.7290   -0.5090    0.6980 ca        1 29K     -0.034000
      2 C13        -3.4360    0.0600    1.1970 ca        1 29K     -0.169000
      3 C15        -3.4640   -0.7830    3.3720 cp        1 29K     -0.014000
      4 C17        -5.8090   -0.3290    3.9850 ca        1 29K     -0.075000
      5 C20        -3.2180   -1.3350    4.6170 ca        1 29K     -0.082000
      6 C24        -6.7420   -2.5440   -0.2380 cx        1 29K     -0.152500
      7 C28        -2.4860    1.1300   -2.1630 c2        1 29K      0.000000
      8 C02         0.6940   -0.9060    0.4370 c2        1 29K      0.336000
      9 N03         1.7080   -0.1070    0.9040 n         1 29K     -0.393000
     10 C04         1.5450    1.1100    1.6580 c3        1 29K     -0.084000
     11 C05         1.7350    2.4190    1.0550 c1        1 29K     -0.063000
     12 C06         2.0690    2.6480   -0.3340 c3        1 29K     -0.216000
     13 C07         1.1160    4.9620   -0.5050 c3        1 29K     -0.214000
     14 C08         2.3490    4.1080   -0.6440 c3        1 29K     -0.141000
     15 C09        -1.2930   -0.8470    1.9570 ca        1 29K     -0.087000
     16 C11        -1.4990    0.0920   -0.2730 ca        1 29K     -0.017000
     17 C12        -2.9050    0.3890   -0.0340 ca        1 29K      0.098000
     18 C14        -2.6160   -0.5710    2.2020 cq        1 29K     -0.004000
     19 C16        -4.7700   -0.2810    3.0690 ca        1 29K     -0.115000
     20 C18        -5.5320   -0.8920    5.2410 ca        1 29K     -0.111000
     21 C19        -4.2660   -1.3840    5.5490 ca        1 29K     -0.084000
     22 N21        -4.8120    0.2880    1.6930 n4        1 29K      0.157000
     23 C23        -5.9680   -1.5440    0.5100 cu        1 29K     -0.101000
     24 C25        -5.5110   -2.9390    0.5410 cx        1 29K     -0.152500
     25 N26        -9.3660   -2.8320   -2.1890 n3        1 29K     -0.411000
     26 N27        -3.4790    1.0770   -1.1140 na        1 29K     -0.220000
     27 C29        -2.6850    1.6560   -3.3790 c2        1 29K     -0.201000
     28 C30         2.2200    1.1750   -2.7490 c1        1 29K      0.012000
     29 C31         1.0810    0.3670   -2.8770 c2        1 29K     -0.118000
     30 C32        -0.0800    0.4870   -2.2880 c1        1 29K     -0.175000
     31 C33        -1.2090    0.5540   -1.6420 c2        1 29K      0.009000
     32 H1         -6.8150    0.0520    3.7550 ha        1 29K      0.162000
     33 H2         -2.2210   -1.7270    4.8730 ha        1 29K      0.167000
     34 H3         -6.5860    0.4960    0.5070 hx        1 29K      0.188000
     35 H4         -4.9650    1.3040    1.7660 hn        1 29K      0.260000
     36 H5         -7.7470   -2.8330    0.1310 hc        1 29K      0.152250
     37 H6         -6.7160   -2.5300   -1.3460 hc        1 29K      0.152250
     38 H7          2.6360   -0.3720    0.6490 hn        1 29K      0.245000
     39 H8         -0.6650   -1.3370    2.7180 ha        1 29K      0.171000
     40 H9          2.2850    1.0850    2.5250 h1        1 29K      0.146500
     41 H10         0.5110    1.1310    2.1250 h1        1 29K      0.146500
     42 H11         2.9600    2.0230   -0.6470 hc        1 29K      0.122500
     43 H12         0.6930    4.8620    0.5250 hc        1 29K      0.078000
     44 H13         1.1920    2.2950   -0.9610 hc        1 29K      0.122500
     45 H14         1.3670    6.0350   -0.6850 hc        1 29K      0.078000
     46 H15         0.3330    4.6550   -1.2400 hc        1 29K      0.078000
     47 H16         3.1450    4.4840    0.0510 hc        1 29K      0.086500
     48 H17         2.7500    4.1830   -1.6890 hc        1 29K      0.086500
     49 H18        -6.3380   -0.9410    5.9910 ha        1 29K      0.167000
     50 H19        -4.0790   -1.8220    6.5440 ha        1 29K      0.166000
     51 H20        -5.8950   -4.8030    3.3230 ha        1 29K      0.001000
     52 H21        -5.8270   -5.3640    2.9490 ha        1 29K      0.001000
     53 H22        -5.6220   -3.5220    1.4780 hc        1 29K      0.152250
     54 H23        -4.5860   -3.2150   -0.0020 hc        1 29K      0.152250
     55 H24        -9.0400   -3.2940   -3.0130 hn        1 29K      0.137000
     56 H25        -9.9460   -3.4640   -1.6770 hn        1 29K      0.137000
     57 H27        -4.4060    0.8290   -1.3860 hn        1 29K      0.220000
     58 H28        -3.6470    2.0650   -3.7110 ha        1 29K      0.142000
     59 H29        -1.8640    1.7020   -4.1070 ha        1 29K      0.142000
     60 H30         2.4100    2.0570   -3.3690 ha        1 29K      0.118000
     61 H31         1.3010   -0.5650   -3.4630 ha        1 29K      0.219000
     62 C22        -5.8620   -0.2720    0.8430 c2        1 29K     -0.173000
     63 O01         0.9480   -1.9630   -0.1740 o         1 29K     -0.340000
     64 H263       -9.9160   -2.0430   -2.4620 hn        1 29K      0.137000
@<TRIPOS>BOND
     1    1    8 1   
     2    1   15 1   
     3    1   16 1   
     4    2   17 1   
     5    2   18 1   
     6    2   22 1   
     7    3    5 1   
     8    3   18 1   
     9    3   19 1   
    10    4   19 1   
    11    4   20 1   
    12    4   32 1   
    13    5   21 1   
    14    5   33 1   
    15    6   23 1   
    16    6   24 1   
    17    6   36 1   
    18    6   37 1   
    19    7   26 1   
    20    7   27 1   
    21    7   31 1   
    22    8    9 1   
    23    8   63 1   
    24    9   10 1   
    25    9   38 1   
    26   10   11 1   
    27   10   40 1   
    28   10   41 1   
    29   11   12 1   
    30   12   14 1   
    31   12   42 1   
    32   12   44 1   
    33   13   14 1   
    34   13   43 1   
    35   13   45 1   
    36   13   46 1   
    37   14   47 1   
    38   14   48 1   
    39   15   18 1   
    40   15   39 1   
    41   16   17 1   
    42   16   31 1   
    43   17   26 1   
    44   19   22 1   
    45   20   21 1   
    46   20   49 1   
    47   21   50 1   
    48   22   35 1   
    49   22   62 1   
    50   23   24 1   
    51   23   62 1   
    52   24   53 1   
    53   24   54 1   
    54   25   55 1   
    55   25   56 1   
    56   25   64 1   
    57   26   57 1   
    58   27   58 1   
    59   27   59 1   
    60   28   29 1   
    61   28   60 1   
    62   29   30 1   
    63   29   61 1   
    64   30   31 1   
    65   34   62 1   
    66   51   52 1   
@<TRIPOS>SUBSTRUCTURE
     1 29K         1 TEMP              0 ****  ****    0 ROOT
