@<TRIPOS>MOLECULE
29L
   43    46     1     0     0
SMALL
bcc


@<TRIPOS>ATOM
      1 C1          0.1290    0.2780    0.0510 ca        1 29L     -0.130000
      2 C2          1.5280    0.2350    0.0650 ca        1 29L     -0.081000
      3 C3          2.1760    0.0280    1.2720 ca        1 29L     -0.135900
      4 C4          1.4360   -0.1380    2.4700 ca        1 29L     -0.071300
      5 C5          0.0550   -0.0970    2.4530 ca        1 29L     -0.124000
      6 C6         -0.6130    0.1150    1.2280 ca        1 29L      0.011000
      7 C7         -2.0540    0.1280    1.2040 cc        1 29L     -0.192300
      8 C8         -2.8930   -0.6970    1.9780 cd        1 29L     -0.132300
      9 N9         -4.2080   -0.3940    1.6130 na        1 29L      0.098400
     10 N10        -4.2620    0.5720    0.6880 nd        1 29L     -0.499800
     11 C11        -2.9700    0.9240    0.3980 cc        1 29L      0.364800
     12 C12        -2.6390    1.9660   -0.5630 ca        1 29L     -0.079500
     13 C13        -1.5900    2.8630   -0.3140 ca        1 29L     -0.225800
     14 C14        -1.3230    3.8650   -1.2620 ca        1 29L      0.386200
     15 N15        -2.0200    4.0170   -2.4050 nb        1 29L     -0.662000
     16 C16        -3.0250    3.1500   -2.6310 ca        1 29L      0.386200
     17 C17        -3.3760    2.1130   -1.7470 ca        1 29L     -0.225800
     18 C18        -5.3820   -1.0060    2.2040 c3        1 29L      0.050300
     19 C19        -6.2760   -0.0090    2.9590 c3        1 29L      0.114400
     20 O20        -7.2660   -0.8060    3.5900 oh        1 29L     -0.604800
     21 C21         2.3450   -0.3450    3.6380 c3        1 29L     -0.037100
     22 C22         3.7660   -0.2960    3.0590 c3        1 29L     -0.141700
     23 C23         3.6180   -0.0590    1.5680 ce        1 29L      0.410900
     24 N24         4.5450    0.0560    0.6560 n2        1 29L     -0.442200
     25 O25         5.7870   -0.0450    1.0790 oh        1 29L     -0.355500
     26 H1         -0.4000    0.4460   -0.9010 ha        1 29L      0.145000
     27 H2          2.0960    0.3630   -0.8680 ha        1 29L      0.151000
     28 H3         -0.5250   -0.2230    3.3790 ha        1 29L      0.135000
     29 H4         -2.6490   -1.4600    2.7160 h4        1 29L      0.182000
     30 H5         -0.9850    2.7800    0.6000 ha        1 29L      0.154500
     31 H6         -0.5050    4.5890   -1.0990 h4        1 29L      0.022600
     32 H7         -3.5830    3.2950   -3.5740 h4        1 29L      0.022600
     33 H8         -4.2110    1.4400   -1.9840 ha        1 29L      0.154500
     34 H9         -5.0340   -1.8040    2.9190 h1        1 29L      0.078700
     35 H10        -5.9930   -1.4940    1.3920 h1        1 29L      0.078700
     36 H11        -5.6930    0.5550    3.7350 h1        1 29L      0.044200
     37 H12        -6.7470    0.7190    2.2470 h1        1 29L      0.044200
     38 H13        -7.9220   -0.1960    3.9460 ho        1 29L      0.412000
     39 H14         2.1460   -1.3310    4.1270 hc        1 29L      0.059200
     40 H15         2.1960    0.4560    4.4040 hc        1 29L      0.059200
     41 H16         4.3620    0.5310    3.5190 hc        1 29L      0.068700
     42 H17         4.3110   -1.2560    3.2400 hc        1 29L      0.068700
     43 H18         6.3280    0.0660    0.2710 ho        1 29L      0.438000
@<TRIPOS>BOND
     1    1    2 ar  
     2    1    6 ar  
     3    1   26 1   
     4    2    3 ar  
     5    2   27 1   
     6    3    4 ar  
     7    3   23 1   
     8    4    5 ar  
     9    4   21 1   
    10    5    6 ar  
    11    5   28 1   
    12    6    7 1   
    13    7    8 2   
    14    7   11 1   
    15    8    9 1   
    16    8   29 1   
    17    9   10 1   
    18    9   18 1   
    19   10   11 2   
    20   11   12 1   
    21   12   13 ar  
    22   12   17 ar  
    23   13   14 ar  
    24   13   30 1   
    25   14   15 ar  
    26   14   31 1   
    27   15   16 ar  
    28   16   17 ar  
    29   16   32 1   
    30   17   33 1   
    31   18   19 1   
    32   18   34 1   
    33   18   35 1   
    34   19   20 1   
    35   19   36 1   
    36   19   37 1   
    37   20   38 1   
    38   21   22 1   
    39   21   39 1   
    40   21   40 1   
    41   22   23 1   
    42   22   41 1   
    43   22   42 1   
    44   23   24 2   
    45   24   25 1   
    46   25   43 1   
@<TRIPOS>SUBSTRUCTURE
     1 29L         1 TEMP              0 ****  ****    0 ROOT
