@<TRIPOS>MOLECULE
29L
   43    46     1     0     0
SMALL
bcc


@<TRIPOS>ATOM
      1 C1          0.1280    0.2780    0.0510 ca        1 29L     -0.130000
      2 C2          1.5270    0.2340    0.0680 ca        1 29L     -0.081000
      3 C3          2.1730    0.0270    1.2760 ca        1 29L     -0.135900
      4 C4          1.4310   -0.1390    2.4730 ca        1 29L     -0.071300
      5 C5          0.0500   -0.0970    2.4530 ca        1 29L     -0.124000
      6 C6         -0.6160    0.1150    1.2270 ca        1 29L      0.011000
      7 C7         -2.0570    0.1290    1.2010 cc        1 29L     -0.192300
      8 C8         -2.8970   -0.6970    1.9730 cd        1 29L     -0.132300
      9 N9         -4.2120   -0.3930    1.6060 na        1 29L      0.098400
     10 N10        -4.2630    0.5730    0.6810 nd        1 29L     -0.499800
     11 C11        -2.9720    0.9250    0.3930 cc        1 29L      0.364800
     12 C12        -2.6390    1.9670   -0.5660 ca        1 29L     -0.079500
     13 C13        -1.5890    2.8630   -0.3160 ca        1 29L     -0.225800
     14 C14        -1.3200    3.8650   -1.2640 ca        1 29L      0.386200
     15 N15        -2.0160    4.0190   -2.4070 nb        1 29L     -0.662000
     16 C16        -3.0220    3.1520   -2.6340 ca        1 29L      0.386200
     17 C17        -3.3740    2.1150   -1.7520 ca        1 29L     -0.225800
     18 C18        -5.3870   -1.0050    2.1950 c3        1 29L      0.050300
     19 C19        -6.2820   -0.0080    2.9480 c3        1 29L      0.114400
     20 O20        -7.2730   -0.8050    3.5780 oh        1 29L     -0.604800
     21 C21         2.3370   -0.3460    3.6420 c3        1 29L     -0.037100
     22 C22         3.7600   -0.2980    3.0650 c3        1 29L     -0.141700
     23 C23         3.6140   -0.0610    1.5740 ce        1 29L      0.410900
     24 N24         4.5430    0.0540    0.6640 n2        1 29L     -0.442200
     25 O25         5.7840   -0.0480    1.0880 oh        1 29L     -0.355500
     26 H1         -0.3990    0.4460   -0.9010 ha        1 29L      0.145000
     27 H2          2.0970    0.3620   -0.8650 ha        1 29L      0.151000
     28 H3         -0.5310   -0.2230    3.3780 ha        1 29L      0.135000
     29 H4         -2.6550   -1.4600    2.7110 h4        1 29L      0.182000
     30 H5         -0.9860    2.7790    0.5990 ha        1 29L      0.154500
     31 H6         -0.5020    4.5890   -1.0980 h4        1 29L      0.022600
     32 H7         -3.5780    3.2980   -3.5780 h4        1 29L      0.022600
     33 H8         -4.2090    1.4430   -1.9900 ha        1 29L      0.154500
     34 H9         -5.9970   -1.4920    1.3810 h1        1 29L      0.078700
     35 H10        -5.0400   -1.8030    2.9100 h1        1 29L      0.078700
     36 H11        -5.7000    0.5550    3.7260 h1        1 29L      0.044200
     37 H12        -6.7520    0.7200    2.2360 h1        1 29L      0.044200
     38 H13        -7.9300   -0.1960    3.9340 ho        1 29L      0.412000
     39 H14         2.1880    0.4550    4.4080 hc        1 29L      0.059200
     40 H15         2.1370   -1.3330    4.1310 hc        1 29L      0.059200
     41 H16         4.3040   -1.2580    3.2480 hc        1 29L      0.068700
     42 H17         4.3560    0.5290    3.5260 hc        1 29L      0.068700
     43 H18         6.3260    0.0630    0.2810 ho        1 29L      0.438000
@<TRIPOS>BOND
     1    1    2 ar  
     2    1    6 ar  
     3    1   26 1   
     4    2    3 ar  
     5    2   27 1   
     6    3    4 ar  
     7    3   23 1   
     8    4    5 ar  
     9    4   21 1   
    10    5    6 ar  
    11    5   28 1   
    12    6    7 1   
    13    7    8 2   
    14    7   11 1   
    15    8    9 1   
    16    8   29 1   
    17    9   10 1   
    18    9   18 1   
    19   10   11 2   
    20   11   12 1   
    21   12   13 ar  
    22   12   17 ar  
    23   13   14 ar  
    24   13   30 1   
    25   14   15 ar  
    26   14   31 1   
    27   15   16 ar  
    28   16   17 ar  
    29   16   32 1   
    30   17   33 1   
    31   18   19 1   
    32   18   34 1   
    33   18   35 1   
    34   19   20 1   
    35   19   36 1   
    36   19   37 1   
    37   20   38 1   
    38   21   22 1   
    39   21   39 1   
    40   21   40 1   
    41   22   23 1   
    42   22   41 1   
    43   22   42 1   
    44   23   24 2   
    45   24   25 1   
    46   25   43 1   
@<TRIPOS>SUBSTRUCTURE
     1 29L         1 TEMP              0 ****  ****    0 ROOT
