@<TRIPOS>MOLECULE
29L
   43    46     1     0     0
SMALL
bcc


@<TRIPOS>ATOM
      1 C1          0.1250    0.2760    0.0480 ca        1 29L     -0.130000
      2 C2          1.5230    0.2320    0.0600 ca        1 29L     -0.081000
      3 C3          2.1730    0.0250    1.2660 ca        1 29L     -0.135900
      4 C4          1.4350   -0.1390    2.4660 ca        1 29L     -0.071300
      5 C5          0.0530   -0.0970    2.4500 ca        1 29L     -0.124000
      6 C6         -0.6160    0.1140    1.2260 ca        1 29L      0.011000
      7 C7         -2.0570    0.1280    1.2040 cc        1 29L     -0.192300
      8 C8         -2.8960   -0.6960    1.9780 cd        1 29L     -0.132300
      9 N9         -4.2110   -0.3930    1.6150 na        1 29L      0.098400
     10 N10        -4.2650    0.5740    0.6900 nd        1 29L     -0.499800
     11 C11        -2.9740    0.9250    0.3990 cc        1 29L      0.364800
     12 C12        -2.6430    1.9660   -0.5620 ca        1 29L     -0.079500
     13 C13        -1.5920    2.8620   -0.3150 ca        1 29L     -0.225800
     14 C14        -1.3250    3.8640   -1.2640 ca        1 29L      0.386200
     15 N15        -2.0250    4.0170   -2.4050 nb        1 29L     -0.662000
     16 C16        -3.0310    3.1510   -2.6290 ca        1 29L      0.386200
     17 C17        -3.3820    2.1150   -1.7450 ca        1 29L     -0.225800
     18 C18        -5.3850   -1.0040    2.2080 c3        1 29L      0.050300
     19 C19        -6.2780   -0.0050    2.9630 c3        1 29L      0.114400
     20 O20        -7.2670   -0.8020    3.5950 oh        1 29L     -0.604800
     21 C21         2.3440   -0.3450    3.6320 c3        1 29L     -0.037100
     22 C22         3.7650   -0.2970    3.0520 c3        1 29L     -0.141700
     23 C23         3.6150   -0.0620    1.5610 ce        1 29L      0.410900
     24 N24         4.5410    0.0520    0.6470 n2        1 29L     -0.442200
     25 O25         5.7840   -0.0500    1.0690 oh        1 29L     -0.355500
     26 H1         -0.4050    0.4420   -0.9030 ha        1 29L      0.145000
     27 H2          2.0910    0.3580   -0.8740 ha        1 29L      0.151000
     28 H3         -0.5250   -0.2210    3.3770 ha        1 29L      0.135000
     29 H4         -2.6510   -1.4600    2.7160 h4        1 29L      0.182000
     30 H5         -0.9860    2.7780    0.5980 ha        1 29L      0.154500
     31 H6         -0.5060    4.5870   -1.1010 h4        1 29L      0.022600
     32 H7         -3.5900    3.2970   -3.5710 h4        1 29L      0.022600
     33 H8         -4.2180    1.4430   -1.9810 ha        1 29L      0.154500
     34 H9         -5.0370   -1.8010    2.9230 h1        1 29L      0.078700
     35 H10        -5.9970   -1.4910    1.3970 h1        1 29L      0.078700
     36 H11        -5.6940    0.5580    3.7380 h1        1 29L      0.044200
     37 H12        -6.7490    0.7220    2.2510 h1        1 29L      0.044200
     38 H13        -7.9230   -0.1920    3.9530 ho        1 29L      0.412000
     39 H14         2.1980    0.4570    4.3980 hc        1 29L      0.059200
     40 H15         2.1460   -1.3310    4.1230 hc        1 29L      0.059200
     41 H16         4.3620    0.5300    3.5100 hc        1 29L      0.068700
     42 H17         4.3100   -1.2570    3.2330 hc        1 29L      0.068700
     43 H18         6.3230    0.0600    0.2600 ho        1 29L      0.438000
@<TRIPOS>BOND
     1    1    2 ar  
     2    1    6 ar  
     3    1   26 1   
     4    2    3 ar  
     5    2   27 1   
     6    3    4 ar  
     7    3   23 1   
     8    4    5 ar  
     9    4   21 1   
    10    5    6 ar  
    11    5   28 1   
    12    6    7 1   
    13    7    8 2   
    14    7   11 1   
    15    8    9 1   
    16    8   29 1   
    17    9   10 1   
    18    9   18 1   
    19   10   11 2   
    20   11   12 1   
    21   12   13 ar  
    22   12   17 ar  
    23   13   14 ar  
    24   13   30 1   
    25   14   15 ar  
    26   14   31 1   
    27   15   16 ar  
    28   16   17 ar  
    29   16   32 1   
    30   17   33 1   
    31   18   19 1   
    32   18   34 1   
    33   18   35 1   
    34   19   20 1   
    35   19   36 1   
    36   19   37 1   
    37   20   38 1   
    38   21   22 1   
    39   21   39 1   
    40   21   40 1   
    41   22   23 1   
    42   22   41 1   
    43   22   42 1   
    44   23   24 2   
    45   24   25 1   
    46   25   43 1   
@<TRIPOS>SUBSTRUCTURE
     1 29L         1 TEMP              0 ****  ****    0 ROOT
