@<TRIPOS>MOLECULE
29M
   69    72     1     0     0
SMALL
bcc


@<TRIPOS>ATOM
      1 C          -0.0620    0.0230   -0.1830 ca        1 29M     -0.048300
      2 F          -5.4180   -1.5360    5.3220 f         1 29M     -0.113900
      3 N           2.0780   -0.0310    3.4000 na        1 29M     -0.159400
      4 O          -1.3700    0.9180    5.9990 os        1 29M     -0.399900
      5 S           4.3770    1.3310   -0.2960 s6        1 29M      1.470900
      6 C1          1.3340    0.1930   -0.2770 ca        1 29M     -0.128000
      7 N1          0.6080   -1.3270    6.4620 nx        1 29M     -0.682400
      8 O1          3.8760    1.1590   -1.5940 o         1 29M     -0.639300
      9 C2          2.1600    0.2260    0.8550 ca        1 29M      0.148600
     10 N2          3.5470    0.4090    0.7820 nu        1 29M     -0.785500
     11 O2          5.7400    1.0700   -0.0690 o         1 29M     -0.639300
     12 C3          1.5200    0.0550    2.1140 ca        1 29M     -0.068200
     13 C4          1.0070   -0.1590    4.3130 cc        1 29M     -0.151300
     14 C5         -0.2060   -0.2910    3.6220 cd        1 29M     -0.014400
     15 C6          0.1020   -0.1460    2.2060 ca        1 29M     -0.078800
     16 C7         -0.6810   -0.1510    1.0500 ca        1 29M     -0.102000
     17 C8         -1.5260   -0.6000    4.1250 ca        1 29M     -0.092800
     18 C9         -2.2870   -1.5730    3.4470 ca        1 29M     -0.078000
     19 C10        -3.5790   -1.8940    3.8350 ca        1 29M     -0.166000
     20 C11        -4.1600   -1.2340    4.9370 ca        1 29M      0.167900
     21 C12        -3.4260   -0.2670    5.6420 ca        1 29M     -0.208000
     22 C13        -2.1230    0.0380    5.2310 ca        1 29M      0.104100
     23 C14        -1.8530    2.2670    5.9840 c3        1 29M      0.120700
     24 C15         1.2510   -0.1530    5.7790 c3        1 29M      0.190000
     25 C16         1.3320   -2.5850    6.1620 c3        1 29M      0.084100
     26 C17         0.5140   -1.0830    7.9460 c3        1 29M      0.176100
     27 C18        -0.3580   -2.0850    8.6230 ca        1 29M     -0.176300
     28 C19         0.1990   -3.0490    9.4690 ca        1 29M     -0.107000
     29 C20        -0.6310   -3.9450   10.1420 ca        1 29M     -0.119000
     30 C21        -2.0150   -3.8830    9.9680 ca        1 29M     -0.084000
     31 C22        -2.5720   -2.9220    9.1210 ca        1 29M     -0.119000
     32 C23        -1.7470   -2.0220    8.4500 ca        1 29M     -0.107000
     33 C24         4.0310    2.9120    0.2050 c3        1 29M     -0.375300
     34 C25        -0.8870    0.0190   -1.4360 c3        1 29M     -0.027400
     35 C26        -0.7690    1.3420   -2.1690 c3        1 29M     -0.093600
     36 C27        -0.4900   -1.1300   -2.3440 c3        1 29M     -0.093600
     37 H1          2.9180    0.4340    3.6420 hn        1 29M      0.292700
     38 H2          1.7780    0.3070   -1.2860 ha        1 29M      0.188000
     39 H4          4.0570   -0.1760    1.4060 hn        1 29M      0.452800
     40 H5         -1.7710   -0.2850    1.1230 ha        1 29M      0.149000
     41 H6         -1.8400   -2.0860    2.5770 ha        1 29M      0.163000
     42 H7         -4.1610   -2.6520    3.2870 ha        1 29M      0.173000
     43 H8         -3.8770    0.2550    6.5000 ha        1 29M      0.169000
     44 H9         -2.8960    2.3100    6.3800 h1        1 29M      0.057033
     45 H10        -1.8090    2.6780    4.9470 h1        1 29M      0.057033
     46 H11        -1.1450    2.8070    6.6620 h1        1 29M      0.057033
     47 H12         0.7960    0.7900    6.2130 hx        1 29M      0.110200
     48 H13         2.3500   -0.1730    6.0280 hx        1 29M      0.110200
     49 H14         0.8090   -3.4390    6.6720 hx        1 29M      0.101700
     50 H15         2.3850   -2.5140    6.5420 hx        1 29M      0.101700
     51 H16         1.3440   -2.7470    5.0510 hx        1 29M      0.101700
     52 H17         0.0750   -0.0490    8.0820 hx        1 29M      0.103200
     53 H18         1.5590   -1.1010    8.3640 hx        1 29M      0.103200
     54 H19         1.2890   -3.0960    9.6180 ha        1 29M      0.139500
     55 H20        -0.1930   -4.6980   10.8150 ha        1 29M      0.157000
     56 H21        -2.6690   -4.5910   10.5030 ha        1 29M      0.159000
     57 H22        -3.6640   -2.8720    8.9890 ha        1 29M      0.157000
     58 H23        -2.1890   -1.2530    7.7940 ha        1 29M      0.139500
     59 H24         2.9420    3.1340    0.3170 h1        1 29M      0.122367
     60 H25         4.4120    3.6490   -0.5510 h1        1 29M      0.122367
     61 H26         4.5190    3.1880    1.1710 h1        1 29M      0.122367
     62 H27        -1.9690   -0.1240   -1.1490 hc        1 29M      0.053700
     63 H28         0.2800    1.5170   -2.5070 hc        1 29M      0.044700
     64 H29        -1.4330    1.3350   -3.0670 hc        1 29M      0.044700
     65 H30        -1.0770    2.1850   -1.5060 hc        1 29M      0.044700
     66 H31        -0.5930   -2.1050   -1.8110 hc        1 29M      0.044700
     67 H32        -1.1510   -1.1440   -3.2450 hc        1 29M      0.044700
     68 H33         0.5680   -1.0200   -2.6850 hc        1 29M      0.044700
     69 H111       -0.3580   -1.4110    6.1000 hn        1 29M      0.465800
@<TRIPOS>BOND
     1    1    6 ar  
     2    1   16 ar  
     3    1   34 1   
     4    2   20 1   
     5    3   12 1   
     6    3   13 1   
     7    3   37 1   
     8    4   22 1   
     9    4   23 1   
    10    5    8 2   
    11    5   10 1   
    12    5   11 2   
    13    5   33 1   
    14    6    9 ar  
    15    6   38 1   
    16    7   24 1   
    17    7   25 1   
    18    7   26 1   
    19    7   69 1   
    20    9   10 1   
    21    9   12 ar  
    22   10   39 1   
    23   12   15 ar  
    24   13   14 2   
    25   13   24 1   
    26   14   15 1   
    27   14   17 1   
    28   15   16 ar  
    29   16   40 1   
    30   17   18 ar  
    31   17   22 ar  
    32   18   19 ar  
    33   18   41 1   
    34   19   20 ar  
    35   19   42 1   
    36   20   21 ar  
    37   21   22 ar  
    38   21   43 1   
    39   23   44 1   
    40   23   45 1   
    41   23   46 1   
    42   24   47 1   
    43   24   48 1   
    44   25   49 1   
    45   25   50 1   
    46   25   51 1   
    47   26   27 1   
    48   26   52 1   
    49   26   53 1   
    50   27   28 ar  
    51   27   32 ar  
    52   28   29 ar  
    53   28   54 1   
    54   29   30 ar  
    55   29   55 1   
    56   30   31 ar  
    57   30   56 1   
    58   31   32 ar  
    59   31   57 1   
    60   32   58 1   
    61   33   59 1   
    62   33   60 1   
    63   33   61 1   
    64   34   35 1   
    65   34   36 1   
    66   34   62 1   
    67   35   63 1   
    68   35   64 1   
    69   35   65 1   
    70   36   66 1   
    71   36   67 1   
    72   36   68 1   
@<TRIPOS>SUBSTRUCTURE
     1 29M         1 TEMP              0 ****  ****    0 ROOT
