@<TRIPOS>MOLECULE
29M
   69    72     1     0     0
SMALL
bcc


@<TRIPOS>ATOM
      1 C          -0.0800    0.0370   -0.1880 ca        1 29M     -0.048300
      2 F          -5.4120   -1.5210    5.3400 f         1 29M     -0.113900
      3 N           2.0790   -0.0370    3.3830 na        1 29M     -0.159400
      4 O          -1.3510    0.9160    6.0040 os        1 29M     -0.399900
      5 S           4.3640    1.3280   -0.3210 s6        1 29M      1.470900
      6 C1          1.3170    0.2020   -0.2890 ca        1 29M     -0.128000
      7 N1          0.6210   -1.3370    6.4480 n4        1 29M     -0.682400
      8 O1          3.8550    1.1630   -1.6170 o         1 29M     -0.639300
      9 C2          2.1490    0.2290    0.8390 ca        1 29M      0.148600
     10 N2          3.5360    0.4060    0.7580 nh        1 29M     -0.785500
     11 O2          5.7270    1.0610   -0.1020 o         1 29M     -0.639300
     12 C3          1.5150    0.0560    2.1000 ca        1 29M     -0.068200
     13 C4          1.0130   -0.1640    4.3010 cc        1 29M     -0.151300
     14 C5         -0.2040   -0.2890    3.6160 cd        1 29M     -0.014400
     15 C6          0.0960   -0.1410    2.1990 ca        1 29M     -0.078800
     16 C7         -0.6930   -0.1390    1.0480 ca        1 29M     -0.102000
     17 C8         -1.5230   -0.5950    4.1250 ca        1 29M     -0.092800
     18 C9         -2.2910   -1.5620    3.4480 ca        1 29M     -0.078000
     19 C10        -3.5820   -1.8800    3.8410 ca        1 29M     -0.166000
     20 C11        -4.1540   -1.2220    4.9490 ca        1 29M      0.167900
     21 C12        -3.4130   -0.2600    5.6540 ca        1 29M     -0.208000
     22 C13        -2.1110    0.0410    5.2370 ca        1 29M      0.104100
     23 C14        -1.8300    2.2670    5.9970 c3        1 29M      0.120700
     24 C15         1.2640   -0.1640    5.7650 c3        1 29M      0.190000
     25 C16         1.3390   -2.5970    6.1410 c3        1 29M      0.084100
     26 C17         0.5340   -1.0970    7.9330 c3        1 29M      0.176100
     27 C18        -0.3370   -2.0990    8.6110 ca        1 29M     -0.176300
     28 C19         0.2220   -3.0670    9.4530 ca        1 29M     -0.107000
     29 C20        -0.6070   -3.9620   10.1270 ca        1 29M     -0.119000
     30 C21        -1.9910   -3.8970    9.9590 ca        1 29M     -0.084000
     31 C22        -2.5500   -2.9330    9.1170 ca        1 29M     -0.119000
     32 C23        -1.7260   -2.0330    8.4450 ca        1 29M     -0.107000
     33 C24         4.0270    2.9090    0.1870 c3        1 29M     -0.375300
     34 C25        -0.9110    0.0410   -1.4370 c3        1 29M     -0.027400
     35 C26        -0.7920    1.3650   -2.1670 c3        1 29M     -0.093600
     36 C27        -0.5240   -1.1070   -2.3510 c3        1 29M     -0.093600
     37 H1          2.9220    0.4250    3.6220 hn        1 29M      0.292700
     38 H2          1.7550    0.3180   -1.3010 ha        1 29M      0.188000
     39 H4          4.0470   -0.1830    1.3780 hn        1 29M      0.452800
     40 H5         -1.7830   -0.2680    1.1250 ha        1 29M      0.149000
     41 H6         -1.8500   -2.0740    2.5740 ha        1 29M      0.163000
     42 H7         -4.1700   -2.6340    3.2940 ha        1 29M      0.173000
     43 H8         -3.8580    0.2610    6.5150 ha        1 29M      0.169000
     44 H9         -1.1170    2.8020    6.6730 h1        1 29M      0.057033
     45 H10        -2.8700    2.3120    6.3990 h1        1 29M      0.057033
     46 H11        -1.7890    2.6820    4.9610 h1        1 29M      0.057033
     47 H12         2.3650   -0.1880    6.0080 hx        1 29M      0.110200
     48 H13         0.8150    0.7790    6.2050 hx        1 29M      0.110200
     49 H14         2.3950   -2.5310    6.5160 hx        1 29M      0.101700
     50 H15         0.8160   -3.4500    6.6500 hx        1 29M      0.101700
     51 H16         1.3460   -2.7550    5.0290 hx        1 29M      0.101700
     52 H17         0.0990   -0.0630    8.0750 hx        1 29M      0.103200
     53 H18         1.5820   -1.1190    8.3470 hx        1 29M      0.103200
     54 H19         1.3130   -3.1160    9.5970 ha        1 29M      0.139500
     55 H20        -0.1670   -4.7190   10.7970 ha        1 29M      0.157000
     56 H21        -2.6440   -4.6050   10.4950 ha        1 29M      0.159000
     57 H22        -3.6420   -2.8800    8.9900 ha        1 29M      0.157000
     58 H23        -2.1690   -1.2610    7.7930 ha        1 29M      0.139500
     59 H24         2.9390    3.1360    0.3050 h1        1 29M      0.122367
     60 H25         4.4070    3.6470   -0.5690 h1        1 29M      0.122367
     61 H26         4.5210    3.1800    1.1520 h1        1 29M      0.122367
     62 H27        -1.9930   -0.0980   -1.1440 hc        1 29M      0.053700
     63 H28        -1.4610    1.3630   -3.0620 hc        1 29M      0.044700
     64 H29        -1.0920    2.2080   -1.5000 hc        1 29M      0.044700
     65 H30         0.2560    1.5370   -2.5100 hc        1 29M      0.044700
     66 H31        -1.1900   -1.1150   -3.2480 hc        1 29M      0.044700
     67 H32        -0.6290   -2.0830   -1.8200 hc        1 29M      0.044700
     68 H33         0.5320   -1.0010   -2.6970 hc        1 29M      0.044700
     69 H111       -0.3470   -1.4170    6.0900 hn        1 29M      0.465800
@<TRIPOS>BOND
     1    1    6 ar  
     2    1   16 ar  
     3    1   34 1   
     4    2   20 1   
     5    3   12 1   
     6    3   13 1   
     7    3   37 1   
     8    4   22 1   
     9    4   23 1   
    10    5    8 2   
    11    5   10 1   
    12    5   11 2   
    13    5   33 1   
    14    6    9 ar  
    15    6   38 1   
    16    7   24 1   
    17    7   25 1   
    18    7   26 1   
    19    7   69 1   
    20    9   10 1   
    21    9   12 ar  
    22   10   39 1   
    23   12   15 ar  
    24   13   14 2   
    25   13   24 1   
    26   14   15 1   
    27   14   17 1   
    28   15   16 ar  
    29   16   40 1   
    30   17   18 ar  
    31   17   22 ar  
    32   18   19 ar  
    33   18   41 1   
    34   19   20 ar  
    35   19   42 1   
    36   20   21 ar  
    37   21   22 ar  
    38   21   43 1   
    39   23   44 1   
    40   23   45 1   
    41   23   46 1   
    42   24   47 1   
    43   24   48 1   
    44   25   49 1   
    45   25   50 1   
    46   25   51 1   
    47   26   27 1   
    48   26   52 1   
    49   26   53 1   
    50   27   28 ar  
    51   27   32 ar  
    52   28   29 ar  
    53   28   54 1   
    54   29   30 ar  
    55   29   55 1   
    56   30   31 ar  
    57   30   56 1   
    58   31   32 ar  
    59   31   57 1   
    60   32   58 1   
    61   33   59 1   
    62   33   60 1   
    63   33   61 1   
    64   34   35 1   
    65   34   36 1   
    66   34   62 1   
    67   35   63 1   
    68   35   64 1   
    69   35   65 1   
    70   36   66 1   
    71   36   67 1   
    72   36   68 1   
@<TRIPOS>SUBSTRUCTURE
     1 29M         1 TEMP              0 ****  ****    0 ROOT
