@<TRIPOS>MOLECULE
29N
   39    39     1     0     0
SMALL
bcc


@<TRIPOS>ATOM
      1 N1          0.0900    0.4550   -0.2240 n         1 29N     -0.488800
      2 C2          1.5520    0.4770   -0.1610 c3        1 29N      0.201400
      3 N3          2.1120    0.4380    1.1950 n         1 29N     -0.488800
      4 C4          1.4770    1.4160    2.0790 c3        1 29N      0.201400
      5 N5          0.0090    1.4100    2.0530 n         1 29N     -0.488800
      6 C6         -0.5140    1.4350    0.6860 c3        1 29N      0.201400
      7 C7         -0.6040   -0.7480   -0.4590 c         1 29N      0.652100
      8 C8          0.0810   -1.8460   -1.2440 c3        1 29N     -0.156400
      9 O9         -1.7860   -0.8520   -0.0760 o         1 29N     -0.603100
     10 C10        -0.6700    0.7170    3.0740 c         1 29N      0.652100
     11 C11        -2.1700    0.5430    2.9670 c3        1 29N     -0.156400
     12 O12        -0.0310    0.3260    4.0700 o         1 29N     -0.603100
     13 C13         2.5580   -0.8020    1.6930 c         1 29N      0.652100
     14 C14         2.9670   -0.9020    3.1470 c3        1 29N     -0.156400
     15 O15         2.6700   -1.7660    0.9100 o         1 29N     -0.603100
     16 C16        -0.8860   -2.9450   -1.6040 c3        1 29N     -0.086100
     17 C19        -2.7500    0.0010    4.2480 c3        1 29N     -0.086100
     18 C25         3.6390   -2.2200    3.4360 c3        1 29N     -0.086100
     19 H1          1.9900   -0.3660   -0.7700 h2        1 29N      0.088700
     20 H2          1.8760    1.4660   -0.6110 h2        1 29N      0.088700
     21 H3          1.7980    2.4380    1.7090 h2        1 29N      0.088700
     22 H4          1.8310    1.2820    3.1430 h2        1 29N      0.088700
     23 H5         -0.2640    2.4570    0.2660 h2        1 29N      0.088700
     24 H6         -1.6360    1.3020    0.6870 h2        1 29N      0.088700
     25 H7          0.5290   -1.4140   -2.1780 hc        1 29N      0.082700
     26 H8          0.9190   -2.2610   -0.6160 hc        1 29N      0.082700
     27 H9         -2.3850   -0.1660    2.1180 hc        1 29N      0.082700
     28 H10        -2.6440    1.5300    2.7230 hc        1 29N      0.082700
     29 H11         3.6630   -0.0580    3.3980 hc        1 29N      0.082700
     30 H12         2.0440   -0.7930    3.7830 hc        1 29N      0.082700
     31 H13        -0.3500   -3.7500   -2.1630 hc        1 29N      0.046367
     32 H14        -1.3400   -3.3840   -0.6820 hc        1 29N      0.046367
     33 H15        -1.7130   -2.5500   -2.2410 hc        1 29N      0.046367
     34 H16        -2.5570    0.7020    5.0950 hc        1 29N      0.046367
     35 H17        -2.2850   -0.9830    4.5030 hc        1 29N      0.046367
     36 H18        -3.8520   -0.1380    4.1340 hc        1 29N      0.046367
     37 H19         4.5650   -2.3330    2.8230 hc        1 29N      0.046367
     38 H20         3.9100   -2.2750    4.5180 hc        1 29N      0.046367
     39 H21         2.9570   -3.0700    3.1890 hc        1 29N      0.046367
@<TRIPOS>BOND
     1    1    2 1   
     2    1    6 1   
     3    1    7 1   
     4    2    3 1   
     5    2   19 1   
     6    2   20 1   
     7    3    4 1   
     8    3   13 1   
     9    4    5 1   
    10    4   21 1   
    11    4   22 1   
    12    5    6 1   
    13    5   10 1   
    14    6   23 1   
    15    6   24 1   
    16    7    8 1   
    17    7    9 2   
    18    8   16 1   
    19    8   25 1   
    20    8   26 1   
    21   10   11 1   
    22   10   12 2   
    23   11   17 1   
    24   11   27 1   
    25   11   28 1   
    26   13   14 1   
    27   13   15 2   
    28   14   18 1   
    29   14   29 1   
    30   14   30 1   
    31   16   31 1   
    32   16   32 1   
    33   16   33 1   
    34   17   34 1   
    35   17   35 1   
    36   17   36 1   
    37   18   37 1   
    38   18   38 1   
    39   18   39 1   
@<TRIPOS>SUBSTRUCTURE
     1 29N         1 TEMP              0 ****  ****    0 ROOT
