@<TRIPOS>MOLECULE
29N
   39    39     1     0     0
SMALL
bcc


@<TRIPOS>ATOM
      1 N1          0.0970    0.4550   -0.2250 n         1 29N     -0.488800
      2 C2          1.5580    0.4770   -0.1570 c3        1 29N      0.201400
      3 N3          2.1130    0.4380    1.2020 n         1 29N     -0.488800
      4 C4          1.4740    1.4170    2.0830 c3        1 29N      0.201400
      5 N5          0.0070    1.4110    2.0510 n         1 29N     -0.488800
      6 C6         -0.5110    1.4350    0.6820 c3        1 29N      0.201400
      7 C7         -0.5970   -0.7480   -0.4630 c         1 29N      0.652100
      8 C8          0.0910   -1.8470   -1.2450 c3        1 29N     -0.156400
      9 O9         -1.7800   -0.8520   -0.0840 o         1 29N     -0.603100
     10 C10        -0.6760    0.7180    3.0700 c         1 29N      0.652100
     11 C11        -2.1750    0.5430    2.9570 c3        1 29N     -0.156400
     12 O12        -0.0410    0.3270    4.0690 o         1 29N     -0.603100
     13 C13         2.5570   -0.8020    1.7010 c         1 29N      0.652100
     14 C14         2.9610   -0.9020    3.1570 c3        1 29N     -0.156400
     15 O15         2.6720   -1.7660    0.9190 o         1 29N     -0.603100
     16 C16        -0.8740   -2.9460   -1.6080 c3        1 29N     -0.086100
     17 C19        -2.7600    0.0010    4.2360 c3        1 29N     -0.086100
     18 C25         3.6310   -2.2200    3.4490 c3        1 29N     -0.086100
     19 H1          1.8840    1.4650   -0.6060 h2        1 29N      0.088700
     20 H2          1.9990   -0.3660   -0.7640 h2        1 29N      0.088700
     21 H3          1.8250    1.2830    3.1470 h2        1 29N      0.088700
     22 H4          1.7970    2.4380    1.7130 h2        1 29N      0.088700
     23 H5         -0.2590    2.4570    0.2630 h2        1 29N      0.088700
     24 H6         -1.6330    1.3020    0.6790 h2        1 29N      0.088700
     25 H7          0.5430   -1.4150   -2.1780 hc        1 29N      0.082700
     26 H8          0.9270   -2.2620   -0.6140 hc        1 29N      0.082700
     27 H9         -2.6490    1.5300    2.7110 hc        1 29N      0.082700
     28 H10        -2.3870   -0.1660    2.1070 hc        1 29N      0.082700
     29 H11         3.6560   -0.0580    3.4100 hc        1 29N      0.082700
     30 H12         2.0350   -0.7930    3.7890 hc        1 29N      0.082700
     31 H13        -1.3320   -3.3840   -0.6880 hc        1 29N      0.046367
     32 H14        -1.6990   -2.5500   -2.2480 hc        1 29N      0.046367
     33 H15        -0.3370   -3.7510   -2.1640 hc        1 29N      0.046367
     34 H16        -3.8610   -0.1380    4.1180 hc        1 29N      0.046367
     35 H17        -2.5710    0.7030    5.0840 hc        1 29N      0.046367
     36 H18        -2.2960   -0.9820    4.4930 hc        1 29N      0.046367
     37 H19         3.8980   -2.2750    4.5310 hc        1 29N      0.046367
     38 H20         2.9500   -3.0690    3.1990 hc        1 29N      0.046367
     39 H21         4.5600   -2.3330    2.8390 hc        1 29N      0.046367
@<TRIPOS>BOND
     1    1    2 1   
     2    1    6 1   
     3    1    7 1   
     4    2    3 1   
     5    2   19 1   
     6    2   20 1   
     7    3    4 1   
     8    3   13 1   
     9    4    5 1   
    10    4   21 1   
    11    4   22 1   
    12    5    6 1   
    13    5   10 1   
    14    6   23 1   
    15    6   24 1   
    16    7    8 1   
    17    7    9 2   
    18    8   16 1   
    19    8   25 1   
    20    8   26 1   
    21   10   11 1   
    22   10   12 2   
    23   11   17 1   
    24   11   27 1   
    25   11   28 1   
    26   13   14 1   
    27   13   15 2   
    28   14   18 1   
    29   14   29 1   
    30   14   30 1   
    31   16   31 1   
    32   16   32 1   
    33   16   33 1   
    34   17   34 1   
    35   17   35 1   
    36   17   36 1   
    37   18   37 1   
    38   18   38 1   
    39   18   39 1   
@<TRIPOS>SUBSTRUCTURE
     1 29N         1 TEMP              0 ****  ****    0 ROOT
