@<TRIPOS>MOLECULE
29N
   39    39     1     0     0
SMALL
bcc


@<TRIPOS>ATOM
      1 N1          0.1170    0.4620   -0.2240 n         1 29N     -0.488800
      2 C2          1.5780    0.4890   -0.1360 c3        1 29N      0.201400
      3 N3          2.1140    0.4440    1.2290 n         1 29N     -0.488800
      4 C4          1.4620    1.4170    2.1070 c3        1 29N      0.201400
      5 N5         -0.0050    1.4070    2.0550 n         1 29N     -0.488800
      6 C6         -0.5050    1.4370    0.6800 c3        1 29N      0.201400
      7 C7         -0.5700   -0.7410   -0.4770 c         1 29N      0.652100
      8 C8          0.1320   -1.8340   -1.2560 c3        1 29N     -0.156400
      9 O9         -1.7570   -0.8500   -0.1150 o         1 29N     -0.603100
     10 C10        -0.7000    0.7070    3.0610 c         1 29N      0.652100
     11 C11        -2.1970    0.5290    2.9280 c3        1 29N     -0.156400
     12 O12        -0.0770    0.3120    4.0660 o         1 29N     -0.603100
     13 C13         2.5550   -0.7970    1.7290 c         1 29N      0.652100
     14 C14         2.9390   -0.9030    3.1890 c3        1 29N     -0.156400
     15 O15         2.6830   -1.7570    0.9430 o         1 29N     -0.603100
     16 C16        -0.8250   -2.9330   -1.6370 c3        1 29N     -0.086100
     17 C19        -2.7970   -0.0210    4.1960 c3        1 29N     -0.086100
     18 C25         3.6090   -2.2210    3.4830 c3        1 29N     -0.086100
     19 H1          2.0290   -0.3510   -0.7420 h2        1 29N      0.088700
     20 H2          1.9070    1.4800   -0.5760 h2        1 29N      0.088700
     21 H3          1.7980    1.2780    3.1750 h2        1 29N      0.088700
     22 H4          1.7860    2.4410    1.7470 h2        1 29N      0.088700
     23 H5         -1.6260    1.3010    0.6610 h2        1 29N      0.088700
     24 H6         -0.2500    2.4610    0.2690 h2        1 29N      0.088700
     25 H7          0.9600   -2.2500   -0.6150 hc        1 29N      0.082700
     26 H8          0.5950   -1.3960   -2.1800 hc        1 29N      0.082700
     27 H9         -2.6700    1.5160    2.6800 hc        1 29N      0.082700
     28 H10        -2.3950   -0.1760    2.0710 hc        1 29N      0.082700
     29 H11         3.6290   -0.0590    3.4560 hc        1 29N      0.082700
     30 H12         2.0050   -0.8000    3.8100 hc        1 29N      0.082700
     31 H13        -1.6430   -2.5370   -2.2870 hc        1 29N      0.046367
     32 H14        -0.2780   -3.7340   -2.1900 hc        1 29N      0.046367
     33 H15        -1.2950   -3.3780   -0.7260 hc        1 29N      0.046367
     34 H16        -2.3340   -1.0040    4.4550 hc        1 29N      0.046367
     35 H17        -3.8970   -0.1620    4.0620 hc        1 29N      0.046367
     36 H18        -2.6220    0.6770    5.0500 hc        1 29N      0.046367
     37 H19         2.9340   -3.0710    3.2200 hc        1 29N      0.046367
     38 H20         3.8620   -2.2810    4.5690 hc        1 29N      0.046367
     39 H21         4.5460   -2.3290    2.8860 hc        1 29N      0.046367
@<TRIPOS>BOND
     1    1    2 1   
     2    1    6 1   
     3    1    7 1   
     4    2    3 1   
     5    2   19 1   
     6    2   20 1   
     7    3    4 1   
     8    3   13 1   
     9    4    5 1   
    10    4   21 1   
    11    4   22 1   
    12    5    6 1   
    13    5   10 1   
    14    6   23 1   
    15    6   24 1   
    16    7    8 1   
    17    7    9 2   
    18    8   16 1   
    19    8   25 1   
    20    8   26 1   
    21   10   11 1   
    22   10   12 2   
    23   11   17 1   
    24   11   27 1   
    25   11   28 1   
    26   13   14 1   
    27   13   15 2   
    28   14   18 1   
    29   14   29 1   
    30   14   30 1   
    31   16   31 1   
    32   16   32 1   
    33   16   33 1   
    34   17   34 1   
    35   17   35 1   
    36   17   36 1   
    37   18   37 1   
    38   18   38 1   
    39   18   39 1   
@<TRIPOS>SUBSTRUCTURE
     1 29N         1 TEMP              0 ****  ****    0 ROOT
