@<TRIPOS>MOLECULE
29O
   33    33     1     0     0
SMALL
bcc


@<TRIPOS>ATOM
      1 C1          0.6970   -0.3550   -0.2440 c2        1 29O      0.076000
      2 C2          2.0710   -0.3430   -0.3630 c2        1 29O     -0.205000
      3 C3          2.6470   -0.2520    0.9970 c2        1 29O      0.082000
      4 C4          1.6150   -0.1990    1.9200 c2        1 29O     -0.301000
      5 C5         -0.9110   -0.2620    1.7180 c2        1 29O      0.031000
      6 C6          0.3410   -0.2690    1.2040 c2        1 29O     -0.113000
      7 N1         -0.2590   -0.4380   -1.2460 n         1 29O     -0.300000
      8 N2         -1.1960   -0.1740    3.0730 n         1 29O     -0.313000
      9 C7         -2.4990   -0.2150    3.5610 c2        1 29O      0.311000
     10 C8          0.0220   -0.4520   -2.6060 c2        1 29O      0.311000
     11 C9         -1.1600   -0.5670   -3.5480 c3        1 29O     -0.268000
     12 O1          1.1790   -0.4130   -3.0580 o         1 29O     -0.323000
     13 O2         -3.4770   -0.3000    2.7990 o         1 29O     -0.326000
     14 C10        -2.6870   -0.1020    5.0570 c3        1 29O     -0.267000
     15 N3          4.0100   -0.3010    1.2260 nh        1 29O     -0.278000
     16 C11         4.5200    0.1610    2.5060 c3        1 29O      0.076000
     17 O3          4.1690    1.5140    2.8220 oh        1 29O     -0.357000
     18 C12         5.9970   -0.0140    2.5800 c1        1 29O     -0.081000
     19 H1          2.6580   -0.3980   -1.2790 ha        1 29O      0.181000
     20 H2         -1.8170   -0.3200    1.0790 h4        1 29O      0.166000
     21 H3          1.6990   -0.1440    3.0010 ha        1 29O      0.132000
     22 H4         -1.2120   -0.4230   -0.9610 hn        1 29O      0.241000
     23 H5         -0.4360   -0.1550    3.7170 hn        1 29O      0.245000
     24 H6         -0.7780   -0.4960   -4.5960 h1        1 29O      0.148000
     25 H7         -1.6670   -1.5510   -3.4070 h1        1 29O      0.148000
     26 H9         -2.3510    0.9030    5.4090 h1        1 29O      0.150000
     27 H10        -3.7750   -0.2270    5.2830 h1        1 29O      0.150000
     28 H12         4.5880   -0.0970    0.4390 hn        1 29O      0.227000
     29 H13         3.2110    1.6160    2.7410 ho        1 29O      0.223000
     30 H14         4.0760   -0.5280    3.3040 h2        1 29O      0.128000
     31 BR1        -2.4820    0.8040   -3.3270 br        1 29O     -0.001000
     32 BR2        -1.7360   -1.4210    6.0720 br        1 29O      0.007000
     33 BR3         7.0770    0.8010    3.7870 br        1 29O      0.100000
@<TRIPOS>BOND
     1    1    2 1   
     2    1    6 1   
     3    1    7 1   
     4    2    3 1   
     5    2   19 1   
     6    3    4 1   
     7    3   15 1   
     8    4    6 1   
     9    4   21 1   
    10    5    6 1   
    11    5    8 1   
    12    5   20 1   
    13    7   10 1   
    14    7   22 1   
    15    8    9 1   
    16    8   23 1   
    17    9   13 1   
    18    9   14 1   
    19   10   11 1   
    20   10   12 1   
    21   11   24 1   
    22   11   25 1   
    23   11   31 1   
    24   14   26 1   
    25   14   27 1   
    26   14   32 1   
    27   15   16 1   
    28   15   28 1   
    29   16   17 1   
    30   16   18 1   
    31   16   30 1   
    32   17   29 1   
    33   18   33 1   
@<TRIPOS>SUBSTRUCTURE
     1 29O         1 TEMP              0 ****  ****    0 ROOT
