@<TRIPOS>MOLECULE
29O
   33    32     1     0     0
SMALL
bcc


@<TRIPOS>ATOM
      1 C1          0.0420   -0.4480   -0.1610 c2        1 29O     -0.031000
      2 C2          1.3750   -0.2600    0.1290 c2        1 29O     -0.081000
      3 C3          1.8240   -0.1180    1.5090 c2        1 29O      0.024000
      4 C4          0.9280   -0.2060    2.5370 c2        1 29O     -0.177000
      5 C5         -0.5060   -0.5360    2.2650 c3        1 29O     -0.003000
      6 C6         -0.9530   -0.4290    0.8720 c1        1 29O     -0.114000
      7 N1         -0.4720   -0.6040   -1.4620 ns        1 29O     -0.292000
      8 N2         -1.4140    0.0790    3.2150 ns        1 29O     -0.321000
      9 C7         -2.1660   -0.7080    4.0690 c2        1 29O      0.304000
     10 C8          0.2290   -0.4860   -2.6460 c2        1 29O      0.308000
     11 C9         -0.5650   -0.6500   -3.9290 c3        1 29O     -0.265000
     12 O1          1.4610   -0.3080   -2.7030 o         1 29O     -0.359000
     13 O2         -1.9520   -1.9300    4.1950 o         1 29O     -0.355000
     14 C10        -3.1910   -0.0190    4.9440 c3        1 29O     -0.259000
     15 N3          3.1990    0.1130    1.6940 ns        1 29O     -0.338000
     16 C11         3.8560    0.3760    2.8820 c2        1 29O      0.243000
     17 O3          3.3030    0.4340    3.9910 o         1 29O     -0.361000
     18 C12         7.0770    0.8060    2.2960 c1        1 29O     -0.149000
     19 H1          2.1320   -0.1870   -0.6750 ha        1 29O      0.177000
     20 H2          1.2260   -0.0980    3.5930 ha        1 29O      0.190000
     21 H3         -0.5710   -1.6890    2.4140 h1        1 29O      0.208000
     22 H4         -1.4690   -0.6700   -1.5000 hn        1 29O      0.260000
     23 H5         -1.7710    0.9680    2.9460 hn        1 29O      0.238000
     24 H6          0.1430   -0.5690   -4.7890 h1        1 29O      0.145000
     25 H7         -1.0660   -1.6460   -3.9540 h1        1 29O      0.145000
     26 H9         -3.7070   -0.7960    5.5590 h1        1 29O      0.146000
     27 H10        -2.6860    0.7120    5.6190 h1        1 29O      0.146000
     28 H12         3.7500    0.1100    0.8630 hn        1 29O      0.236000
     29 H13         7.6780    1.0270    3.1870 ha        1 29O      0.080000
     30 H14         4.9610    0.5320    2.7370 h5        1 29O      0.179000
     31 Br1        -1.9180    0.6860   -4.1740 br        1 29O      0.002000
     32 Br2        -4.5430    0.9300    3.9710 br        1 29O     -0.005000
     33 Br3         7.9680    0.7130    0.7340 br        1 29O      0.082000
@<TRIPOS>BOND
     1    1    2 1   
     2    1    6 1   
     3    1    7 1   
     4    2    3 1   
     5    2   19 1   
     6    3    4 1   
     7    3   15 1   
     8    4    5 1   
     9    4   20 1   
    10    5    6 1   
    11    5    8 1   
    12    5   21 1   
    13    7   10 1   
    14    7   22 1   
    15    8    9 1   
    16    8   23 1   
    17    9   13 1   
    18    9   14 1   
    19   10   11 1   
    20   10   12 1   
    21   11   24 1   
    22   11   25 1   
    23   11   31 1   
    24   14   26 1   
    25   14   27 1   
    26   14   32 1   
    27   15   16 1   
    28   15   28 1   
    29   16   17 1   
    30   16   30 1   
    31   18   29 1   
    32   18   33 1   
@<TRIPOS>SUBSTRUCTURE
     1 29O         1 TEMP              0 ****  ****    0 ROOT
