@<TRIPOS>MOLECULE
29O
   36    35     1     0     0
SMALL
bcc


@<TRIPOS>ATOM
      1 C1       -323.1560 -124.1630 -123.4910 c2        1 29O     -0.197000
      2 C2       -324.2740 -124.0820 -124.3010 c2        1 29O      0.080000
      3 C3       -324.2320 -123.2870 -125.5310 c2        1 29O      0.119000
      4 C4       -323.0580 -122.6390 -125.8760 c2        1 29O     -0.289000
      5 C5       -321.8230 -122.8340 -125.0790 c3        1 29O     -0.060000
      6 C6       -321.9800 -123.4270 -123.7470 c1        1 29O     -0.102000
      7 N1       -323.1610 -124.9180 -122.2320 n4        1 29O     -0.061000
      8 N2       -320.9500 -121.6110 -125.0010 n4        1 29O     -0.100000
      9 C7       -319.9120 -121.5060 -126.1140 c2        1 29O      0.269000
     10 C8       -323.4380 -126.4120 -122.4170 c2        1 29O      0.280000
     11 C9       -322.5400 -127.3360 -121.6640 c3        1 29O     -0.307000
     12 O1       -324.3790 -126.6900 -123.1380 o         1 29O     -0.153000
     13 O2       -319.6750 -122.5290 -126.7320 o         1 29O     -0.140000
     14 C10      -319.2860 -120.1620 -126.2870 c3        1 29O     -0.312000
     15 N3       -325.3690 -123.1830 -126.2780 n3        1 29O     -0.346000
     16 C11      1615.7030  617.0390  629.1500 c2        1 29O      0.155000
     17 O3       1614.6360  617.5910  628.9580 o         1 29O     -0.096000
     18 C12      1615.8570  615.8600  630.0560 c2        1 29O     -0.018000
     19 H1       -325.2270 -124.5900 -124.0370 ha        1 29O      0.202000
     20 H2       -322.9860 -122.0550 -126.8080 ha        1 29O      0.187000
     21 H3       -321.2140 -123.6590 -125.6350 hx        1 29O      0.249000
     22 H4       -323.8820 -124.5290 -121.6080 hn        1 29O      0.278000
     23 H5       -320.4500 -121.6410 -124.0960 hn        1 29O      0.278500
     24 H6       -322.6500 -127.1840 -120.5580 h1        1 29O      0.203000
     25 H7       -322.8540 -128.3930 -121.8990 h1        1 29O      0.203000
     26 H9       -318.6010 -119.9400 -125.4260 h1        1 29O      0.204000
     27 H10      -318.6600 -120.1880 -127.2240 h1        1 29O      0.204000
     28 H12      -326.1720 -123.7260 -126.0610 hn        1 29O      0.266000
     29 H13      1615.8650  614.8730  629.5310 h4        1 29O      0.241000
     30 H14      1616.6760  617.3140  628.6670 h4        1 29O      0.213000
     31 BR1      -320.6950 -127.1500 -122.1240 br        1 29O      0.111000
     32 BR2      -320.5370 -118.7270 -126.4540 br        1 29O      0.110000
     33 BR3      1616.0930  615.9190  631.7930 br        1 29O      0.505000
     34 H121     -322.2340 -124.7830 -121.7870 hn        1 29O      0.278000
     35 H22      -321.5470 -120.7720 -125.0200 hn        1 29O      0.278500
     36 H32      -325.3540 -122.6820 -127.1360 hn        1 29O      0.266000
@<TRIPOS>BOND
     1    1    2 1   
     2    1    6 1   
     3    1    7 1   
     4    2    3 1   
     5    2   19 1   
     6    3    4 1   
     7    3   15 1   
     8    4    5 1   
     9    4   20 1   
    10    5    6 1   
    11    5    8 1   
    12    5   21 1   
    13    7   10 1   
    14    7   22 1   
    15    7   34 1   
    16    8    9 1   
    17    8   23 1   
    18    8   35 1   
    19    9   13 1   
    20    9   14 1   
    21   10   11 1   
    22   10   12 1   
    23   11   24 1   
    24   11   25 1   
    25   11   31 1   
    26   14   26 1   
    27   14   27 1   
    28   14   32 1   
    29   15   28 1   
    30   15   36 1   
    31   16   17 1   
    32   16   18 1   
    33   16   30 1   
    34   18   29 1   
    35   18   33 1   
@<TRIPOS>SUBSTRUCTURE
     1 29O         1 TEMP              0 ****  ****    0 ROOT
