@<TRIPOS>MOLECULE
29P
   51    52     1     0     0
SMALL
bcc


@<TRIPOS>ATOM
      1 O4A         1.0360    1.7520    0.7630 o         1 29P     -0.883800
      2 C9A         2.2050    1.3340    0.5100 c         1 29P      0.902600
      3 O3A         3.1110    1.3150    1.4060 o         1 29P     -0.883800
      4 C8A         2.5850    0.8470   -0.8900 c3        1 29P     -0.172400
      5 C7A         1.4130    0.7100   -1.8420 c3        1 29P      0.011900
      6 C3A         1.8040    0.2860   -3.2010 cc        1 29P     -0.149300
      7 C2A         2.3960    1.1270   -4.2210 cc        1 29P     -0.100300
      8 C5A         2.7380    2.5450   -4.0150 c3        1 29P     -0.108100
      9 C6A         2.9000    3.4550   -5.2390 c         1 29P      0.908600
     10 O1A         1.8910    4.0580   -5.7160 o         1 29P     -0.883300
     11 O2A         4.0670    3.6630   -5.7040 o         1 29P     -0.883300
     12 C1A         2.6070    0.3110   -5.3520 cd        1 29P     -0.125600
     13 CHA         3.1830    0.6570   -6.6640 c3        1 29P     -0.032800
     14 NA          2.1650   -0.9790   -5.0590 na        1 29P     -0.174100
     15 C4A         1.6600   -1.0060   -3.7590 cd        1 29P     -0.149600
     16 CHB         1.1590   -2.2610   -3.1450 c3        1 29P     -0.002100
     17 C1B         0.1110   -2.9950   -3.9980 c3        1 29P      0.079900
     18 C2B         0.2430   -4.5270   -3.9750 c2        1 29P     -0.034400
     19 C5B         1.4640   -5.1820   -4.4570 c3        1 29P     -0.163200
     20 C6B         1.8370   -4.8990   -5.9290 c         1 29P      0.923600
     21 O1B         1.7740   -3.7190   -6.3850 o         1 29P     -0.857300
     22 O2B         2.2510   -5.8780   -6.6160 o         1 29P     -0.857300
     23 NB         -1.2810   -2.7530   -3.5920 ns        1 29P     -0.550900
     24 C4B        -1.8780   -3.9730   -3.2070 c         1 29P      0.678700
     25 O5B        -3.0280   -4.0390   -2.7320 o         1 29P     -0.679500
     26 C3B        -0.9230   -5.0840   -3.5390 ce        1 29P     -0.213400
     27 C7B        -1.3150   -6.5050   -3.4370 c3        1 29P      0.002800
     28 C8B        -1.6820   -6.9500   -2.0370 c3        1 29P     -0.178400
     29 C9B        -2.1830   -8.3960   -1.9760 c         1 29P      0.904600
     30 O3B        -1.9000   -9.0840   -0.9440 o         1 29P     -0.881300
     31 O4B        -2.8880   -8.8730   -2.9170 o         1 29P     -0.881300
     32 H2          3.3240    1.5750   -1.3160 hc        1 29P      0.026700
     33 H3          3.1080   -0.1380   -0.7860 hc        1 29P      0.026700
     34 H4          0.6780   -0.0180   -1.4050 hc        1 29P      0.036200
     35 H5          0.8870    1.7030   -1.8970 hc        1 29P      0.036200
     36 H6          3.7050    2.5850   -3.4410 hc        1 29P      0.034200
     37 H7          1.9430    3.0050   -3.3650 hc        1 29P      0.034200
     38 H9          3.9310   -0.1070   -6.9930 hc        1 29P      0.040033
     39 H10         2.3800    0.7130   -7.4420 hc        1 29P      0.040033
     40 H11         3.6870    1.6570   -6.5970 hc        1 29P      0.040033
     41 H12         2.1640   -1.7580   -5.6790 hn        1 29P      0.329700
     42 H13         0.7520   -2.0190   -2.1270 hc        1 29P      0.052700
     43 H14         2.0300   -2.9570   -2.9940 hc        1 29P      0.052700
     44 H15         0.2110   -2.6930   -5.0860 h1        1 29P      0.124700
     45 H16         2.3390   -4.8360   -3.8420 hc        1 29P      0.047200
     46 H17         1.3790   -6.2940   -4.3330 hc        1 29P      0.047200
     47 H19        -1.4840   -1.9210   -3.0960 hn        1 29P      0.299500
     48 H20        -0.4810   -7.1520   -3.8210 hc        1 29P      0.048700
     49 H21        -2.2040   -6.6860   -4.1030 hc        1 29P      0.048700
     50 H22        -0.7990   -6.8460   -1.3570 hc        1 29P      0.032700
     51 H23        -2.4980   -6.2900   -1.6430 hc        1 29P      0.032700
@<TRIPOS>BOND
     1    1    2 1   
     2    2    3 1   
     3    2    4 1   
     4    4    5 1   
     5    4   32 1   
     6    4   33 1   
     7    5    6 1   
     8    5   34 1   
     9    5   35 1   
    10    6    7 1   
    11    6   15 2   
    12    7    8 1   
    13    7   12 2   
    14    8    9 1   
    15    8   36 1   
    16    8   37 1   
    17    9   10 1   
    18    9   11 1   
    19   12   13 1   
    20   12   14 1   
    21   13   38 1   
    22   13   39 1   
    23   13   40 1   
    24   14   15 1   
    25   14   41 1   
    26   15   16 1   
    27   16   17 1   
    28   16   42 1   
    29   16   43 1   
    30   17   18 1   
    31   17   23 1   
    32   17   44 1   
    33   18   19 1   
    34   18   26 2   
    35   19   20 1   
    36   19   45 1   
    37   19   46 1   
    38   20   21 1   
    39   20   22 1   
    40   23   24 1   
    41   23   47 1   
    42   24   25 2   
    43   24   26 1   
    44   26   27 1   
    45   27   28 1   
    46   27   48 1   
    47   27   49 1   
    48   28   29 1   
    49   28   50 1   
    50   28   51 1   
    51   29   30 1   
    52   29   31 1   
@<TRIPOS>SUBSTRUCTURE
     1 29P         1 TEMP              0 ****  ****    0 ROOT
