@<TRIPOS>MOLECULE
29P
   51    52     1     0     0
SMALL
bcc


@<TRIPOS>ATOM
      1 O4A         0.9460    1.7760    0.7420 o         1 29P     -0.883800
      2 C9A         2.1200    1.3590    0.5130 c         1 29P      0.902600
      3 O3A         3.0090    1.3460    1.4260 o         1 29P     -0.883800
      4 C8A         2.5270    0.8650   -0.8770 c3        1 29P     -0.172400
      5 C7A         1.3740    0.7210   -1.8510 c3        1 29P      0.011900
      6 C3A         1.7900    0.2900   -3.2000 cc        1 29P     -0.149300
      7 C2A         2.3980    1.1290   -4.2130 cc        1 29P     -0.100300
      8 C5A         2.7310    2.5490   -4.0090 c3        1 29P     -0.108100
      9 C6A         2.9140    3.4520   -5.2350 c         1 29P      0.908600
     10 O1A         1.9130    4.0490   -5.7350 o         1 29P     -0.883300
     11 O2A         4.0900    3.6600   -5.6780 o         1 29P     -0.883300
     12 C1A         2.6320    0.3060   -5.3360 cd        1 29P     -0.125600
     13 CHA         3.2310    0.6480   -6.6390 c3        1 29P     -0.032800
     14 NA          2.1890   -0.9840   -5.0440 na        1 29P     -0.174100
     15 C4A         1.6610   -1.0050   -3.7540 cd        1 29P     -0.149600
     16 CHB         1.1540   -2.2580   -3.1420 c3        1 29P     -0.002100
     17 C1B         0.1230   -3.0010   -4.0090 c3        1 29P      0.079900
     18 C2B         0.2600   -4.5320   -3.9760 c2        1 29P     -0.034400
     19 C5B         1.4920   -5.1860   -4.4320 c3        1 29P     -0.163200
     20 C6B         1.8890   -4.9090   -5.8990 c         1 29P      0.923600
     21 O1B         1.8320   -3.7320   -6.3620 o         1 29P     -0.857300
     22 O2B         2.3180   -5.8900   -6.5730 o         1 29P     -0.857300
     23 NB         -1.2770   -2.7610   -3.6300 n         1 29P     -0.550900
     24 C4B        -1.8770   -3.9810   -3.2490 c         1 29P      0.678700
     25 O5B        -3.0340   -4.0490   -2.7950 o         1 29P     -0.679500
     26 C3B        -0.9120   -5.0910   -3.5580 ce        1 29P     -0.213400
     27 C7B        -1.3010   -6.5120   -3.4550 c3        1 29P      0.002800
     28 C8B        -1.6920   -6.9510   -2.0590 c3        1 29P     -0.178400
     29 C9B        -2.1890   -8.3990   -2.0010 c         1 29P      0.904600
     30 O3B        -1.9210   -9.0810   -0.9610 o         1 29P     -0.881300
     31 O4B        -2.8770   -8.8820   -2.9510 o         1 29P     -0.881300
     32 H2          3.2720    1.5920   -1.2930 hc        1 29P      0.026700
     33 H3          3.0500   -0.1180   -0.7590 hc        1 29P      0.026700
     34 H4          0.6320   -0.0070   -1.4240 hc        1 29P      0.036200
     35 H5          0.8460    1.7120   -1.9210 hc        1 29P      0.036200
     36 H6          1.9220    3.0090   -3.3770 hc        1 29P      0.034200
     37 H7          3.6870    2.5950   -3.4160 hc        1 29P      0.034200
     38 H9          3.7320    1.6490   -6.5680 hc        1 29P      0.040033
     39 H10         2.4420    0.6990   -7.4310 hc        1 29P      0.040033
     40 H11         3.9850   -0.1170   -6.9520 hc        1 29P      0.040033
     41 H12         2.2030   -1.7650   -5.6600 hn        1 29P      0.329700
     42 H13         0.7280   -2.0120   -2.1320 hc        1 29P      0.053200
     43 H14         2.0240   -2.9500   -2.9710 hc        1 29P      0.053200
     44 H15         0.2420   -2.7040   -5.0970 h1        1 29P      0.124700
     45 H16         2.3540   -4.8330   -3.8030 hc        1 29P      0.047200
     46 H17         1.4080   -6.2970   -4.3040 hc        1 29P      0.047200
     47 H19        -1.4910   -1.9270   -3.1420 hn        1 29P      0.299500
     48 H20        -0.4580   -7.1580   -3.8210 hc        1 29P      0.048700
     49 H21        -2.1780   -6.7000   -4.1360 hc        1 29P      0.048700
     50 H22        -0.8220   -6.8410   -1.3640 hc        1 29P      0.032700
     51 H23        -2.5170   -6.2920   -1.6840 hc        1 29P      0.032700
@<TRIPOS>BOND
     1    1    2 1   
     2    2    3 1   
     3    2    4 1   
     4    4    5 1   
     5    4   32 1   
     6    4   33 1   
     7    5    6 1   
     8    5   34 1   
     9    5   35 1   
    10    6    7 1   
    11    6   15 2   
    12    7    8 1   
    13    7   12 2   
    14    8    9 1   
    15    8   36 1   
    16    8   37 1   
    17    9   10 1   
    18    9   11 1   
    19   12   13 1   
    20   12   14 1   
    21   13   38 1   
    22   13   39 1   
    23   13   40 1   
    24   14   15 1   
    25   14   41 1   
    26   15   16 1   
    27   16   17 1   
    28   16   42 1   
    29   16   43 1   
    30   17   18 1   
    31   17   23 1   
    32   17   44 1   
    33   18   19 1   
    34   18   26 2   
    35   19   20 1   
    36   19   45 1   
    37   19   46 1   
    38   20   21 1   
    39   20   22 1   
    40   23   24 1   
    41   23   47 1   
    42   24   25 2   
    43   24   26 1   
    44   26   27 1   
    45   27   28 1   
    46   27   48 1   
    47   27   49 1   
    48   28   29 1   
    49   28   50 1   
    50   28   51 1   
    51   29   30 1   
    52   29   31 1   
@<TRIPOS>SUBSTRUCTURE
     1 29P         1 TEMP              0 ****  ****    0 ROOT
