@<TRIPOS>MOLECULE
29P
   51    52     1     0     0
SMALL
bcc


@<TRIPOS>ATOM
      1 O4A         0.9940    1.7530    0.7640 o         1 29P     -0.883800
      2 C9A         2.1660    1.3370    0.5220 c         1 29P      0.902600
      3 O3A         3.0630    1.3190    1.4260 o         1 29P     -0.883800
      4 C8A         2.5590    0.8500   -0.8750 c3        1 29P     -0.172400
      5 C7A         1.3970    0.7120   -1.8380 c3        1 29P      0.011900
      6 C3A         1.8010    0.2880   -3.1930 cc        1 29P     -0.149300
      7 C2A         2.4010    1.1320   -4.2070 cc        1 29P     -0.100300
      8 C5A         2.7380    2.5500   -3.9980 c3        1 29P     -0.108100
      9 C6A         2.9100    3.4600   -5.2200 c         1 29P      0.908600
     10 O1A         1.9050    4.0610   -5.7070 o         1 29P     -0.883300
     11 O2A         4.0820    3.6700   -5.6740 o         1 29P     -0.883300
     12 C1A         2.6240    0.3160   -5.3370 cd        1 29P     -0.125600
     13 CHA         3.2120    0.6630   -6.6430 c3        1 29P     -0.032800
     14 NA          2.1810   -0.9750   -5.0480 na        1 29P     -0.174100
     15 C4A         1.6650   -1.0040   -3.7530 cd        1 29P     -0.149600
     16 CHB         1.1600   -2.2590   -3.1440 c3        1 29P     -0.002100
     17 C1B         0.1210   -2.9950   -4.0060 c3        1 29P      0.079900
     18 C2B         0.2560   -4.5270   -3.9830 c2        1 29P     -0.034400
     19 C5B         1.4820   -5.1800   -4.4530 c3        1 29P     -0.163200
     20 C6B         1.8680   -4.8950   -5.9220 c         1 29P      0.923600
     21 O1B         1.8080   -3.7160   -6.3780 o         1 29P     -0.857300
     22 O2B         2.2900   -5.8730   -6.6060 o         1 29P     -0.857300
     23 NB         -1.2750   -2.7560   -3.6130 n         1 29P     -0.550900
     24 C4B        -1.8730   -3.9760   -3.2340 c         1 29P      0.678700
     25 O5B        -3.0270   -4.0450   -2.7700 o         1 29P     -0.679500
     26 C3B        -0.9130   -5.0860   -3.5580 ce        1 29P     -0.213400
     27 C7B        -1.3030   -6.5070   -3.4590 c3        1 29P      0.002800
     28 C8B        -1.6830   -6.9530   -2.0630 c3        1 29P     -0.178400
     29 C9B        -2.1820   -8.4010   -2.0070 c         1 29P      0.904600
     30 O3B        -1.9070   -9.0880   -0.9730 o         1 29P     -0.881300
     31 O4B        -2.8770   -8.8780   -2.9550 o         1 29P     -0.881300
     32 H2          3.0830   -0.1340   -0.7660 hc        1 29P      0.026700
     33 H3          3.3010    1.5800   -1.2930 hc        1 29P      0.026700
     34 H4          0.8690    1.7040   -1.8980 hc        1 29P      0.036200
     35 H5          0.6590   -0.0170   -1.4080 hc        1 29P      0.036200
     36 H6          3.7000    2.5920   -3.4140 hc        1 29P      0.034200
     37 H7          1.9370    3.0080   -3.3550 hc        1 29P      0.034200
     38 H9          2.4160    0.7180   -7.4280 hc        1 29P      0.040033
     39 H10         3.7130    1.6640   -6.5710 hc        1 29P      0.040033
     40 H11         3.9630   -0.1000   -6.9660 hc        1 29P      0.040033
     41 H12         2.1880   -1.7530   -5.6680 hn        1 29P      0.329700
     42 H13         2.0310   -2.9540   -2.9850 hc        1 29P      0.052700
     43 H14         0.7440   -2.0180   -2.1290 hc        1 29P      0.052700
     44 H15         0.2310   -2.6920   -5.0930 h1        1 29P      0.124700
     45 H16         1.3980   -6.2920   -4.3310 hc        1 29P      0.047200
     46 H17         2.3510   -4.8320   -3.8300 hc        1 29P      0.047200
     47 H19        -1.4840   -1.9240   -3.1190 hn        1 29P      0.299500
     48 H20        -0.4650   -7.1530   -3.8360 hc        1 29P      0.048700
     49 H21        -2.1860   -6.6900   -4.1340 hc        1 29P      0.048700
     50 H22        -2.5040   -6.2950   -1.6760 hc        1 29P      0.032700
     51 H23        -0.8070   -6.8480   -1.3740 hc        1 29P      0.032700
@<TRIPOS>BOND
     1    1    2 1   
     2    2    3 1   
     3    2    4 1   
     4    4    5 1   
     5    4   32 1   
     6    4   33 1   
     7    5    6 1   
     8    5   34 1   
     9    5   35 1   
    10    6    7 1   
    11    6   15 2   
    12    7    8 1   
    13    7   12 2   
    14    8    9 1   
    15    8   36 1   
    16    8   37 1   
    17    9   10 1   
    18    9   11 1   
    19   12   13 1   
    20   12   14 1   
    21   13   38 1   
    22   13   39 1   
    23   13   40 1   
    24   14   15 1   
    25   14   41 1   
    26   15   16 1   
    27   16   17 1   
    28   16   42 1   
    29   16   43 1   
    30   17   18 1   
    31   17   23 1   
    32   17   44 1   
    33   18   19 1   
    34   18   26 2   
    35   19   20 1   
    36   19   45 1   
    37   19   46 1   
    38   20   21 1   
    39   20   22 1   
    40   23   24 1   
    41   23   47 1   
    42   24   25 2   
    43   24   26 1   
    44   26   27 1   
    45   27   28 1   
    46   27   48 1   
    47   27   49 1   
    48   28   29 1   
    49   28   50 1   
    50   28   51 1   
    51   29   30 1   
    52   29   31 1   
@<TRIPOS>SUBSTRUCTURE
     1 29P         1 TEMP              0 ****  ****    0 ROOT
