@<TRIPOS>MOLECULE
29Q
   33    36     1     0     0
SMALL
bcc


@<TRIPOS>ATOM
      1 Cl          0.1230   -0.2130    0.3850 cl        1 29Q     -0.091400
      2 C13         1.8120   -0.1390    0.2180 ca        1 29Q      0.026400
      3 C12         2.5800    0.4910    1.2040 ca        1 29Q     -0.133000
      4 C11         3.9640    0.5500    1.0620 ca        1 29Q     -0.094000
      5 C14         2.4250   -0.7080   -0.9020 ca        1 29Q     -0.133000
      6 C15         3.8120   -0.6460   -1.0350 ca        1 29Q     -0.094000
      7 C10         4.5870   -0.0160   -0.0560 ca        1 29Q     -0.104300
      8 C           6.0950    0.0630   -0.1880 c3        1 29Q      0.516600
      9 O           6.4180   -0.3560   -1.5110 oh        1 29Q     -0.586800
     10 C5          6.6110    1.4970    0.0630 ca        1 29Q     -0.122300
     11 C6          6.4420    2.6360   -0.6970 ca        1 29Q     -0.092000
     12 C7          7.0400    3.8280   -0.2530 ca        1 29Q     -0.119000
     13 C8          7.7880    3.8620    0.9190 ca        1 29Q     -0.129000
     14 C9          7.9710    2.7060    1.6960 ca        1 29Q     -0.078000
     15 C4          7.3830    1.5350    1.2600 ca        1 29Q     -0.123900
     16 C1          7.3570    0.1820    1.8350 ce        1 29Q      0.588800
     17 N           6.8570   -0.7370    0.8070 nh        1 29Q     -0.768600
     18 C3          6.3920   -1.9090    1.5360 c3        1 29Q      0.155800
     19 C2          6.9930   -1.6990    2.9800 c3        1 29Q      0.076800
     20 N1          7.5090   -0.3230    3.0320 n2        1 29Q     -0.576900
     21 H1          2.0960    0.9400    2.0850 ha        1 29Q      0.150000
     22 H2          4.5700    1.0520    1.8330 ha        1 29Q      0.154500
     23 H3          1.8210   -1.2020   -1.6770 ha        1 29Q      0.150000
     24 H4          4.2990   -1.0920   -1.9170 ha        1 29Q      0.154500
     25 H5          7.3810   -0.3630   -1.5960 ho        1 29Q      0.426000
     26 H6          5.8560    2.6150   -1.6280 ha        1 29Q      0.152000
     27 H7          6.9110    4.7450   -0.8470 ha        1 29Q      0.138000
     28 H8          8.2480    4.8070    1.2480 ha        1 29Q      0.139000
     29 H9          8.5650    2.7360    2.6210 ha        1 29Q      0.155000
     30 H10         6.8190   -2.8250    1.0530 h1        1 29Q      0.060200
     31 H11         7.8230   -2.4270    3.1670 h1        1 29Q      0.070700
     32 H12         5.2750   -1.9920    1.5690 h1        1 29Q      0.060200
     33 H13         6.2090   -1.8230    3.7690 h1        1 29Q      0.070700
@<TRIPOS>BOND
     1    1    2 1   
     2    2    3 ar  
     3    2    5 ar  
     4    3    4 ar  
     5    3   21 1   
     6    4    7 ar  
     7    4   22 1   
     8    5    6 ar  
     9    5   23 1   
    10    6    7 ar  
    11    6   24 1   
    12    7    8 1   
    13    8    9 1   
    14    8   10 1   
    15    8   17 1   
    16    9   25 1   
    17   10   11 ar  
    18   10   15 ar  
    19   11   12 ar  
    20   11   26 1   
    21   12   13 ar  
    22   12   27 1   
    23   13   14 ar  
    24   13   28 1   
    25   14   15 ar  
    26   14   29 1   
    27   15   16 1   
    28   16   17 1   
    29   16   20 2   
    30   17   18 1   
    31   18   19 1   
    32   18   30 1   
    33   18   32 1   
    34   19   20 1   
    35   19   31 1   
    36   19   33 1   
@<TRIPOS>SUBSTRUCTURE
     1 29Q         1 TEMP              0 ****  ****    0 ROOT
