@<TRIPOS>MOLECULE
29Q
   33    36     1     0     0
SMALL
bcc


@<TRIPOS>ATOM
      1 CL          0.1240   -0.2250    0.3650 cl        1 29Q     -0.091400
      2 C13         1.8150   -0.1500    0.2070 ca        1 29Q      0.026400
      3 C12         2.5760    0.4930    1.1890 ca        1 29Q     -0.133000
      4 C11         3.9610    0.5520    1.0550 ca        1 29Q     -0.094000
      5 C14         2.4350   -0.7320   -0.9030 ca        1 29Q     -0.133000
      6 C15         3.8230   -0.6700   -1.0280 ca        1 29Q     -0.094000
      7 C10         4.5910   -0.0270   -0.0530 ca        1 29Q     -0.104300
      8 C           6.0990    0.0530   -0.1770 c3        1 29Q      0.516600
      9 O           6.4310   -0.3800   -1.4940 oh        1 29Q     -0.586800
     10 C5          6.6130    1.4890    0.0620 ca        1 29Q     -0.122300
     11 C6          6.4470    2.6200   -0.7110 ca        1 29Q     -0.092000
     12 C7          7.0420    3.8170   -0.2750 ca        1 29Q     -0.119000
     13 C8          7.7830    3.8650    0.9010 ca        1 29Q     -0.129000
     14 C9          7.9630    2.7160    1.6900 ca        1 29Q     -0.078000
     15 C4          7.3780    1.5400    1.2640 ca        1 29Q     -0.123900
     16 C1          7.3500    0.1930    1.8520 ce        1 29Q      0.588800
     17 N           6.8570   -0.7360    0.8300 nh        1 29Q     -0.768600
     18 C3          6.3890   -1.9020    1.5690 c3        1 29Q      0.155800
     19 C2          6.9810   -1.6770    3.0140 c3        1 29Q      0.076800
     20 N1          7.4960   -0.2990    3.0550 n2        1 29Q     -0.576900
     21 H1          2.0870    0.9510    2.0620 ha        1 29Q      0.150000
     22 H2          4.5620    1.0630    1.8230 ha        1 29Q      0.154500
     23 H3          1.8360   -1.2360   -1.6760 ha        1 29Q      0.150000
     24 H4          4.3150   -1.1260   -1.9030 ha        1 29Q      0.154500
     25 H5          7.3940   -0.3860   -1.5740 ho        1 29Q      0.426000
     26 H6          5.8670    2.5890   -1.6440 ha        1 29Q      0.152000
     27 H7          6.9150    4.7280   -0.8790 ha        1 29Q      0.138000
     28 H8          8.2400    4.8130    1.2230 ha        1 29Q      0.139000
     29 H9          8.5510    2.7560    2.6190 ha        1 29Q      0.155000
     30 H10         5.2710   -1.9850    1.5970 h1        1 29Q      0.060200
     31 H11         7.8110   -2.4020    3.2130 h1        1 29Q      0.070700
     32 H12         6.8190   -2.8220    1.0970 h1        1 29Q      0.060200
     33 H13         6.1930   -1.7930    3.8000 h1        1 29Q      0.070700
@<TRIPOS>BOND
     1    1    2 1   
     2    2    3 ar  
     3    2    5 ar  
     4    3    4 ar  
     5    3   21 1   
     6    4    7 ar  
     7    4   22 1   
     8    5    6 ar  
     9    5   23 1   
    10    6    7 ar  
    11    6   24 1   
    12    7    8 1   
    13    8    9 1   
    14    8   10 1   
    15    8   17 1   
    16    9   25 1   
    17   10   11 ar  
    18   10   15 ar  
    19   11   12 ar  
    20   11   26 1   
    21   12   13 ar  
    22   12   27 1   
    23   13   14 ar  
    24   13   28 1   
    25   14   15 ar  
    26   14   29 1   
    27   15   16 1   
    28   16   17 1   
    29   16   20 2   
    30   17   18 1   
    31   18   19 1   
    32   18   30 1   
    33   18   32 1   
    34   19   20 1   
    35   19   31 1   
    36   19   33 1   
@<TRIPOS>SUBSTRUCTURE
     1 29Q         1 TEMP              0 ****  ****    0 ROOT
