@<TRIPOS>MOLECULE
29Q
   33    30     1     0     0
SMALL
bcc


@<TRIPOS>ATOM
      1 CL         -5.4710   -0.2430   -1.1980 cl        1 29Q     -0.013000
      2 C13        -3.7200   -0.3350   -1.0600 c2        1 29Q     -0.052000
      3 C12        -2.9780   -0.9070   -2.0740 c2        1 29Q     -0.135000
      4 C11        -1.5850   -0.8940   -2.0100 c1        1 29Q     -0.082000
      5 C14        -3.0820    0.2500    0.0160 c1        1 29Q     -0.131000
      6 C15        -1.6890    0.2640    0.0810 c1        1 29Q     -0.106000
      7 C10        -0.9470   -0.3060   -0.9280 c1        1 29Q     -0.097000
      8 C           0.5640   -0.2330   -0.8910 c3        1 29Q      0.272000
      9 O           1.0630   -0.3120   -2.1770 oh        1 29Q     -0.314000
     10 C5          0.9970    1.0530   -0.2570 c2        1 29Q     -0.115000
     11 C6          0.8490    2.3990   -0.6580 c2        1 29Q     -0.092000
     12 C7          1.5080    3.4040    0.0340 c1        1 29Q     -0.119000
     13 C8          2.3140    3.0880    1.1240 c1        1 29Q     -0.103500
     14 C9          2.4610    1.7610    1.5210 c1        1 29Q     -0.103500
     15 C4          1.7960    0.7410    0.8220 c1        1 29Q     -0.040000
     16 C1          1.9190   -0.8020    0.8900 c1        1 29Q      0.065000
     17 N           1.0960   -1.3390   -0.0870 n2        1 29Q     -0.300000
     18 C3          0.3890   -2.4890    0.6040 c3        1 29Q     -0.081000
     19 C2          1.0010   -2.5120    2.1290 c3        1 29Q     -0.127000
     20 N1          1.8770   -1.4180    2.0610 n2        1 29Q     -0.164000
     21 H1         -3.4290   -1.3210   -2.8350 ha        1 29Q      0.150000
     22 H2         -1.0650   -1.2940   -2.7190 ha        1 29Q      0.162000
     23 H3         -3.5650    0.6220    0.6740 ha        1 29Q      0.150000
     24 H4         -1.2530    0.6660    0.8220 ha        1 29Q      0.147000
     25 H5          1.8360   -0.7580   -2.1700 ho        1 29Q      0.225000
     26 H6          0.2740    2.6260   -1.4320 ha        1 29Q      0.152000
     27 H7          1.4080    4.3180   -0.2390 ha        1 29Q      0.138000
     28 H8          2.7820    3.8060    1.6150 ha        1 29Q      0.147000
     29 H9          3.0420    1.5350    2.3080 ha        1 29Q      0.147000
     30 H10        -0.5740   -2.3260    0.6310 h1        1 29Q      0.099500
     31 H11         1.3310   -3.3810    2.5010 h1        1 29Q      0.110000
     32 H12         0.5870   -3.3680    0.1240 h1        1 29Q      0.099500
     33 H13         0.2660   -2.2940    2.7780 h1        1 29Q      0.110000
@<TRIPOS>BOND
     1    1    2 1   
     2    2    3 1   
     3    2    5 1   
     4    3    4 1   
     5    3   21 1   
     6    4   22 1   
     7    5   23 1   
     8    6    7 1   
     9    6   24 1   
    10    7    8 1   
    11    8    9 1   
    12    8   10 1   
    13    8   17 1   
    14    9   25 1   
    15   10   11 1   
    16   10   15 1   
    17   11   12 1   
    18   11   26 1   
    19   12   27 1   
    20   13   14 1   
    21   13   28 1   
    22   14   29 1   
    23   16   20 1   
    24   17   18 1   
    25   18   19 1   
    26   18   30 1   
    27   18   32 1   
    28   19   20 1   
    29   19   31 1   
    30   19   33 1   
@<TRIPOS>SUBSTRUCTURE
     1 29Q         1 TEMP              0 ****  ****    0 ROOT
