@<TRIPOS>MOLECULE
29Q
   33    36     1     0     0
SMALL
bcc


@<TRIPOS>ATOM
      1 CL         -4.9370   -0.3050    0.9430 cl        1 29Q     -0.091400
      2 C13        -3.3440   -0.2040    0.3590 ca        1 29Q      0.026400
      3 C12        -2.2720   -0.2320    1.2590 ca        1 29Q     -0.133000
      4 C11        -0.9690   -0.1480    0.7760 ca        1 29Q     -0.094000
      5 C14        -3.1130   -0.0930   -1.0150 ca        1 29Q     -0.133000
      6 C15        -1.8040   -0.0110   -1.4900 ca        1 29Q     -0.094000
      7 C10        -0.7280   -0.0360   -0.5980 ca        1 29Q     -0.104300
      8 C           0.7000    0.0570   -1.0980 c3        1 29Q      0.516600
      9 O           0.6340    0.4140   -2.4760 oh        1 29Q     -0.586800
     10 C5          1.5110    1.1060   -0.3080 ca        1 29Q     -0.122300
     11 C6          1.3840    2.4800   -0.2890 ca        1 29Q     -0.092000
     12 C7          2.2730    3.2200    0.5100 ca        1 29Q     -0.119000
     13 C8          3.2600    2.5890    1.2600 ca        1 29Q     -0.129000
     14 C9          3.4010    1.1910    1.2410 ca        1 29Q     -0.078000
     15 C4          2.5270    0.4640    0.4570 ca        1 29Q     -0.123900
     16 C1          2.3870   -0.9830    0.2340 ce        1 29Q      0.588800
     17 N           1.5100   -1.1790   -0.9250 nh        1 29Q     -0.768600
     18 C3          1.0170   -2.5450   -0.8030 c3        1 29Q      0.155800
     19 C2          1.9560   -3.1720    0.2990 c3        1 29Q      0.076800
     20 N1          2.7110   -2.0620    0.8980 n2        1 29Q     -0.576900
     21 H1         -2.4550   -0.3180    2.3410 ha        1 29Q      0.150000
     22 H2         -0.1230   -0.1630    1.4820 ha        1 29Q      0.154500
     23 H3         -3.9560   -0.0700   -1.7210 ha        1 29Q      0.150000
     24 H4         -1.6180    0.0780   -2.5730 ha        1 29Q      0.154500
     25 H5          1.5360    0.4260   -2.8260 ho        1 29Q      0.426000
     26 H6          0.6090    2.9860   -0.8830 ha        1 29Q      0.152000
     27 H7          2.1810    4.3160    0.5380 ha        1 29Q      0.138000
     28 H8          3.9450    3.1880    1.8780 ha        1 29Q      0.139000
     29 H9          4.1840    0.6950    1.8330 ha        1 29Q      0.155000
     30 H10        -0.0600   -2.5980   -0.4970 h1        1 29Q      0.060200
     31 H11         1.3620   -3.6810    1.0990 h1        1 29Q      0.070700
     32 H12         1.1500   -3.0630   -1.7870 h1        1 29Q      0.060200
     33 H13         2.6600   -3.9100   -0.1630 h1        1 29Q      0.070700
@<TRIPOS>BOND
     1    1    2 1   
     2    2    3 ar  
     3    2    5 ar  
     4    3    4 ar  
     5    3   21 1   
     6    4    7 ar  
     7    4   22 1   
     8    5    6 ar  
     9    5   23 1   
    10    6    7 ar  
    11    6   24 1   
    12    7    8 1   
    13    8    9 1   
    14    8   10 1   
    15    8   17 1   
    16    9   25 1   
    17   10   11 ar  
    18   10   15 ar  
    19   11   12 ar  
    20   11   26 1   
    21   12   13 ar  
    22   12   27 1   
    23   13   14 ar  
    24   13   28 1   
    25   14   15 ar  
    26   14   29 1   
    27   15   16 1   
    28   16   17 1   
    29   16   20 2   
    30   17   18 1   
    31   18   19 1   
    32   18   30 1   
    33   18   32 1   
    34   19   20 1   
    35   19   31 1   
    36   19   33 1   
@<TRIPOS>SUBSTRUCTURE
     1 29Q         1 TEMP              0 ****  ****    0 ROOT
