@<TRIPOS>MOLECULE
29R
   48    44     1     0     0
SMALL
bcc


@<TRIPOS>ATOM
      1 N1         -2.5490   -0.6170   -1.2900 n3        1 29R     -0.336000
      2 C2         -1.1270   -0.6310   -1.2380 c2        1 29R      0.293000
      3 N2         -0.3680   -0.7230   -2.4580 n3        1 29R     -0.305000
      4 N3         -0.4490   -0.6570    0.0390 n1        1 29R     -0.269000
      5 C4         -1.2200   -0.6670    1.2750 c1        1 29R     -0.062000
      6 C5         -2.5790   -0.6510    1.2290 c1        1 29R     -0.062000
      7 C6         -3.2900   -0.6260   -0.1060 c1        1 29R      0.399000
      8 O6         -4.5140   -0.6520   -0.1490 o         1 29R     -0.352000
      9 N7         -3.0460   -0.6660    2.5230 n2        1 29R     -0.110500
     10 C8         -1.9610   -0.6920    3.3630 c1        1 29R      0.177000
     11 N9         -0.8390   -0.6930    2.6030 n2        1 29R     -0.110500
     12 C11         0.4590   -0.9440    3.1560 c2        1 29R     -0.024000
     13 C12         0.8690    0.2290    4.0100 c3        1 29R     -0.170000
     14 C13         2.3420    0.0360    4.4920 c3        1 29R     -0.144000
     15 C14         2.8500    1.3540    5.1990 c3        1 29R     -0.201000
     16 C15         4.3590    1.1550    5.6560 c2        1 29R      0.312000
     17 O16         4.6130    0.6780    6.7820 o         1 29R     -0.589500
     18 O17         5.2930    1.4290    4.8690 o         1 29R     -0.589500
     19 C31        -0.4210    0.3700   -3.4400 c3        1 29R     -0.042000
     20 C32        -0.0600   -0.1710   -4.8280 c3        1 29R     -0.172000
     21 C33         0.8650    0.8190   -5.5340 c3        1 29R     -0.145000
     22 C34         1.2110    0.2760   -6.9960 c3        1 29R     -0.230000
     23 C35         2.1920    1.2150   -7.6670 c2        1 29R      0.331000
     24 O36         3.3860    1.2710   -7.2670 o         1 29R     -0.578500
     25 O37         1.8280    1.9050   -8.6450 o         1 29R     -0.578500
     26 CM7        -4.3360   -0.8320    3.1200 c2        1 29R     -0.090000
     27 HN1        -2.9730   -0.5010   -2.0920 hn        1 29R      0.266000
     28 HN2         0.0800   -1.4680   -2.6470 hn        1 29R      0.264000
     29 H8         -2.1790   -0.8970    4.2930 DU        1 29R      0.307000
     30 H11         1.1050   -1.0630    2.4320 ha        1 29R      0.128000
     31 H11A        0.4310   -1.7370    3.6920 ha        1 29R      0.128000
     32 H12         0.8060    1.0300    3.4990 hc        1 29R      0.096000
     33 H12A        0.2680    0.2910    4.7950 hc        1 29R      0.096000
     34 H13         2.3830   -0.7140    5.1270 hc        1 29R      0.079000
     35 H13A        2.9120   -0.1580    3.7220 hc        1 29R      0.079000
     36 H14         2.3000    1.5390    5.9750 hc        1 29R      0.088000
     37 H14A        2.7950    2.0900    4.5850 hc        1 29R      0.088000
     38 H31         0.2310    1.0840   -3.1810 h1        1 29R      0.092000
     39 H31A       -1.3290    0.7470   -3.4620 h1        1 29R      0.092000
     40 H32        -0.9020   -0.2910   -5.3720 hc        1 29R      0.083500
     41 H32A        0.3870   -1.0180   -4.7360 hc        1 29R      0.083500
     42 H33         0.4300    1.6650   -5.6030 hc        1 29R      0.092000
     43 H33A        1.6830    0.9170   -5.0210 hc        1 29R      0.092000
     44 H34         1.6190   -0.6360   -6.9250 hc        1 29R      0.063000
     45 H34A        0.3580    0.2230   -7.5500 hc        1 29R      0.063000
     46 HM7        -4.4560   -1.7900    3.4020 ha        1 29R      0.123000
     47 HM7A       -5.0500   -0.5880    2.4500 ha        1 29R      0.123000
     48 HM7B       -4.4100   -0.2360    3.9200 ha        1 29R      0.123000
@<TRIPOS>BOND
     1    1    2 1   
     2    1    7 1   
     3    1   27 1   
     4    2    3 1   
     5    2    4 1   
     6    3   19 1   
     7    3   28 1   
     8    5    6 1   
     9    5   11 1   
    10    6    9 1   
    11    7    8 1   
    12    9   10 1   
    13   10   11 1   
    14   12   13 1   
    15   12   30 1   
    16   12   31 1   
    17   13   14 1   
    18   13   32 1   
    19   13   33 1   
    20   14   15 1   
    21   14   34 1   
    22   14   35 1   
    23   15   16 1   
    24   15   36 1   
    25   15   37 1   
    26   16   17 1   
    27   16   18 1   
    28   19   20 1   
    29   19   38 1   
    30   19   39 1   
    31   20   21 1   
    32   20   40 1   
    33   20   41 1   
    34   21   22 1   
    35   21   42 1   
    36   21   43 1   
    37   22   23 1   
    38   22   44 1   
    39   22   45 1   
    40   23   24 1   
    41   23   25 1   
    42   26   46 1   
    43   26   47 1   
    44   26   48 1   
@<TRIPOS>SUBSTRUCTURE
     1 29R         1 TEMP              0 ****  ****    0 ROOT
