@<TRIPOS>MOLECULE
29R
   48    49     1     0     0
SMALL
bcc


@<TRIPOS>ATOM
      1 N1          1.3900    3.1160   -0.0460 n         1 29R     -0.507400
      2 C2          0.2080    2.3400   -0.1510 cc        1 29R      0.706800
      3 N2         -0.9960    3.0360   -0.2720 nh        1 29R     -0.809200
      4 N3          0.2010    0.9760   -0.1990 nd        1 29R     -0.666300
      5 C4          1.4460    0.3930   -0.1820 cd        1 29R      0.213500
      6 C5          2.6830    1.1060   -0.1040 cc        1 29R     -0.322300
      7 C6          2.6830    2.5430   -0.0310 c         1 29R      0.753700
      8 O6          3.6700    3.3010    0.0520 o         1 29R     -0.653500
      9 N7          3.7240    0.1500   -0.0990 nh        1 29R     -0.088600
     10 C8          3.1780   -1.1100   -0.1720 c1        1 29R     -0.055000
     11 N9          1.7880   -0.9780   -0.2230 nh        1 29R     -0.139600
     12 C11         0.8300   -2.0480   -0.2970 c3        1 29R      0.055300
     13 C12         1.4500   -3.4290   -0.4910 c3        1 29R     -0.087400
     14 C13         2.1360   -3.9300    0.7620 c3        1 29R     -0.092400
     15 C14         3.0100   -5.1300    0.4900 c3        1 29R     -0.172400
     16 C15         4.2950   -4.8750   -0.2440 c         1 29R      0.629100
     17 O16         4.7390   -3.6390   -0.5750 oh        1 29R     -0.603100
     18 O17         5.0660   -5.7780   -0.5940 o         1 29R     -0.537000
     19 C31        -2.2680    2.3450   -0.1600 c3        1 29R      0.200800
     20 C32        -3.4500    3.3110   -0.1120 c3        1 29R     -0.095400
     21 C33        -4.7370    2.5340    0.0790 c3        1 29R     -0.066400
     22 C34        -5.9340    3.4510    0.1310 c3        1 29R     -0.199400
     23 C35        -7.1840    2.7030    0.6360 c         1 29R      0.910600
     24 O36        -7.0460    1.8810    1.5880 o         1 29R     -0.846300
     25 O37        -8.2870    2.9670    0.0800 o         1 29R     -0.846300
     26 CM7         5.1170    0.4660   -0.0870 c3        1 29R      0.031600
     27 HN1         1.3380    4.1110   -0.0290 hn        1 29R      0.333500
     28 HN2        -1.0000    3.9860    0.0310 hn        1 29R      0.424800
     29 H8          4.1060   -2.9310   -0.3240 ho        1 29R      0.478000
     30 H11         0.2160   -2.0430    0.6510 h1        1 29R      0.063700
     31 H11A        0.1330   -1.8350   -1.1590 h1        1 29R      0.063700
     32 H12         0.6220   -4.1320   -0.7730 hc        1 29R      0.058200
     33 H12A        2.1790   -3.4100   -1.3450 hc        1 29R      0.058200
     34 H13         2.7490   -3.1110    1.2280 hc        1 29R      0.060200
     35 H13A        1.3560   -4.2190    1.5170 hc        1 29R      0.060200
     36 H14         3.2910   -5.6120    1.4670 hc        1 29R      0.077200
     37 H14A        2.4360   -5.8930   -0.1030 hc        1 29R      0.077200
     38 H31        -2.3710    1.6670   -1.0550 h1        1 29R      0.063700
     39 H31A       -2.2850    1.6980    0.7640 h1        1 29R      0.063700
     40 H32        -3.3260    4.0370    0.7340 hc        1 29R      0.035700
     41 H32A       -3.5040    3.9050   -1.0610 hc        1 29R      0.035700
     42 H33        -4.8620    1.8000   -0.7590 hc        1 29R      0.052700
     43 H33A       -4.6980    1.9450    1.0360 hc        1 29R      0.052700
     44 H34        -5.7420    4.2990    0.8370 hc        1 29R      0.021700
     45 H34A       -6.1430    3.8840   -0.8780 hc        1 29R      0.021700
     46 HM7         5.6630   -0.2880    0.5400 h1        1 29R      0.060700
     47 HM7A        5.5270    0.4330   -1.1330 h1        1 29R      0.060700
     48 HM7B        5.2660    1.4980    0.3320 h1        1 29R      0.060700
@<TRIPOS>BOND
     1    1    2 1   
     2    1    7 1   
     3    1   27 1   
     4    2    3 1   
     5    2    4 2   
     6    3   19 1   
     7    3   28 1   
     8    4    5 1   
     9    5    6 2   
    10    5   11 1   
    11    6    7 1   
    12    6    9 1   
    13    7    8 2   
    14    9   10 2   
    15    9   26 1   
    16   10   11 2   
    17   11   12 1   
    18   12   13 1   
    19   12   30 1   
    20   12   31 1   
    21   13   14 1   
    22   13   32 1   
    23   13   33 1   
    24   14   15 1   
    25   14   34 1   
    26   14   35 1   
    27   15   16 1   
    28   15   36 1   
    29   15   37 1   
    30   16   17 1   
    31   16   18 2   
    32   17   29 1   
    33   19   20 1   
    34   19   38 1   
    35   19   39 1   
    36   20   21 1   
    37   20   40 1   
    38   20   41 1   
    39   21   22 1   
    40   21   42 1   
    41   21   43 1   
    42   22   23 1   
    43   22   44 1   
    44   22   45 1   
    45   23   24 1   
    46   23   25 1   
    47   26   46 1   
    48   26   47 1   
    49   26   48 1   
@<TRIPOS>SUBSTRUCTURE
     1 29R         1 TEMP              0 ****  ****    0 ROOT
