@<TRIPOS>MOLECULE
29R
   49    50     1     0     0
SMALL
bcc


@<TRIPOS>ATOM
      1 N1         -0.0480    0.1350    0.1210 n         1 29R     -0.498400
      2 C2          1.3170    0.2440   -0.2320 cc        1 29R      0.677800
      3 N2          1.6080    0.2100   -1.6190 nh        1 29R     -0.798200
      4 N3          2.3290    0.3170    0.6650 nd        1 29R     -0.653300
      5 C4          1.9450    0.2210    1.9890 cd        1 29R      0.188500
      6 C5          0.5920    0.0840    2.4270 cc        1 29R     -0.295300
      7 C6         -0.4810    0.0320    1.4650 c         1 29R      0.749700
      8 O6         -1.7000   -0.0790    1.6880 o         1 29R     -0.637500
      9 N7          0.6070    0.0260    3.8370 nh        1 29R     -0.101600
     10 C8          1.9110    0.1210    4.2810 c1        1 29R     -0.001000
     11 N9          2.7390    0.2330    3.1550 nh        1 29R     -0.135600
     12 C11         4.1670    0.3830    3.1980 c3        1 29R      0.047300
     13 C12         4.6610    1.8370    3.2170 c3        1 29R     -0.109400
     14 C13         5.9760    1.9540    3.9640 c3        1 29R     -0.071400
     15 C14         5.7870    2.2810    5.4360 c3        1 29R     -0.132400
     16 C15         4.8520    1.3050    6.0820 c         1 29R      0.635100
     17 O16         5.1100    0.2000    6.5690 o         1 29R     -0.557000
     18 O17         3.5580    1.7200    6.1080 oh        1 29R     -0.611100
     19 C31         2.9680    0.4680   -2.0490 c3        1 29R      0.189800
     20 C32         3.0980    0.4920   -3.5720 c3        1 29R     -0.094400
     21 C33         4.5380    0.7020   -3.9890 c3        1 29R     -0.076400
     22 C34         5.4120   -0.5180   -3.7730 c3        1 29R     -0.129400
     23 C35         6.0090   -0.5410   -2.4010 c         1 29R      0.632100
     24 O36         6.6290    0.3430   -1.8040 o         1 29R     -0.550000
     25 O37         5.8430   -1.7260   -1.7480 oh        1 29R     -0.606100
     26 CM7        -0.5490   -0.1470    4.6580 c3        1 29R      0.029600
     27 HN1        -0.7460    0.0490   -0.5860 hn        1 29R      0.336500
     28 HN2         6.2570   -1.6790   -0.8700 ho        1 29R      0.447000
     29 H8          2.9660    0.9670    6.2960 ho        1 29R      0.468000
     30 H11         4.5160   -0.1440    4.1360 h1        1 29R      0.072700
     31 H11A        4.6130   -0.1430    2.3070 h1        1 29R      0.072700
     32 H12         3.9010    2.5050    3.7030 hc        1 29R      0.064200
     33 H12A        4.7940    2.1880    2.1610 hc        1 29R      0.064200
     34 H13         6.5650    1.0040    3.8640 hc        1 29R      0.054200
     35 H13A        6.5880    2.7750    3.5060 hc        1 29R      0.054200
     36 H14         6.7740    2.2320    5.9660 hc        1 29R      0.076200
     37 H14A        5.3700    3.3170    5.5470 hc        1 29R      0.076200
     38 H31         3.3530    1.4460   -1.6350 h1        1 29R      0.065200
     39 H31A        3.6210   -0.3570   -1.6370 h1        1 29R      0.065200
     40 H32         2.7110   -0.4670   -4.0090 hc        1 29R      0.051700
     41 H32A        2.4770    1.3280   -3.9930 hc        1 29R      0.051700
     42 H33         4.5520    0.9510   -5.0850 hc        1 29R      0.063700
     43 H33A        4.9750    1.5790   -3.4400 hc        1 29R      0.063700
     44 H34         4.8310   -1.4620   -3.9470 hc        1 29R      0.083200
     45 H34A        6.2710   -0.5010   -4.4990 hc        1 29R      0.083200
     46 HM7        -0.4980    0.5640    5.5250 h1        1 29R      0.062033
     47 HM7A       -1.4770    0.0520    4.0560 h1        1 29R      0.062033
     48 HM7B       -0.5840   -1.1990    5.0510 h1        1 29R      0.062033
     49 H22         0.9150    0.6420   -2.1960 hn        1 29R      0.408800
@<TRIPOS>BOND
     1    1    2 1   
     2    1    7 1   
     3    1   27 1   
     4    2    3 1   
     5    2    4 2   
     6    3   19 1   
     7    3   49 1   
     8    4    5 1   
     9    5    6 2   
    10    5   11 1   
    11    6    7 1   
    12    6    9 1   
    13    7    8 2   
    14    9   10 2   
    15    9   26 1   
    16   10   11 2   
    17   11   12 1   
    18   12   13 1   
    19   12   30 1   
    20   12   31 1   
    21   13   14 1   
    22   13   32 1   
    23   13   33 1   
    24   14   15 1   
    25   14   34 1   
    26   14   35 1   
    27   15   16 1   
    28   15   36 1   
    29   15   37 1   
    30   16   17 2   
    31   16   18 1   
    32   18   29 1   
    33   19   20 1   
    34   19   38 1   
    35   19   39 1   
    36   20   21 1   
    37   20   40 1   
    38   20   41 1   
    39   21   22 1   
    40   21   42 1   
    41   21   43 1   
    42   22   23 1   
    43   22   44 1   
    44   22   45 1   
    45   23   24 2   
    46   23   25 1   
    47   25   28 1   
    48   26   46 1   
    49   26   47 1   
    50   26   48 1   
@<TRIPOS>SUBSTRUCTURE
     1 29R         1 TEMP              0 ****  ****    0 ROOT
