@<TRIPOS>MOLECULE
29T
   45    48     1     0     0
SMALL
bcc


@<TRIPOS>ATOM
      1 C10        -1.0420   -0.0330   -0.5100 cc        1 29T     -0.142000
      2 C11         0.9210    0.9810    0.1510 cd        1 29T     -0.135100
      3 C14         0.2040    0.4960   -0.9690 cc        1 29T     -0.028700
      4 C16         0.6450    0.5330   -2.3000 cg        1 29T      0.232500
      5 C00        -4.2970   -2.7220   -1.2830 ca        1 29T     -0.195000
      6 C01        -3.6470   -3.9210   -0.9910 ca        1 29T     -0.098000
      7 C02        -2.8430   -4.0390    0.1400 ca        1 29T     -0.144000
      8 C03        -2.6770   -2.9530    0.9990 ca        1 29T     -0.114000
      9 C04        -3.3180   -1.7450    0.7160 ca        1 29T      0.066100
     10 C05        -4.1350   -1.6210   -0.4330 ca        1 29T      0.118100
     11 C0C        -2.0280   -0.1740    1.9130 cd        1 29T      0.145100
     12 C0V        -1.0710    0.1330    0.8890 cd        1 29T     -0.097300
     13 N0W         0.1510    0.7590    1.2790 na        1 29T      0.054700
     14 C0X         0.3940    1.0710    2.6060 cd        1 29T     -0.104300
     15 C0Y        -0.5370    0.7690    3.5670 cc        1 29T     -0.129000
     16 C0Z        -1.7660    0.1300    3.2290 cc        1 29T     -0.161000
     17 N19         1.0020    0.5590   -3.4080 n1        1 29T     -0.381800
     18 O0B        -4.7390   -0.3930   -0.6030 os        1 29T     -0.300900
     19 C0D        -5.4350   -0.2100   -1.8380 c3        1 29T      0.101400
     20 C0E        -6.0310    1.2050   -1.8020 c3        1 29T      0.091000
     21 N0H        -5.0790    2.2890   -1.8190 n         1 29T     -0.371000
     22 C0K        -5.0030    3.1650   -0.6960 c         1 29T      0.814500
     23 N0M        -3.9800    4.1250   -0.6690 ns        1 29T     -0.583500
     24 C0N        -3.0180    4.2520   -1.6870 c         1 29T      0.716700
     25 C0O        -3.1530    3.3280   -2.8200 cc        1 29T     -0.309200
     26 C0P        -4.1390    2.3960   -2.8340 cd        1 29T      0.045600
     27 O0Q        -5.8460    3.1110    0.2230 o         1 29T     -0.633500
     28 O0S        -2.1360    5.1190   -1.5750 o         1 29T     -0.609500
     29 H1         -1.8300   -0.4770   -1.1130 ha        1 29T      0.169000
     30 H2          1.9010    1.4570    0.2010 h4        1 29T      0.186000
     31 H3         -4.9270   -2.6510   -2.1800 ha        1 29T      0.139000
     32 H4         -3.7750   -4.7820   -1.6650 ha        1 29T      0.138000
     33 H5         -2.3360   -4.9900    0.3610 ha        1 29T      0.141000
     34 H6         -2.0430   -3.0320    1.8950 ha        1 29T      0.151000
     35 H7          1.3560    1.5660    2.8200 h4        1 29T      0.167000
     36 H8         -0.3390    1.0200    4.6190 ha        1 29T      0.155000
     37 H9         -2.5000   -0.0930    4.0150 ha        1 29T      0.161000
     38 H10        -4.7280   -0.3510   -2.6970 h1        1 29T      0.048200
     39 H11        -6.2790   -0.9460   -1.9140 h1        1 29T      0.048200
     40 H12        -6.6950    1.3050   -2.7080 h1        1 29T      0.089200
     41 H13        -6.6630    1.3020   -0.8690 h1        1 29T      0.089200
     42 H14        -3.9380    4.7160    0.1330 hn        1 29T      0.352500
     43 H15        -2.4220    3.4310   -3.6310 ha        1 29T      0.182000
     44 H16        -4.2580    1.6790   -3.6690 h4        1 29T      0.159000
     45 O0A        -3.2870   -0.6730    1.6060 os        1 29T     -0.220200
@<TRIPOS>BOND
     1    1    3 1   
     2    1   12 2   
     3    1   29 1   
     4    2    3 2   
     5    2   13 1   
     6    2   30 1   
     7    3    4 1   
     8    4   17 3   
     9    5    6 ar  
    10    5   10 ar  
    11    5   31 1   
    12    6    7 ar  
    13    6   32 1   
    14    7    8 ar  
    15    7   33 1   
    16    8    9 ar  
    17    8   34 1   
    18    9   10 ar  
    19    9   45 1   
    20   10   18 1   
    21   11   12 1   
    22   11   16 2   
    23   11   45 1   
    24   12   13 1   
    25   13   14 1   
    26   14   15 2   
    27   14   35 1   
    28   15   16 1   
    29   15   36 1   
    30   16   37 1   
    31   18   19 1   
    32   19   20 1   
    33   19   38 1   
    34   19   39 1   
    35   20   21 1   
    36   20   40 1   
    37   20   41 1   
    38   21   22 1   
    39   21   26 1   
    40   22   23 1   
    41   22   27 2   
    42   23   24 1   
    43   23   42 1   
    44   24   25 1   
    45   24   28 2   
    46   25   26 2   
    47   25   43 1   
    48   26   44 1   
@<TRIPOS>SUBSTRUCTURE
     1 29T         1 TEMP              0 ****  ****    0 ROOT
