@<TRIPOS>MOLECULE
29T
   45    47     1     0     0
SMALL
bcc


@<TRIPOS>ATOM
      1 C10         0.5640   -0.0800   -0.4160 cc        1 29T     -0.149000
      2 C11         1.7130    0.2640    1.5550 cd        1 29T     -0.138100
      3 C14         1.8650    0.0180    0.1710 cc        1 29T     -0.019700
      4 C16         3.0900   -0.1070   -0.5030 cg        1 29T      0.225500
      5 C00        -5.0600   -2.6180   -0.8280 ca        1 29T     -0.177000
      6 C01        -4.3200   -3.5990   -1.4870 ca        1 29T     -0.094000
      7 C02        -2.9700   -3.3990   -1.7780 ca        1 29T     -0.146000
      8 C03        -2.3430   -2.2080   -1.4170 ca        1 29T     -0.100000
      9 C04        -3.0750   -1.2170   -0.7570 ca        1 29T      0.048100
     10 C05        -4.4360   -1.4230   -0.4500 ca        1 29T      0.114100
     11 C0C        -1.8010    0.1220    0.6890 cd        1 29T      0.122100
     12 C0V        -0.3690    0.1050    0.6230 cd        1 29T     -0.081300
     13 N0W         0.3570    0.3190    1.8330 na        1 29T      0.046700
     14 C0X        -0.3080    0.5320    3.0280 cd        1 29T     -0.085300
     15 C0Y        -1.6800    0.5410    3.0650 cc        1 29T     -0.142000
     16 C0Z        -2.4480    0.3310    1.8810 cc        1 29T     -0.140000
     17 N19         4.1030   -0.2120   -1.0660 n1        1 29T     -0.368800
     18 O0B        -5.0850   -0.3750    0.1800 os        1 29T     -0.273200
     19 C0D        -6.2720   -0.7140    0.8450 c2        1 29T     -0.031900
     20 C0E        -7.2720    0.1680    0.8290 c2        1 29T     -0.222000
     21 N0H        -4.3440    2.2970   -1.4130 n         1 29T     -0.462100
     22 C0K        -5.4550    3.1610   -1.4970 c         1 29T      0.803500
     23 N0M        -5.3480    4.3100   -2.2950 n         1 29T     -0.587500
     24 C0N        -4.1770    4.6300   -3.0110 c         1 29T      0.715700
     25 C0O        -3.0590    3.6900   -2.8780 cc        1 29T     -0.337200
     26 C0P        -3.1820    2.5810   -2.1000 cd        1 29T      0.062600
     27 O0Q        -6.5090    2.9050   -0.8720 o         1 29T     -0.663500
     28 O0S        -4.1640    5.6670   -3.6960 o         1 29T     -0.615500
     29 H1          0.3310   -0.2570   -1.4620 ha        1 29T      0.170000
     30 H2          2.4700    0.4010    2.3290 h4        1 29T      0.187000
     31 H3         -6.1280   -2.7750   -0.6160 ha        1 29T      0.151000
     32 H4         -4.8110   -4.5390   -1.7820 ha        1 29T      0.142000
     33 H5         -2.3970   -4.1810   -2.2960 ha        1 29T      0.144000
     34 H6         -1.2790   -2.0340   -1.6420 ha        1 29T      0.153000
     35 H7          0.3280    0.6880    3.9160 h4        1 29T      0.169000
     36 H8         -2.2010    0.7140    4.0170 ha        1 29T      0.158000
     37 H9         -3.5480    0.3390    1.9290 ha        1 29T      0.169000
     38 H10        -8.1830   -0.0050    1.4160 ha        1 29T      0.150500
     39 H11        -6.2470   -1.6690    1.3870 h4        1 29T      0.139000
     40 H12        -7.2300    1.1090    0.2560 ha        1 29T      0.150500
     41 H13        -4.4230    1.4750   -0.8480 hn        1 29T      0.375500
     42 H14        -6.1430    4.9090   -2.3440 hn        1 29T      0.349500
     43 H15        -2.1430    3.9310   -3.4290 ha        1 29T      0.178000
     44 H16        -2.3650    1.8440   -1.9680 h4        1 29T      0.179000
     45 O0A        -2.4940    0.0330   -0.5190 os        1 29T     -0.268200
@<TRIPOS>BOND
     1    1    3 1   
     2    1   12 2   
     3    1   29 1   
     4    2    3 2   
     5    2   13 1   
     6    2   30 1   
     7    3    4 1   
     8    4   17 3   
     9    5    6 ar  
    10    5   10 ar  
    11    5   31 1   
    12    6    7 ar  
    13    6   32 1   
    14    7    8 ar  
    15    7   33 1   
    16    8    9 ar  
    17    8   34 1   
    18    9   10 ar  
    19    9   45 1   
    20   10   18 1   
    21   11   12 1   
    22   11   16 2   
    23   11   45 1   
    24   12   13 1   
    25   13   14 1   
    26   14   15 2   
    27   14   35 1   
    28   15   16 1   
    29   15   36 1   
    30   16   37 1   
    31   18   19 1   
    32   19   20 2   
    33   19   39 1   
    34   20   38 1   
    35   20   40 1   
    36   21   22 1   
    37   21   26 1   
    38   21   41 1   
    39   22   23 1   
    40   22   27 2   
    41   23   24 1   
    42   23   42 1   
    43   24   25 1   
    44   24   28 2   
    45   25   26 2   
    46   25   43 1   
    47   26   44 1   
@<TRIPOS>SUBSTRUCTURE
     1 29T         1 TEMP              0 ****  ****    0 ROOT
