@<TRIPOS>MOLECULE
29T
   45    39     1     0     0
SMALL
bcc


@<TRIPOS>ATOM
      1 C10         1.8520   -1.3430   -0.3800 c1        1 29T     -0.134000
      2 C11         3.1920   -3.1120   -0.2870 c1        1 29T     -0.111000
      3 C14         2.3770   -2.3740   -1.1130 c1        1 29T     -0.059000
      4 C16         2.1690   -2.8470   -2.5530 c1        1 29T     -0.064000
      5 C00        -2.2790    0.2930    2.4030 c1        1 29T     -0.122833
      6 C01        -2.3590    0.2260    3.8120 c1        1 29T     -0.122833
      7 C02        -1.1820    0.2370    4.5810 c1        1 29T     -0.122833
      8 C03         0.0690    0.3140    3.9480 c1        1 29T     -0.122833
      9 C04         0.1460    0.3810    2.5400 c1        1 29T      0.026000
     10 C05        -1.0230    0.3710    1.7730 c1        1 29T      0.062000
     11 O0A         1.4140    0.5170    1.9040 os        1 29T     -0.156000
     12 C0C         2.1420   -0.6570    2.0720 c2        1 29T      0.085000
     13 C0V         2.3510   -1.4420    0.9270 c2        1 29T     -0.070000
     14 N0W         3.1690   -2.5220    0.9820 n2        1 29T     -0.028000
     15 C0X         3.8010   -2.8530    2.1700 c1        1 29T     -0.122833
     16 C0Y         3.5980   -2.0840    3.3000 c1        1 29T     -0.122833
     17 C0Z         2.7630   -0.9810    3.2440 c1        1 29T     -0.148000
     18 N19         2.0160   -3.1940   -3.6110 n1        1 29T     -0.048000
     19 O0B        -0.7470    1.1670    0.6550 os        1 29T     -0.221000
     20 C0D        -1.6450    0.9810   -0.4120 c3        1 29T     -0.046000
     21 C0E        -1.8320    2.2950   -1.1560 c3        1 29T     -0.028000
     22 N0H        -1.9240    2.0300   -2.6040 n3        1 29T     -0.272000
     23 C0K        -0.6810    1.8430   -3.4110 c1        1 29T      0.395000
     24 N0M        -0.7740    1.6170   -4.8770 n2        1 29T     -0.364000
     25 C0N        -2.0400    1.6440   -5.5210 c2        1 29T      0.353000
     26 C0O        -3.2890    1.8380   -4.7110 c2        1 29T     -0.307000
     27 C0P        -3.1970    2.0420   -3.2450 c2        1 29T      0.054000
     28 O0Q         0.4150    1.9660   -2.8820 o         1 29T     -0.375000
     29 O0S        -2.1120    1.4830   -6.6950 o         1 29T     -0.337000
     30 H1          1.2340   -0.6540   -0.7130 DU        1 29T      0.183500
     31 H2          3.6740   -3.8710   -0.5310 DU        1 29T      0.183500
     32 H3         -3.1340    0.2860    1.8390 ha        1 29T      0.150333
     33 H4         -3.2710    0.1700    4.2710 ha        1 29T      0.150333
     34 H5         -1.2340    0.1900    5.5740 ha        1 29T      0.150333
     35 H6          0.9030    0.3210    4.4910 ha        1 29T      0.150333
     36 H7          4.3670   -3.5970    2.2080 ha        1 29T      0.150333
     37 H8          4.0710   -2.3310    4.1870 ha        1 29T      0.150333
     38 H9          2.6200   -0.4450    4.0290 ha        1 29T      0.158000
     39 H10        -2.4580    0.6970   -0.0830 h1        1 29T      0.100000
     40 H11        -1.2720    0.2740   -1.0560 h1        1 29T      0.100000
     41 H12        -2.6350    2.7170   -0.8610 h1        1 29T      0.130500
     42 H13        -1.0610    2.8880   -0.9760 h1        1 29T      0.130500
     43 H14        -0.0060    1.4980   -5.3770 hn        1 29T      0.265000
     44 H15        -4.1600    1.8530   -5.1520 ha        1 29T      0.180000
     45 H16        -4.0270    2.1700   -2.7050 h4        1 29T      0.198000
@<TRIPOS>BOND
     1    1    3 1   
     2    1   13 1   
     3    2    3 1   
     4    2   14 1   
     5    4   18 1   
     6    5    6 1   
     7    5   32 1   
     8    6   33 1   
     9    7    8 1   
    10    7   34 1   
    11    8   35 1   
    12    9   10 1   
    13    9   11 1   
    14   10   19 1   
    15   11   12 1   
    16   12   13 1   
    17   12   17 1   
    18   13   14 1   
    19   15   16 1   
    20   15   36 1   
    21   16   37 1   
    22   17   38 1   
    23   19   20 1   
    24   20   21 1   
    25   20   39 1   
    26   20   40 1   
    27   21   22 1   
    28   21   41 1   
    29   21   42 1   
    30   22   23 1   
    31   22   27 1   
    32   23   28 1   
    33   24   25 1   
    34   24   43 1   
    35   25   26 1   
    36   25   29 1   
    37   26   27 1   
    38   26   44 1   
    39   27   45 1   
@<TRIPOS>SUBSTRUCTURE
     1 29T         1 TEMP              0 ****  ****    0 ROOT
