@<TRIPOS>MOLECULE
29T
   45    48     1     0     0
SMALL
bcc


@<TRIPOS>ATOM
      1 C10        -1.0420   -0.0320   -0.5170 cc        1 29T     -0.142000
      2 C11         0.9200    0.9860    0.1410 cd        1 29T     -0.135100
      3 C14         0.2020    0.4990   -0.9780 cc        1 29T     -0.028700
      4 C16         0.6400    0.5380   -2.3100 cg        1 29T      0.232500
      5 C00        -4.2950   -2.7230   -1.2840 ca        1 29T     -0.195000
      6 C01        -3.6430   -3.9220   -0.9960 ca        1 29T     -0.098000
      7 C02        -2.8350   -4.0400    0.1330 ca        1 29T     -0.144000
      8 C03        -2.6690   -2.9550    0.9930 ca        1 29T     -0.114000
      9 C04        -3.3120   -1.7470    0.7130 ca        1 29T      0.066100
     10 C05        -4.1330   -1.6240   -0.4330 ca        1 29T      0.118100
     11 C0C        -2.0220   -0.1750    1.9090 cd        1 29T      0.145100
     12 C0V        -1.0680    0.1340    0.8830 cd        1 29T     -0.097300
     13 N0W         0.1530    0.7620    1.2700 na        1 29T      0.054700
     14 C0X         0.3990    1.0740    2.5970 cd        1 29T     -0.104300
     15 C0Y        -0.5290    0.7700    3.5600 cc        1 29T     -0.129000
     16 C0Z        -1.7570    0.1280    3.2240 cc        1 29T     -0.161000
     17 N19         0.9950    0.5650   -3.4180 n1        1 29T     -0.381800
     18 O0B        -4.7400   -0.3960   -0.6000 os        1 29T     -0.300900
     19 C0D        -5.4370   -0.2110   -1.8340 c3        1 29T      0.101400
     20 C0E        -6.0350    1.2020   -1.7930 c3        1 29T      0.091000
     21 N0H        -5.0840    2.2880   -1.8080 n         1 29T     -0.371000
     22 C0K        -5.0080    3.1610   -0.6840 c         1 29T      0.814500
     23 N0M        -3.9870    4.1220   -0.6550 n         1 29T     -0.583500
     24 C0N        -3.0260    4.2530   -1.6730 c         1 29T      0.716700
     25 C0O        -3.1610    3.3320   -2.8090 cc        1 29T     -0.309200
     26 C0P        -4.1460    2.3990   -2.8240 cd        1 29T      0.045600
     27 O0Q        -5.8510    3.1040    0.2360 o         1 29T     -0.633500
     28 O0S        -2.1450    5.1210   -1.5590 o         1 29T     -0.609500
     29 H1         -1.8300   -0.4770   -1.1180 ha        1 29T      0.169000
     30 H2          1.8990    1.4640    0.1890 h4        1 29T      0.186000
     31 H3         -4.9280   -2.6520   -2.1790 ha        1 29T      0.139000
     32 H4         -3.7710   -4.7810   -1.6720 ha        1 29T      0.139000
     33 H5         -2.3250   -4.9900    0.3500 ha        1 29T      0.141000
     34 H6         -2.0320   -3.0350    1.8870 ha        1 29T      0.151000
     35 H7          1.3600    1.5710    2.8080 h4        1 29T      0.167000
     36 H8         -0.3290    1.0210    4.6120 ha        1 29T      0.155000
     37 H9         -2.4890   -0.0970    4.0120 ha        1 29T      0.161000
     38 H10        -4.7310   -0.3500   -2.6930 h1        1 29T      0.048200
     39 H11        -6.2800   -0.9480   -1.9100 h1        1 29T      0.048200
     40 H12        -6.6990    1.3040   -2.7000 h1        1 29T      0.089200
     41 H13        -6.6660    1.2960   -0.8600 h1        1 29T      0.089200
     42 H14        -3.9450    4.7120    0.1480 hn        1 29T      0.352500
     43 H15        -2.4300    3.4380   -3.6200 ha        1 29T      0.182000
     44 H16        -4.2640    1.6840   -3.6610 h4        1 29T      0.159000
     45 O0A        -3.2810   -0.6770    1.6050 os        1 29T     -0.220200
@<TRIPOS>BOND
     1    1    3 1   
     2    1   12 2   
     3    1   29 1   
     4    2    3 2   
     5    2   13 1   
     6    2   30 1   
     7    3    4 1   
     8    4   17 3   
     9    5    6 ar  
    10    5   10 ar  
    11    5   31 1   
    12    6    7 ar  
    13    6   32 1   
    14    7    8 ar  
    15    7   33 1   
    16    8    9 ar  
    17    8   34 1   
    18    9   10 ar  
    19    9   45 1   
    20   10   18 1   
    21   11   12 1   
    22   11   16 2   
    23   11   45 1   
    24   12   13 1   
    25   13   14 1   
    26   14   15 2   
    27   14   35 1   
    28   15   16 1   
    29   15   36 1   
    30   16   37 1   
    31   18   19 1   
    32   19   20 1   
    33   19   38 1   
    34   19   39 1   
    35   20   21 1   
    36   20   40 1   
    37   20   41 1   
    38   21   22 1   
    39   21   26 1   
    40   22   23 1   
    41   22   27 2   
    42   23   24 1   
    43   23   42 1   
    44   24   25 1   
    45   24   28 2   
    46   25   26 2   
    47   25   43 1   
    48   26   44 1   
@<TRIPOS>SUBSTRUCTURE
     1 29T         1 TEMP              0 ****  ****    0 ROOT
