@<TRIPOS>MOLECULE
29T
   45    48     1     0     0
SMALL
bcc


@<TRIPOS>ATOM
      1 C10        -1.3650   -0.4560   -0.8290 cc        1 29T     -0.142000
      2 C11        -2.7410   -2.2280   -0.2930 cd        1 29T     -0.135100
      3 C14        -1.8640   -1.7170   -1.2800 cc        1 29T     -0.028700
      4 C16        -1.5420   -2.3470   -2.4910 cg        1 29T      0.232500
      5 C00         0.3290    3.3290   -1.9290 ca        1 29T     -0.195000
      6 C01        -0.8240    3.9330   -2.4310 ca        1 29T     -0.098000
      7 C02        -2.0350    3.8330   -1.7500 ca        1 29T     -0.144000
      8 C03        -2.1080    3.1260   -0.5500 ca        1 29T     -0.114000
      9 C04        -0.9620    2.5140   -0.0380 ca        1 29T      0.066100
     10 C05         0.2690    2.6120   -0.7290 ca        1 29T      0.118100
     11 C0C        -1.8460    0.8550    1.3880 cd        1 29T      0.145100
     12 C0V        -1.9470   -0.2090    0.4310 cd        1 29T     -0.097300
     13 N0W        -2.7950   -1.3130    0.7440 na        1 29T      0.054700
     14 C0X        -3.4870   -1.3570    1.9430 cd        1 29T     -0.104300
     15 C0Y        -3.3730   -0.3280    2.8430 cc        1 29T     -0.129000
     16 C0Z        -2.5500    0.8030    2.5690 cc        1 29T     -0.161000
     17 N19        -1.2670   -2.8620   -3.4980 n1        1 29T     -0.381800
     18 O0B         1.3410    1.9910   -0.1210 os        1 29T     -0.300900
     19 C0D         2.5470    1.9460   -0.8880 c3        1 29T      0.101400
     20 C0E         3.5930    1.2310   -0.0210 c3        1 29T      0.091000
     21 N0H         3.3420   -0.1650    0.2450 n         1 29T     -0.371000
     22 C0K         3.1190   -0.5880    1.5870 c         1 29T      0.814500
     23 N0M         2.7380   -1.9190    1.8120 n         1 29T     -0.583500
     24 C0N         2.5500   -2.8500    0.7740 c         1 29T      0.716700
     25 C0O         2.8030   -2.3580   -0.5860 cc        1 29T     -0.309200
     26 C0P         3.1610   -1.0660   -0.7950 cd        1 29T      0.045600
     27 O0Q         3.2950    0.1910    2.5480 o         1 29T     -0.633500
     28 O0S         2.1960   -4.0050    1.0610 o         1 29T     -0.609500
     29 H1         -0.6660    0.1970   -1.3440 ha        1 29T      0.169000
     30 H2         -3.3050   -3.1600   -0.2750 h4        1 29T      0.186000
     31 H3          1.2740    3.4210   -2.4820 ha        1 29T      0.139000
     32 H4         -0.7710    4.4920   -3.3780 ha        1 29T      0.139000
     33 H5         -2.9380    4.3130   -2.1550 ha        1 29T      0.141000
     34 H6         -3.0590    3.0390   -0.0030 ha        1 29T      0.151000
     35 H7         -4.1080   -2.2520    2.1110 h4        1 29T      0.167000
     36 H8         -3.9230   -0.3700    3.7940 ha        1 29T      0.155000
     37 H9         -2.4670    1.6100    3.3100 ha        1 29T      0.161000
     38 H10         2.3610    1.4130   -1.8560 h1        1 29T      0.048200
     39 H11         2.9110    2.9890   -1.0900 h1        1 29T      0.048200
     40 H12         4.5800    1.3140   -0.5610 h1        1 29T      0.089200
     41 H13         3.6670    1.7730    0.9690 h1        1 29T      0.089200
     42 H14         2.5730   -2.1880    2.7580 hn        1 29T      0.352500
     43 H15         2.6810   -3.0800   -1.4030 ha        1 29T      0.182000
     44 H16         3.3460   -0.6650   -1.8090 h4        1 29T      0.159000
     45 O0A        -0.9540    1.9070    1.2160 os        1 29T     -0.220200
@<TRIPOS>BOND
     1    1    3 1   
     2    1   12 2   
     3    1   29 1   
     4    2    3 2   
     5    2   13 1   
     6    2   30 1   
     7    3    4 1   
     8    4   17 3   
     9    5    6 ar  
    10    5   10 ar  
    11    5   31 1   
    12    6    7 ar  
    13    6   32 1   
    14    7    8 ar  
    15    7   33 1   
    16    8    9 ar  
    17    8   34 1   
    18    9   10 ar  
    19    9   45 1   
    20   10   18 1   
    21   11   12 1   
    22   11   16 2   
    23   11   45 1   
    24   12   13 1   
    25   13   14 1   
    26   14   15 2   
    27   14   35 1   
    28   15   16 1   
    29   15   36 1   
    30   16   37 1   
    31   18   19 1   
    32   19   20 1   
    33   19   38 1   
    34   19   39 1   
    35   20   21 1   
    36   20   40 1   
    37   20   41 1   
    38   21   22 1   
    39   21   26 1   
    40   22   23 1   
    41   22   27 2   
    42   23   24 1   
    43   23   42 1   
    44   24   25 1   
    45   24   28 2   
    46   25   26 2   
    47   25   43 1   
    48   26   44 1   
@<TRIPOS>SUBSTRUCTURE
     1 29T         1 TEMP              0 ****  ****    0 ROOT
