@<TRIPOS>MOLECULE
29U
   52    53     1     0     0
SMALL
bcc


@<TRIPOS>ATOM
      1 N13         0.0450   -0.9520    0.0280 nz        1 29U     -0.837600
      2 C5          1.4330   -0.3910   -0.0980 c3        1 29U      0.061500
      3 C14         2.0270   -0.1600    1.3100 c         1 29U      0.654100
      4 O32         1.6550   -0.8720    2.2650 o         1 29U     -0.594100
      5 C33         2.3530   -1.3520   -0.8680 c3        1 29U     -0.107400
      6 C48         1.8990   -1.5660   -2.2880 c3        1 29U     -0.132100
      7 N1          2.9570    0.8360    1.4980 n         1 29U     -0.449800
      8 C1          3.7190    0.9290    2.7300 c3        1 29U      0.059700
      9 C7          2.8930    1.5260    3.8840 c         1 29U      0.523100
     10 O22         1.8080    2.0750    3.8430 o         1 29U     -0.379100
     11 C2          4.9380    1.8420    2.4450 c3        1 29U     -0.094400
     12 C3          4.7490    2.3860    1.0310 c3        1 29U     -0.093400
     13 C4          3.4830    1.7250    0.4670 c3        1 29U      0.076000
     14 N23         3.5330    1.3870    5.2600 ny        1 29U     -0.683800
     15 C24         3.2520    2.5640    6.1480 c3        1 29U      0.157100
     16 C25         3.7250    2.3670    7.5530 ca        1 29U     -0.138300
     17 C30         2.9160    1.6930    8.4770 ca        1 29U     -0.090500
     18 C29         3.3050    1.5990    9.8150 ca        1 29U     -0.081000
     19 C28         4.5070    2.1840   10.2310 ca        1 29U     -0.207900
     20 C21         4.9480    2.0360   11.6420 ce        1 29U      0.562800
     21 N46         5.5560    1.0810   12.2280 n2        1 29U     -0.664100
     22 N47         4.6030    3.2290   12.4900 nz        1 29U     -0.819600
     23 C27         5.3210    2.8540    9.3110 ca        1 29U     -0.081000
     24 C26         4.9290    2.9430    7.9740 ca        1 29U     -0.090500
     25 HN13       -0.2500   -1.3250   -0.8850 hn        1 29U      0.479800
     26 HN1A        0.0410   -1.7120    0.7250 hn        1 29U      0.479800
     27 H5          1.3430    0.5860   -0.6640 hx        1 29U      0.134700
     28 H33         2.4250   -2.3350   -0.3270 hc        1 29U      0.094700
     29 H33A        3.3820   -0.9000   -0.8690 hc        1 29U      0.094700
     30 H48         1.0040   -2.2330   -2.3480 hc        1 29U      0.074033
     31 H48A        2.7190   -2.0690   -2.8660 hc        1 29U      0.074033
     32 H48B        1.6690   -0.5990   -2.7970 hc        1 29U      0.074033
     33 H1          4.0340   -0.1110    3.0510 h1        1 29U      0.115700
     34 H2          5.8770    1.2340    2.5120 hc        1 29U      0.081700
     35 H2A         5.0080    2.6790    3.1810 hc        1 29U      0.081700
     36 H3          4.6340    3.4990    1.0390 hc        1 29U      0.102700
     37 H3A         5.6360    2.1430    0.3900 hc        1 29U      0.102700
     38 H4          2.7050    2.5000    0.2160 h1        1 29U      0.081200
     39 H4A         3.7240    1.1390   -0.4640 h1        1 29U      0.081200
     40 HN23        4.5460    1.2710    5.1540 hn        1 29U      0.462800
     41 H24         3.7520    3.4640    5.6830 hx        1 29U      0.129700
     42 H24A        2.1320    2.7390    6.1380 hx        1 29U      0.129700
     43 H30         1.9550    1.2500    8.1660 ha        1 29U      0.167000
     44 H29         2.6600    1.0620   10.5310 ha        1 29U      0.176500
     45 HN46        5.8150    0.2600   11.7220 hn        1 29U      0.499400
     46 HN47        4.9450    3.1190   13.4590 hn        1 29U      0.481133
     47 HN4A        5.0320    4.0650   12.0770 hn        1 29U      0.481133
     48 H27         6.2770    3.3080    9.6260 ha        1 29U      0.176500
     49 H26         5.5720    3.4890    7.2620 ha        1 29U      0.167000
     50 H133       -0.6110   -0.2250    0.3300 hn        1 29U      0.479800
     51 H232        3.1590    0.5370    5.7040 hn        1 29U      0.462800
     52 H473        3.5830    3.3410   12.5070 hn        1 29U      0.481133
@<TRIPOS>BOND
     1    1    2 1   
     2    1   25 1   
     3    1   26 1   
     4    1   50 1   
     5    2    3 1   
     6    2    5 1   
     7    2   27 1   
     8    3    4 2   
     9    3    7 1   
    10    5    6 1   
    11    5   28 1   
    12    5   29 1   
    13    6   30 1   
    14    6   31 1   
    15    6   32 1   
    16    7    8 1   
    17    7   13 1   
    18    8    9 1   
    19    8   11 1   
    20    8   33 1   
    21    9   10 2   
    22    9   14 1   
    23   11   12 1   
    24   11   34 1   
    25   11   35 1   
    26   12   13 1   
    27   12   36 1   
    28   12   37 1   
    29   13   38 1   
    30   13   39 1   
    31   14   15 1   
    32   14   40 1   
    33   14   51 1   
    34   15   16 1   
    35   15   41 1   
    36   15   42 1   
    37   16   17 ar  
    38   16   24 ar  
    39   17   18 ar  
    40   17   43 1   
    41   18   19 ar  
    42   18   44 1   
    43   19   20 1   
    44   19   23 ar  
    45   20   21 2   
    46   20   22 1   
    47   21   45 1   
    48   22   46 1   
    49   22   47 1   
    50   22   52 1   
    51   23   24 ar  
    52   23   48 1   
    53   24   49 1   
@<TRIPOS>SUBSTRUCTURE
     1 29U         1 TEMP              0 ****  ****    0 ROOT
