@<TRIPOS>MOLECULE
29U
   52    53     1     0     0
SMALL
bcc


@<TRIPOS>ATOM
      1 N13         0.0850   -1.0180    0.0330 n4        1 29U     -0.837600
      2 C5          1.4550   -0.4160   -0.0970 c3        1 29U      0.061500
      3 C14         2.0500   -0.1750    1.3080 c         1 29U      0.654100
      4 O32         1.7040   -0.9030    2.2620 o         1 29U     -0.594100
      5 C33         2.3990   -1.3440   -0.8780 c3        1 29U     -0.107400
      6 C48         1.9440   -1.5630   -2.2970 c3        1 29U     -0.132100
      7 N1          2.9500    0.8480    1.4980 n         1 29U     -0.449800
      8 C1          3.7160    0.9560    2.7260 c3        1 29U      0.059700
      9 C7          2.8780    1.5210    3.8880 c         1 29U      0.523100
     10 O22         1.7770    2.0360    3.8560 o         1 29U     -0.379100
     11 C2          4.9050    1.9080    2.4400 c3        1 29U     -0.094400
     12 C3          4.6920    2.4530    1.0300 c3        1 29U     -0.093400
     13 C4          3.4430    1.7580    0.4690 c3        1 29U      0.076000
     14 N23         3.5300    1.3930    5.2600 n4        1 29U     -0.683800
     15 C24         3.2060    2.5470    6.1630 c3        1 29U      0.157100
     16 C25         3.6980    2.3560    7.5620 ca        1 29U     -0.138300
     17 C30         2.9270    1.6390    8.4850 ca        1 29U     -0.090500
     18 C29         3.3310    1.5480    9.8180 ca        1 29U     -0.081000
     19 C28         4.5100    2.1790   10.2320 ca        1 29U     -0.207900
     20 C21         4.9680    2.0360   11.6380 ce        1 29U      0.562800
     21 N46         5.6220    1.1020   12.2080 n2        1 29U     -0.664100
     22 N47         4.5780    3.2040   12.5010 n4        1 29U     -0.819600
     23 C27         5.2870    2.8930    9.3120 ca        1 29U     -0.081000
     24 C26         4.8810    2.9780    7.9790 ca        1 29U     -0.090500
     25 HN13       -0.2040   -1.3960   -0.8810 hn        1 29U      0.479800
     26 HN1A       -0.5910   -0.3140    0.3430 hn        1 29U      0.479800
     27 H5          1.3330    0.5620   -0.6570 hx        1 29U      0.134700
     28 H33         3.4140   -0.8610   -0.8830 hc        1 29U      0.094700
     29 H33A        2.5040   -2.3270   -0.3440 hc        1 29U      0.094700
     30 H48         1.0690   -2.2570   -2.3560 hc        1 29U      0.074033
     31 H48A        1.6810   -0.6000   -2.7990 hc        1 29U      0.074033
     32 H48B        2.7750   -2.0370   -2.8820 hc        1 29U      0.074033
     33 H1          4.0650   -0.0750    3.0390 h1        1 29U      0.115700
     34 H2          4.9530    2.7430    3.1800 hc        1 29U      0.081700
     35 H2A         5.8620    1.3290    2.5000 hc        1 29U      0.081700
     36 H3          4.5440    3.5630    1.0450 hc        1 29U      0.102700
     37 H3A         5.5820    2.2410    0.3830 hc        1 29U      0.102700
     38 H4          3.6960    1.1850   -0.4660 h1        1 29U      0.081200
     39 H4A         2.6410    2.5100    0.2270 h1        1 29U      0.081200
     40 HN23        4.5470    1.3190    5.1470 hn        1 29U      0.462800
     41 H24         3.6630    3.4730    5.7040 hx        1 29U      0.129700
     42 H24A        2.0790    2.6730    6.1630 hx        1 29U      0.129700
     43 H30         1.9830    1.1580    8.1760 ha        1 29U      0.167000
     44 H29         2.7150    0.9770   10.5340 ha        1 29U      0.176500
     45 HN46        5.9140    0.2980   11.6910 hn        1 29U      0.499400
     46 HN47        4.9660    4.0610   12.0940 hn        1 29U      0.481133
     47 HN4A        3.5550    3.2700   12.5270 hn        1 29U      0.481133
     48 H27         6.2250    3.3840    9.6250 ha        1 29U      0.176500
     49 H26         5.4940    3.5590    7.2690 ha        1 29U      0.167000
     50 H133        0.1080   -1.7830    0.7250 hn        1 29U      0.479800
     51 H232        3.1940    0.5230    5.6950 hn        1 29U      0.462800
     52 H473        4.9330    3.0980   13.4660 hn        1 29U      0.481133
@<TRIPOS>BOND
     1    1    2 1   
     2    1   25 1   
     3    1   26 1   
     4    1   50 1   
     5    2    3 1   
     6    2    5 1   
     7    2   27 1   
     8    3    4 2   
     9    3    7 1   
    10    5    6 1   
    11    5   28 1   
    12    5   29 1   
    13    6   30 1   
    14    6   31 1   
    15    6   32 1   
    16    7    8 1   
    17    7   13 1   
    18    8    9 1   
    19    8   11 1   
    20    8   33 1   
    21    9   10 2   
    22    9   14 1   
    23   11   12 1   
    24   11   34 1   
    25   11   35 1   
    26   12   13 1   
    27   12   36 1   
    28   12   37 1   
    29   13   38 1   
    30   13   39 1   
    31   14   15 1   
    32   14   40 1   
    33   14   51 1   
    34   15   16 1   
    35   15   41 1   
    36   15   42 1   
    37   16   17 ar  
    38   16   24 ar  
    39   17   18 ar  
    40   17   43 1   
    41   18   19 ar  
    42   18   44 1   
    43   19   20 1   
    44   19   23 ar  
    45   20   21 2   
    46   20   22 1   
    47   21   45 1   
    48   22   46 1   
    49   22   47 1   
    50   22   52 1   
    51   23   24 ar  
    52   23   48 1   
    53   24   49 1   
@<TRIPOS>SUBSTRUCTURE
     1 29U         1 TEMP              0 ****  ****    0 ROOT
