@<TRIPOS>MOLECULE
29U
   49    50     1     0     0
SMALL
bcc


@<TRIPOS>ATOM
      1 N13        -4.4710   -2.2380   -0.2330 n3        1 29U     -0.888800
      2 C5         -4.4970   -0.7950   -0.3110 c3        1 29U      0.119500
      3 C14        -3.0790   -0.1770   -0.4280 c         1 29U      0.615100
      4 O32        -2.2000   -0.7580   -1.1020 o         1 29U     -0.638100
      5 C33        -5.3020   -0.2750   -1.5140 c3        1 29U     -0.075400
      6 C48        -6.7660   -0.6030   -1.3890 c3        1 29U     -0.090100
      7 N1         -2.7780    0.9820    0.2570 n         1 29U     -0.455800
      8 C1         -1.5210    1.6950    0.0580 c3        1 29U      0.031700
      9 C7         -0.3820    1.1690    0.9640 c         1 29U      0.649100
     10 O22         0.2030    1.9200    1.7700 o         1 29U     -0.621100
     11 C2         -1.8020    3.1870    0.3390 c3        1 29U     -0.088400
     12 C3         -3.1920    3.2560    0.9590 c3        1 29U     -0.090400
     13 C4         -3.7770    1.8370    0.8730 c3        1 29U      0.087000
     14 N23        -0.0550   -0.1640    0.8420 n         1 29U     -0.550900
     15 C24         1.0710   -0.7350    1.5320 c3        1 29U      0.130300
     16 C25         2.3710   -0.6800    0.7780 ca        1 29U     -0.110300
     17 C30         2.9290   -1.8410    0.2380 ca        1 29U     -0.124000
     18 C29         4.1500   -1.7860   -0.4330 ca        1 29U     -0.103000
     19 C28         4.8160   -0.5640   -0.5690 ca        1 29U     -0.138900
     20 C21         6.1280   -0.4970   -1.2890 ce        1 29U      0.649800
     21 N46         6.2700    0.3760   -2.2400 n2        1 29U     -0.825100
     22 N47         7.0640   -1.4740   -0.8780 nh        1 29U     -0.957800
     23 C27         4.2530    0.6040   -0.0430 ca        1 29U     -0.103000
     24 C26         3.0350    0.5420    0.6320 ca        1 29U     -0.124000
     25 HN13       -4.1260   -2.6330   -1.0870 hn        1 29U      0.361800
     26 HN1A       -3.8870   -2.5360    0.5230 hn        1 29U      0.361800
     27 H5         -4.9880   -0.4310    0.6410 h1        1 29U      0.074700
     28 H33        -5.1680    0.8370   -1.5730 hc        1 29U      0.050200
     29 H33A       -4.8890   -0.7120   -2.4610 hc        1 29U      0.050200
     30 H48        -7.3280   -0.1720   -2.2530 hc        1 29U      0.040700
     31 H48A       -6.9290   -1.7080   -1.3770 hc        1 29U      0.040700
     32 H48B       -7.1880   -0.1780   -0.4450 hc        1 29U      0.040700
     33 H1         -1.1740    1.5530   -1.0090 h1        1 29U      0.085700
     34 H2         -1.0300    3.6150    1.0280 hc        1 29U      0.075200
     35 H2A        -1.7650    3.7570   -0.6220 hc        1 29U      0.075200
     36 H3         -3.1350    3.5830    2.0260 hc        1 29U      0.057700
     37 H3A        -3.8420    3.9800    0.4110 hc        1 29U      0.057700
     38 H4         -4.7270    1.8380    0.2690 h1        1 29U      0.049200
     39 H4A        -4.0150    1.4430    1.8990 h1        1 29U      0.049200
     40 HN23       -0.4120   -0.6720    0.0610 hn        1 29U      0.336500
     41 H24         1.2050   -0.1860    2.5110 h1        1 29U      0.066700
     42 H24A        0.8160   -1.8100    1.7590 h1        1 29U      0.066700
     43 H30         2.4060   -2.8040    0.3390 ha        1 29U      0.145500
     44 H29         4.5780   -2.7030   -0.8660 ha        1 29U      0.146000
     45 HN46        7.1560    0.3950   -2.6980 hn        1 29U      0.381400
     46 HN47        6.8980   -1.8710    0.0180 hn        1 29U      0.397300
     47 HN4A        8.0200   -1.2830   -1.0690 hn        1 29U      0.397300
     48 H27         4.7650    1.5700   -0.1700 ha        1 29U      0.146000
     49 H26         2.5830    1.4560    1.0530 ha        1 29U      0.145500
@<TRIPOS>BOND
     1    1    2 1   
     2    1   25 1   
     3    1   26 1   
     4    2    3 1   
     5    2    5 1   
     6    2   27 1   
     7    3    4 2   
     8    3    7 1   
     9    5    6 1   
    10    5   28 1   
    11    5   29 1   
    12    6   30 1   
    13    6   31 1   
    14    6   32 1   
    15    7    8 1   
    16    7   13 1   
    17    8    9 1   
    18    8   11 1   
    19    8   33 1   
    20    9   10 2   
    21    9   14 1   
    22   11   12 1   
    23   11   34 1   
    24   11   35 1   
    25   12   13 1   
    26   12   36 1   
    27   12   37 1   
    28   13   38 1   
    29   13   39 1   
    30   14   15 1   
    31   14   40 1   
    32   15   16 1   
    33   15   41 1   
    34   15   42 1   
    35   16   17 ar  
    36   16   24 ar  
    37   17   18 ar  
    38   17   43 1   
    39   18   19 ar  
    40   18   44 1   
    41   19   20 1   
    42   19   23 ar  
    43   20   21 2   
    44   20   22 1   
    45   21   45 1   
    46   22   46 1   
    47   22   47 1   
    48   23   24 ar  
    49   23   48 1   
    50   24   49 1   
@<TRIPOS>SUBSTRUCTURE
     1 29U         1 TEMP              0 ****  ****    0 ROOT
