@<TRIPOS>MOLECULE
29U
   49    46     1     0     0
SMALL
bcc


@<TRIPOS>ATOM
      1 N13        -2.1070    0.1760   -4.2940 n3        1 29U     -0.337000
      2 C5         -0.7750    0.6410   -4.2960 c3        1 29U     -0.040000
      3 C14        -0.2380    0.6340   -2.8860 c1        1 29U      0.308000
      4 O32         0.0440   -0.4190   -2.3500 o         1 29U     -0.401000
      5 C33         0.0870   -0.2740   -5.1760 c3        1 29U     -0.192000
      6 C48         0.0080    0.2000   -6.6450 c3        1 29U     -0.216000
      7 N1         -0.1230    1.8590   -2.1590 n2        1 29U     -0.304000
      8 C1          0.3620    2.0330   -0.6350 c3        1 29U      0.005000
      9 C7         -0.6430    1.4690    0.4250 c2        1 29U      0.296000
     10 O22        -1.8010    1.8390    0.4200 o         1 29U     -0.376000
     11 C2          0.5470    3.3160   -0.5600 c3        1 29U     -0.167000
     12 C3         -0.4330    3.9960   -1.6360 c3        1 29U     -0.174000
     13 C4         -0.4280    3.2400   -2.6700 c3        1 29U     -0.019000
     14 N23        -0.1770    0.5950    1.4560 n         1 29U     -0.364000
     15 C24        -0.9730   -0.5160    1.8600 c3        1 29U      0.003000
     16 C25        -0.3070   -1.2170    3.0190 c2        1 29U     -0.095000
     17 C30         1.0270   -1.5900    2.9280 c2        1 29U     -0.122000
     18 C29         1.6080   -2.3510    3.9380 c1        1 29U     -0.115000
     19 C28         0.8580   -2.7370    5.0320 c1        1 29U     -0.102000
     20 C21         1.5270   -3.4890    6.1940 c2        1 29U      0.117000
     21 N46         2.0160   -2.8210    7.2120 n1        1 29U     -0.305000
     22 N47         1.6170   -4.9160    6.1650 n3        1 29U     -0.333000
     23 C27        -0.4750   -2.3650    5.1240 c1        1 29U     -0.106000
     24 C26        -1.0580   -1.6020    4.1110 c1        1 29U     -0.113000
     25 HN13       -2.1250   -0.6980   -4.5580 hn        1 29U      0.154000
     26 HN1A       -2.6050    0.6780   -4.8700 hn        1 29U      0.154000
     27 H5         -0.7500    1.5500   -4.6490 h1        1 29U      0.113000
     28 H33        -0.2430   -1.1970   -5.1120 hc        1 29U      0.103500
     29 H33A        1.0180   -0.2380   -4.8710 hc        1 29U      0.103500
     30 H48         0.8650    0.0100   -7.1000 hc        1 29U      0.075333
     31 H48A       -0.1680    1.1630   -6.6680 hc        1 29U      0.075333
     32 H48B       -0.7180   -0.2760   -7.1040 hc        1 29U      0.075333
     33 H1          1.1720    1.5240   -0.4400 h1        1 29U      0.123000
     34 H2          1.4800    3.5320   -0.7730 hc        1 29U      0.113500
     35 H2A         0.3270    3.6340    0.3420 hc        1 29U      0.113500
     36 H3         -1.3360    4.0590   -1.2720 hc        1 29U      0.095000
     37 H3A        -0.1030    4.8910   -1.8730 hc        1 29U      0.095000
     38 H4         -1.3060    3.2530   -3.1020 h1        1 29U      0.097500
     39 H4A         0.2680    3.5310   -3.3020 h1        1 29U      0.097500
     40 HN23        0.6050    0.7820    1.8960 hn        1 29U      0.247000
     41 H24        -1.8540   -0.2020    2.1330 h1        1 29U      0.109500
     42 H24A       -1.0660   -1.1370    1.1140 h1        1 29U      0.109500
     43 H30         1.5630   -1.3150    2.1480 ha        1 29U      0.139000
     44 H29         2.5470   -2.6130    3.8740 ha        1 29U      0.132000
     45 HN46        1.9590   -1.9090    7.2310 DU        1 29U      0.150000
     46 HN47        1.4300   -5.3730    5.3890 hn        1 29U      0.195000
     47 HN4A        1.8770   -5.3760    6.9190 hn        1 29U      0.195000
     48 H27        -1.0040   -2.6360    5.8930 ha        1 29U      0.144000
     49 H26        -1.9970   -1.3400    4.1760 ha        1 29U      0.145000
@<TRIPOS>BOND
     1    1    2 1   
     2    1   25 1   
     3    1   26 1   
     4    2    3 1   
     5    2    5 1   
     6    2   27 1   
     7    3    4 1   
     8    5    6 1   
     9    5   28 1   
    10    5   29 1   
    11    6   30 1   
    12    6   31 1   
    13    6   32 1   
    14    7    8 1   
    15    7   13 1   
    16    8    9 1   
    17    8   11 1   
    18    8   33 1   
    19    9   10 1   
    20    9   14 1   
    21   11   12 1   
    22   11   34 1   
    23   11   35 1   
    24   12   13 1   
    25   12   36 1   
    26   12   37 1   
    27   13   38 1   
    28   13   39 1   
    29   14   15 1   
    30   14   40 1   
    31   15   16 1   
    32   15   41 1   
    33   15   42 1   
    34   16   17 1   
    35   16   24 1   
    36   17   18 1   
    37   17   43 1   
    38   18   44 1   
    39   19   20 1   
    40   19   23 1   
    41   20   21 1   
    42   20   22 1   
    43   22   46 1   
    44   22   47 1   
    45   23   48 1   
    46   24   49 1   
@<TRIPOS>SUBSTRUCTURE
     1 29U         1 TEMP              0 ****  ****    0 ROOT
