@<TRIPOS>MOLECULE
29U
   52    53     1     0     0
SMALL
bcc


@<TRIPOS>ATOM
      1 N13         0.0740   -1.0130    0.0360 n4        1 29U     -0.837600
      2 C5          1.4430   -0.4080   -0.0950 c3        1 29U      0.061500
      3 C14         2.0410   -0.1730    1.3100 c         1 29U      0.654100
      4 O32         1.6980   -0.9040    2.2620 o         1 29U     -0.594100
      5 C33         2.3860   -1.3330   -0.8810 c3        1 29U     -0.107400
      6 C48         1.9280   -1.5470   -2.3000 c3        1 29U     -0.132100
      7 N1          2.9410    0.8500    1.5020 n         1 29U     -0.449800
      8 C1          3.7090    0.9550    2.7280 c3        1 29U      0.059700
      9 C7          2.8740    1.5160    3.8940 c         1 29U      0.524100
     10 O22         1.7730    2.0300    3.8670 o         1 29U     -0.379100
     11 C2          4.8980    1.9070    2.4430 c3        1 29U     -0.094400
     12 C3          4.6810    2.4580    1.0360 c3        1 29U     -0.093400
     13 C4          3.4310    1.7650    0.4750 c3        1 29U      0.076000
     14 N23         3.5290    1.3840    5.2650 n4        1 29U     -0.683800
     15 C24         3.2260    2.5490    6.1620 c3        1 29U      0.157100
     16 C25         3.7130    2.3540    7.5620 ca        1 29U     -0.138300
     17 C30         2.9270    1.6560    8.4880 ca        1 29U     -0.090500
     18 C29         3.3270    1.5630    9.8220 ca        1 29U     -0.081000
     19 C28         4.5180    2.1730   10.2340 ca        1 29U     -0.207900
     20 C21         4.9710    2.0260   11.6410 ce        1 29U      0.562800
     21 N46         5.6070    1.0830   12.2160 n2        1 29U     -0.664100
     22 N47         4.6030    3.2040   12.4990 n4        1 29U     -0.819600
     23 C27         5.3100    2.8670    9.3130 ca        1 29U     -0.081000
     24 C26         4.9070    2.9550    7.9790 ca        1 29U     -0.090500
     25 HN13       -0.6020   -0.3100    0.3500 hn        1 29U      0.479800
     26 HN1A        0.0990   -1.7800    0.7250 hn        1 29U      0.479800
     27 H5          1.3190    0.5710   -0.6500 hx        1 29U      0.134700
     28 H33         2.4930   -2.3180   -0.3510 hc        1 29U      0.094700
     29 H33A        3.4010   -0.8490   -0.8860 hc        1 29U      0.094700
     30 H48         2.7590   -2.0180   -2.8890 hc        1 29U      0.074033
     31 H48A        1.0540   -2.2410   -2.3600 hc        1 29U      0.074033
     32 H48B        1.6640   -0.5820   -2.7980 hc        1 29U      0.074033
     33 H1          4.0580   -0.0780    3.0380 h1        1 29U      0.115700
     34 H2          5.8550    1.3270    2.4980 hc        1 29U      0.081700
     35 H2A         4.9480    2.7390    3.1870 hc        1 29U      0.081700
     36 H3          4.5320    3.5680    1.0560 hc        1 29U      0.102700
     37 H3A         5.5700    2.2490    0.3860 hc        1 29U      0.102700
     38 H4          3.6830    1.1950   -0.4630 h1        1 29U      0.081200
     39 H4A         2.6280    2.5180    0.2370 h1        1 29U      0.081200
     40 HN23        4.5440    1.2940    5.1490 hn        1 29U      0.462800
     41 H24         2.1020    2.6960    6.1600 hx        1 29U      0.129700
     42 H24A        3.7010    3.4630    5.6990 hx        1 29U      0.129700
     43 H30         1.9740    1.1920    8.1790 ha        1 29U      0.167000
     44 H29         2.6990    1.0060   10.5390 ha        1 29U      0.176500
     45 HN46        5.8830    0.2710   11.7020 hn        1 29U      0.499400
     46 HN47        4.9540    3.0950   13.4660 hn        1 29U      0.481133
     47 HN4A        5.0080    4.0530   12.0890 hn        1 29U      0.481133
     48 H27         6.2570    3.3410    9.6240 ha        1 29U      0.176500
     49 H26         5.5320    3.5200    7.2660 ha        1 29U      0.167000
     50 H133       -0.2170   -1.3870   -0.8790 hn        1 29U      0.479800
     51 H232        3.1800    0.5230    5.7050 hn        1 29U      0.462800
     52 H473        3.5800    3.2910   12.5240 hn        1 29U      0.481133
@<TRIPOS>BOND
     1    1    2 1   
     2    1   25 1   
     3    1   26 1   
     4    1   50 1   
     5    2    3 1   
     6    2    5 1   
     7    2   27 1   
     8    3    4 2   
     9    3    7 1   
    10    5    6 1   
    11    5   28 1   
    12    5   29 1   
    13    6   30 1   
    14    6   31 1   
    15    6   32 1   
    16    7    8 1   
    17    7   13 1   
    18    8    9 1   
    19    8   11 1   
    20    8   33 1   
    21    9   10 2   
    22    9   14 1   
    23   11   12 1   
    24   11   34 1   
    25   11   35 1   
    26   12   13 1   
    27   12   36 1   
    28   12   37 1   
    29   13   38 1   
    30   13   39 1   
    31   14   15 1   
    32   14   40 1   
    33   14   51 1   
    34   15   16 1   
    35   15   41 1   
    36   15   42 1   
    37   16   17 ar  
    38   16   24 ar  
    39   17   18 ar  
    40   17   43 1   
    41   18   19 ar  
    42   18   44 1   
    43   19   20 1   
    44   19   23 ar  
    45   20   21 2   
    46   20   22 1   
    47   21   45 1   
    48   22   46 1   
    49   22   47 1   
    50   22   52 1   
    51   23   24 ar  
    52   23   48 1   
    53   24   49 1   
@<TRIPOS>SUBSTRUCTURE
     1 29U         1 TEMP              0 ****  ****    0 ROOT
