@<TRIPOS>MOLECULE
29V
   48    41     1     0     0
SMALL
bcc


@<TRIPOS>ATOM
      1 C4'        -3.6690    0.8970   -3.2280 c3        1 29V     -0.205000
      2 C1'        -1.2220    0.9790   -3.2680 c3        1 29V     -0.148000
      3 C2'        -0.7550    0.9770   -1.8840 c3        1 29V     -0.123000
      4 C8          0.7640   -0.6560   -0.7980 c1        1 29V     -0.085000
      5 C5         -2.4130   -1.2730   -2.8910 c1        1 29V     -0.059000
      6 C6         -1.4320   -1.5540   -1.8430 c1        1 29V     -0.079000
      7 C4         -3.2910   -2.2680   -3.3040 c1        1 29V     -0.136000
      8 C2         -2.2770   -3.8190   -1.6900 c1        1 29V     -0.135500
      9 C18        -2.3560    0.1220   -3.5950 c3        1 29V     -0.065000
     10 C3         -3.2370   -3.5430   -2.7160 c1        1 29V     -0.135500
     11 C1         -1.3800   -2.8080   -1.2670 c1        1 29V     -0.113500
     12 C7         -0.4730   -0.3710   -1.3810 c1        1 29V     -0.085000
     13 C9          1.7980    0.4100   -0.6860 c1        1 29V     -0.079000
     14 C19         2.4600    0.9810   -1.9620 c2        1 29V     -0.166000
     15 C10         2.1650    0.8880    0.5530 c1        1 29V     -0.113500
     16 C11         1.5060    0.3230    1.8270 c2        1 29V     -0.090000
     17 C12         1.7000    1.3430    3.0060 c2        1 29V     -0.257000
     18 C13         2.2600    0.9260    4.1980 c1        1 29V     -0.020000
     19 C20         2.6530   -0.5170    4.3810 c3        1 29V     -0.204000
     20 C14         2.4570    1.9540    5.3810 c2        1 29V     -0.214000
     21 C15         1.4750    1.6490    6.4840 c2        1 29V      0.339000
     22 O1          0.3270    2.1560    6.4610 o         1 29V     -0.576000
     23 O2          1.8250    0.9420    7.4510 o         1 29V     -0.576000
     24 H1         -3.8960    0.7270   -2.2960 hc        1 29V      0.074333
     25 H2         -3.5300    1.8500   -3.3590 hc        1 29V      0.074333
     26 H3         -4.4110    0.5860   -3.8110 hc        1 29V      0.074333
     27 H4         -1.4700    1.9130   -3.5030 hc        1 29V      0.078500
     28 H5         -0.4710    0.7120   -3.8380 hc        1 29V      0.078500
     29 H6          0.0070    1.6160   -1.8240 hc        1 29V      0.095500
     30 H7         -1.3980    1.3990   -1.2750 hc        1 29V      0.095500
     31 H8          0.9520   -1.5610   -0.4610 ha        1 29V      0.127000
     32 H9         -3.9630   -2.0760   -4.0210 ha        1 29V      0.123000
     33 H10        -2.2400   -4.7060   -1.2830 ha        1 29V      0.125500
     34 H11        -2.3510   -0.0290   -4.5700 hc        1 29V      0.084000
     35 H12        -3.8560   -4.2430   -3.0070 ha        1 29V      0.125500
     36 H13        -0.7160   -2.9990   -0.5570 ha        1 29V      0.132500
     37 H14         2.1720    0.4580   -2.7430 ha        1 29V      0.072667
     38 H15         2.1920    1.9150   -2.0790 ha        1 29V      0.072667
     39 H16         3.4480    0.9290   -1.8750 ha        1 29V      0.072667
     40 H17         2.8430    1.5870    0.6250 ha        1 29V      0.132500
     41 H18         1.9280   -0.5390    2.0630 ha        1 29V      0.085500
     42 H19         0.5510    0.1850    1.6670 ha        1 29V      0.085500
     43 H20         1.4450    2.2770    2.8880 ha        1 29V      0.117000
     44 H21         1.8500   -1.0840    4.3350 hc        1 29V      0.085333
     45 H22         3.2790   -0.7790    3.6720 hc        1 29V      0.085333
     46 H23         3.0770   -0.6280    5.2420 hc        1 29V      0.085333
     47 H24         2.3060    2.8700    5.0510 ha        1 29V      0.072500
     48 H25         3.3680    1.8800    5.7270 ha        1 29V      0.072500
@<TRIPOS>BOND
     1    1    9 1   
     2    1   24 1   
     3    1   25 1   
     4    1   26 1   
     5    2    3 1   
     6    2    9 1   
     7    2   27 1   
     8    2   28 1   
     9    3   12 1   
    10    3   29 1   
    11    3   30 1   
    12    4   12 1   
    13    4   31 1   
    14    5    7 1   
    15    5    9 1   
    16    6   11 1   
    17    7   32 1   
    18    8   10 1   
    19    8   33 1   
    20    9   34 1   
    21   10   35 1   
    22   11   36 1   
    23   13   15 1   
    24   14   37 1   
    25   14   38 1   
    26   14   39 1   
    27   15   40 1   
    28   16   17 1   
    29   16   41 1   
    30   16   42 1   
    31   17   18 1   
    32   17   43 1   
    33   18   19 1   
    34   19   44 1   
    35   19   45 1   
    36   19   46 1   
    37   20   21 1   
    38   20   47 1   
    39   20   48 1   
    40   21   22 1   
    41   21   23 1   
@<TRIPOS>SUBSTRUCTURE
     1 29V         1 TEMP              0 ****  ****    0 ROOT
