@<TRIPOS>MOLECULE
29V
   48    49     1     0     0
SMALL
bcc


@<TRIPOS>ATOM
      1 C4'         0.3280    0.4800   -0.5480 c3        1 29V     -0.087100
      2 C1'         2.7320    0.1830   -0.0410 c3        1 29V     -0.071400
      3 C2'         3.7800    0.0710    1.0450 c3        1 29V     -0.037200
      4 C8          4.6380    1.9550    2.4260 ce        1 29V     -0.081000
      5 C5          1.1450    0.8670    1.7870 ca        1 29V     -0.062300
      6 C6          2.2440    1.3700    2.5140 ca        1 29V     -0.023800
      7 C4         -0.1500    1.0590    2.2840 ca        1 29V     -0.135000
      8 C2          0.7150    2.2330    4.2000 ca        1 29V     -0.136000
      9 C18         1.3240    0.0790    0.5250 c3        1 29V     -0.019400
     10 C3         -0.3690    1.7410    3.4770 ca        1 29V     -0.139000
     11 C1          2.0080    2.0420    3.7240 ca        1 29V     -0.126000
     12 C7          3.6130    1.1760    2.0330 cf        1 29V     -0.085400
     13 C9          6.0320    1.7920    2.0270 ce        1 29V     -0.157200
     14 C19         6.7190    0.5800    2.5440 c3        1 29V     -0.043900
     15 C10         6.6870    2.7090    1.2920 c2        1 29V     -0.104200
     16 C11         6.0790    3.9500    0.7520 c3        1 29V     -0.004000
     17 C12         7.0890    5.0180    0.5590 c2        1 29V     -0.265200
     18 C13         7.4990    5.5190   -0.6190 c2        1 29V     -0.020400
     19 C20         6.9960    5.0600   -1.9370 c3        1 29V     -0.083900
     20 C14         8.5100    6.6060   -0.6800 c3        1 29V     -0.183200
     21 C15         9.8500    6.1330   -1.2980 c         1 29V      0.918600
     22 O1          9.8860    5.9130   -2.5430 o         1 29V     -0.840800
     23 O2         10.8440    6.0290   -0.5290 o         1 29V     -0.840800
     24 H1          0.3310    1.5870   -0.6910 hc        1 29V      0.034367
     25 H2         -0.7060    0.1590   -0.2760 hc        1 29V      0.034367
     26 H3          0.5990   -0.0040   -1.5170 hc        1 29V      0.034367
     27 H4          2.8520    1.1640   -0.5730 hc        1 29V      0.046200
     28 H5          2.8840   -0.6310   -0.7970 hc        1 29V      0.046200
     29 H6          4.8020    0.1110    0.5810 hc        1 29V      0.052200
     30 H7          3.6840   -0.9170    1.5710 hc        1 29V      0.052200
     31 H8          4.4640    2.8130    3.1010 ha        1 29V      0.124000
     32 H9         -1.0110    0.6620    1.7260 ha        1 29V      0.125000
     33 H10         0.5520    2.7680    5.1470 ha        1 29V      0.125000
     34 H11         1.1380   -1.0030    0.7950 hc        1 29V      0.048700
     35 H12        -1.3940    1.8870    3.8470 ha        1 29V      0.122000
     36 H13         2.8580    2.4200    4.3140 ha        1 29V      0.134000
     37 H14         7.7110    0.4360    2.0490 hc        1 29V      0.034033
     38 H15         6.0960   -0.3320    2.3670 hc        1 29V      0.034033
     39 H16         6.8860    0.6790    3.6460 hc        1 29V      0.034033
     40 H17         7.7530    2.5620    1.0410 ha        1 29V      0.142000
     41 H18         5.2790    4.3220    1.4540 hc        1 29V      0.042200
     42 H19         5.5620    3.7000   -0.2160 hc        1 29V      0.042200
     43 H20         7.5300    5.3960    1.4960 ha        1 29V      0.116000
     44 H21         6.6890    3.9870   -1.9200 hc        1 29V      0.046367
     45 H22         6.1130    5.6750   -2.2430 hc        1 29V      0.046367
     46 H23         7.8080    5.1870   -2.7050 hc        1 29V      0.046367
     47 H24         8.7180    7.0170    0.3400 hc        1 29V      0.034200
     48 H25         8.1170    7.4350   -1.3240 hc        1 29V      0.034200
@<TRIPOS>BOND
     1    1    9 1   
     2    1   24 1   
     3    1   25 1   
     4    1   26 1   
     5    2    3 1   
     6    2    9 1   
     7    2   27 1   
     8    2   28 1   
     9    3   12 1   
    10    3   29 1   
    11    3   30 1   
    12    4   12 2   
    13    4   13 1   
    14    4   31 1   
    15    5    6 ar  
    16    5    7 ar  
    17    5    9 1   
    18    6   11 ar  
    19    6   12 1   
    20    7   10 ar  
    21    7   32 1   
    22    8   10 ar  
    23    8   11 ar  
    24    8   33 1   
    25    9   34 1   
    26   10   35 1   
    27   11   36 1   
    28   13   14 1   
    29   13   15 2   
    30   14   37 1   
    31   14   38 1   
    32   14   39 1   
    33   15   16 1   
    34   15   40 1   
    35   16   17 1   
    36   16   41 1   
    37   16   42 1   
    38   17   18 2   
    39   17   43 1   
    40   18   19 1   
    41   18   20 1   
    42   19   44 1   
    43   19   45 1   
    44   19   46 1   
    45   20   21 1   
    46   20   47 1   
    47   20   48 1   
    48   21   22 1   
    49   21   23 1   
@<TRIPOS>SUBSTRUCTURE
     1 29V         1 TEMP              0 ****  ****    0 ROOT
