@<TRIPOS>MOLECULE
29V
   48    49     1     0     0
SMALL
bcc


@<TRIPOS>ATOM
      1 C4'         4.7700   -0.8380    2.4830 c3        1 29V     -0.087100
      2 C1'         2.9530   -1.7660    1.0810 c3        1 29V     -0.071400
      3 C2'         2.3110   -1.7820   -0.2890 c3        1 29V     -0.037200
      4 C8          0.9080    0.0340   -1.2530 ce        1 29V     -0.078000
      5 C5          4.3030    0.1860    0.2470 ca        1 29V     -0.063300
      6 C6          3.2510    0.4980   -0.6400 ca        1 29V     -0.022800
      7 C4          5.4020    1.0490    0.3350 ca        1 29V     -0.135000
      8 C2          4.4370    2.5150   -1.3130 ca        1 29V     -0.136000
      9 C18         4.3080   -1.0740    1.0560 c3        1 29V     -0.019400
     10 C3          5.4710    2.2090   -0.4310 ca        1 29V     -0.139000
     11 C1          3.3420    1.6630   -1.4190 ca        1 29V     -0.126000
     12 C7          2.0920   -0.3870   -0.7690 cf        1 29V     -0.087400
     13 C9         -0.2730   -0.8000   -1.4540 ce        1 29V     -0.157200
     14 C19        -0.1680   -1.8280   -2.5220 c3        1 29V     -0.043900
     15 C10        -1.4160   -0.6150   -0.7710 c2        1 29V     -0.103200
     16 C11        -1.6110    0.3990    0.2950 c3        1 29V     -0.002000
     17 C12        -3.0200    0.8550    0.3770 c2        1 29V     -0.265200
     18 C13        -3.9760    0.2930    1.1370 c2        1 29V     -0.022400
     19 C20        -3.7400   -0.8870    2.0060 c3        1 29V     -0.084900
     20 C14        -5.3620    0.8260    1.1610 c3        1 29V     -0.183200
     21 C15        -6.3820   -0.1440    0.5130 c         1 29V      0.918600
     22 O1         -6.6520   -1.2200    1.1200 o         1 29V     -0.840800
     23 O2         -6.9160    0.2130   -0.5730 o         1 29V     -0.840800
     24 H1          4.5990   -1.7580    3.0950 hc        1 29V      0.033700
     25 H2          5.8580   -0.5950    2.5180 hc        1 29V      0.033700
     26 H3          4.2010    0.0050    2.9450 hc        1 29V      0.033700
     27 H4          2.2750   -1.2380    1.8030 hc        1 29V      0.045200
     28 H5          3.0840   -2.8170    1.4480 hc        1 29V      0.045200
     29 H6          2.9710   -2.3260   -1.0170 hc        1 29V      0.051700
     30 H7          1.3360   -2.3360   -0.2360 hc        1 29V      0.051700
     31 H8          0.7590    1.0930   -1.5310 ha        1 29V      0.124000
     32 H9          6.2300    0.8080    1.0190 ha        1 29V      0.124000
     33 H10         4.4850    3.4260   -1.9270 ha        1 29V      0.125000
     34 H11         5.0440   -1.7720    0.5570 hc        1 29V      0.048700
     35 H12         6.3400    2.8760   -0.3430 ha        1 29V      0.122000
     36 H13         2.5400    1.9070   -2.1320 ha        1 29V      0.135000
     37 H14         0.7780   -2.4140   -2.4150 hc        1 29V      0.034700
     38 H15        -1.0330   -2.5350   -2.4890 hc        1 29V      0.034700
     39 H16        -0.1590   -1.3330   -3.5260 hc        1 29V      0.034700
     40 H17        -2.2990   -1.2460   -0.9790 ha        1 29V      0.145000
     41 H18        -1.2870   -0.0520    1.2760 hc        1 29V      0.039200
     42 H19        -0.9410    1.2850    0.1120 hc        1 29V      0.039200
     43 H20        -3.2650    1.7130   -0.2680 ha        1 29V      0.117000
     44 H21        -3.5010   -0.5510    3.0460 hc        1 29V      0.047033
     45 H22        -4.6730   -1.5140    2.0350 hc        1 29V      0.047033
     46 H23        -2.8950   -1.5140    1.6330 hc        1 29V      0.047033
     47 H24        -5.6770    0.9790    2.2260 hc        1 29V      0.034200
     48 H25        -5.4210    1.8080    0.6280 hc        1 29V      0.034200
@<TRIPOS>BOND
     1    1    9 1   
     2    1   24 1   
     3    1   25 1   
     4    1   26 1   
     5    2    3 1   
     6    2    9 1   
     7    2   27 1   
     8    2   28 1   
     9    3   12 1   
    10    3   29 1   
    11    3   30 1   
    12    4   12 2   
    13    4   13 1   
    14    4   31 1   
    15    5    6 ar  
    16    5    7 ar  
    17    5    9 1   
    18    6   11 ar  
    19    6   12 1   
    20    7   10 ar  
    21    7   32 1   
    22    8   10 ar  
    23    8   11 ar  
    24    8   33 1   
    25    9   34 1   
    26   10   35 1   
    27   11   36 1   
    28   13   14 1   
    29   13   15 2   
    30   14   37 1   
    31   14   38 1   
    32   14   39 1   
    33   15   16 1   
    34   15   40 1   
    35   16   17 1   
    36   16   41 1   
    37   16   42 1   
    38   17   18 2   
    39   17   43 1   
    40   18   19 1   
    41   18   20 1   
    42   19   44 1   
    43   19   45 1   
    44   19   46 1   
    45   20   21 1   
    46   20   47 1   
    47   20   48 1   
    48   21   22 1   
    49   21   23 1   
@<TRIPOS>SUBSTRUCTURE
     1 29V         1 TEMP              0 ****  ****    0 ROOT
