@<TRIPOS>MOLECULE
29V
   48    49     1     0     0
SMALL
bcc


@<TRIPOS>ATOM
      1 C4'         0.3130    0.4840   -0.5220 c3        1 29V     -0.087100
      2 C1'         2.7210    0.1870   -0.0300 c3        1 29V     -0.071400
      3 C2'         3.7750    0.0750    1.0490 c3        1 29V     -0.037200
      4 C8          4.6430    1.9600    2.4230 ce        1 29V     -0.081000
      5 C5          1.1450    0.8720    1.8070 ca        1 29V     -0.062300
      6 C6          2.2490    1.3750    2.5270 ca        1 29V     -0.023800
      7 C4         -0.1460    1.0650    2.3130 ca        1 29V     -0.135000
      8 C2          0.7310    2.2400    4.2230 ca        1 29V     -0.136000
      9 C18         1.3160    0.0840    0.5450 c3        1 29V     -0.019400
     10 C3         -0.3580    1.7480    3.5070 ca        1 29V     -0.139000
     11 C1          2.0210    2.0490    3.7380 ca        1 29V     -0.126000
     12 C7          3.6150    1.1810    2.0370 cf        1 29V     -0.085400
     13 C9          6.0340    1.7970    2.0150 ce        1 29V     -0.157200
     14 C19         6.7240    0.5840    2.5290 c3        1 29V     -0.043900
     15 C10         6.6850    2.7130    1.2770 c2        1 29V     -0.104200
     16 C11         6.0740    3.9540    0.7410 c3        1 29V     -0.004000
     17 C12         7.0830    5.0220    0.5420 c2        1 29V     -0.265200
     18 C13         7.4940    5.5160   -0.6380 c2        1 29V     -0.020400
     19 C20         6.9930    5.0480   -1.9550 c3        1 29V     -0.083900
     20 C14         8.5040    6.6040   -0.7050 c3        1 29V     -0.183200
     21 C15         9.8450    6.1280   -1.3170 c         1 29V      0.918600
     22 O1          9.8840    5.8970   -2.5600 o         1 29V     -0.840800
     23 O2         10.8380    6.0320   -0.5450 o         1 29V     -0.840800
     24 H1          0.3150    1.5910   -0.6660 hc        1 29V      0.034367
     25 H2          0.5780   -0.0010   -1.4930 hc        1 29V      0.034367
     26 H3         -0.7190    0.1630   -0.2430 hc        1 29V      0.034367
     27 H4          2.8680   -0.6270   -0.7870 hc        1 29V      0.046200
     28 H5          2.8370    1.1680   -0.5640 hc        1 29V      0.046200
     29 H6          3.6830   -0.9120    1.5760 hc        1 29V      0.052200
     30 H7          4.7940    0.1150    0.5780 hc        1 29V      0.052200
     31 H8          4.4730    2.8180    3.1000 ha        1 29V      0.124000
     32 H9         -1.0120    0.6680    1.7600 ha        1 29V      0.125000
     33 H10         0.5740    2.7760    5.1700 ha        1 29V      0.125000
     34 H11         1.1320   -0.9990    0.8170 hc        1 29V      0.048700
     35 H12        -1.3800    1.8950    3.8830 ha        1 29V      0.122000
     36 H13         2.8740    2.4260    4.3220 ha        1 29V      0.134000
     37 H14         6.0990   -0.3280    2.3570 hc        1 29V      0.034033
     38 H15         6.8990    0.6830    3.6290 hc        1 29V      0.034033
     39 H16         7.7120    0.4390    2.0280 hc        1 29V      0.034033
     40 H17         7.7490    2.5660    1.0190 ha        1 29V      0.142000
     41 H18         5.5520    3.7050   -0.2250 hc        1 29V      0.042200
     42 H19         5.2780    4.3260    1.4470 hc        1 29V      0.042200
     43 H20         7.5220    5.4070    1.4770 ha        1 29V      0.116000
     44 H21         6.6850    3.9750   -1.9290 hc        1 29V      0.046367
     45 H22         6.1120    5.6620   -2.2660 hc        1 29V      0.046367
     46 H23         7.8070    5.1680   -2.7220 hc        1 29V      0.046367
     47 H24         8.7090    7.0220    0.3120 hc        1 29V      0.034200
     48 H25         8.1110    7.4280   -1.3560 hc        1 29V      0.034200
@<TRIPOS>BOND
     1    1    9 1   
     2    1   24 1   
     3    1   25 1   
     4    1   26 1   
     5    2    3 1   
     6    2    9 1   
     7    2   27 1   
     8    2   28 1   
     9    3   12 1   
    10    3   29 1   
    11    3   30 1   
    12    4   12 2   
    13    4   13 1   
    14    4   31 1   
    15    5    6 ar  
    16    5    7 ar  
    17    5    9 1   
    18    6   11 ar  
    19    6   12 1   
    20    7   10 ar  
    21    7   32 1   
    22    8   10 ar  
    23    8   11 ar  
    24    8   33 1   
    25    9   34 1   
    26   10   35 1   
    27   11   36 1   
    28   13   14 1   
    29   13   15 2   
    30   14   37 1   
    31   14   38 1   
    32   14   39 1   
    33   15   16 1   
    34   15   40 1   
    35   16   17 1   
    36   16   41 1   
    37   16   42 1   
    38   17   18 2   
    39   17   43 1   
    40   18   19 1   
    41   18   20 1   
    42   19   44 1   
    43   19   45 1   
    44   19   46 1   
    45   20   21 1   
    46   20   47 1   
    47   20   48 1   
    48   21   22 1   
    49   21   23 1   
@<TRIPOS>SUBSTRUCTURE
     1 29V         1 TEMP              0 ****  ****    0 ROOT
