@<TRIPOS>MOLECULE
29W
   45    47     1     0     0
SMALL
bcc


@<TRIPOS>ATOM
      1 OXT        -0.4770   -0.4180    0.7910 o         1 29W     -0.812800
      2 C           0.5070   -1.0070    0.2830 c         1 29W      0.914600
      3 O           0.8510   -2.2030    0.4850 o         1 29W     -0.812800
      4 CA          1.4420   -0.1660   -0.6570 c3        1 29W     -0.128700
      5 N           0.9920   -0.0660   -2.0190 na        1 29W      0.049600
      6 CAZ         0.6230   -1.1360   -2.8340 ca        1 29W     -0.052200
      7 CAM         0.6070   -2.5250   -2.5700 ca        1 29W     -0.075000
      8 CAL         0.2120   -3.3720   -3.5820 ca        1 29W     -0.187000
      9 CAV        -0.1790   -2.8660   -4.8500 ca        1 29W      0.075100
     10 OAR        -0.5300   -3.7030   -5.9070 os        1 29W     -0.347900
     11 CAA        -1.0790   -4.9570   -5.5270 c3        1 29W      0.120700
     12 CAN        -0.1940   -1.5080   -5.1340 ca        1 29W     -0.127000
     13 CAY         0.2110   -0.6220   -4.1250 ca        1 29W     -0.094800
     14 CAO         0.3210    0.8010   -4.0490 cc        1 29W     -0.181200
     15 CAX         0.7990    1.1050   -2.7570 cd        1 29W     -0.148300
     16 CAT         1.1150    2.4600   -2.2700 c         1 29W      0.744300
     17 OAD         2.0760    2.7350   -1.5310 o         1 29W     -0.585100
     18 NAQ         0.2890    3.4940   -2.7380 n         1 29W     -0.681300
     19 SBB         0.4270    5.1130   -2.5220 sy        1 29W      1.513900
     20 OAE        -0.6390    5.7020   -3.2480 o         1 29W     -0.650800
     21 OAF         0.5170    5.4830   -1.1730 o         1 29W     -0.650800
     22 CAW         1.8730    5.4940   -3.2990 ca        1 29W     -0.388500
     23 CAJ         1.8640    6.0620   -4.5800 ca        1 29W     -0.003000
     24 CAH         3.0490    6.4180   -5.2140 ca        1 29W     -0.166500
     25 CAU         4.2790    6.2080   -4.5760 ca        1 29W     -0.016300
     26 CAB         5.5450    6.5650   -5.2550 c3        1 29W     -0.063800
     27 CAI         4.2970    5.6430   -3.2960 ca        1 29W     -0.166500
     28 CAK         3.1060    5.2890   -2.6680 ca        1 29W     -0.003000
     29 H2          1.5280    0.8690   -0.2280 h1        1 29W      0.060700
     30 H3          2.4580   -0.6520   -0.6660 h1        1 29W      0.060700
     31 H4          0.8800   -2.8910   -1.5600 ha        1 29W      0.207000
     32 H5          0.1940   -4.4560   -3.4020 ha        1 29W      0.128000
     33 H6         -1.5520   -5.3410   -6.4650 h1        1 29W      0.033367
     34 H7         -1.8410   -4.8420   -4.7190 h1        1 29W      0.033367
     35 H8         -0.2650   -5.6470   -5.1940 h1        1 29W      0.033367
     36 H9         -0.5070   -1.1390   -6.1180 ha        1 29W      0.133000
     37 H10         0.1000    1.5060   -4.8420 ha        1 29W      0.141000
     38 H11        -0.4950    3.1600   -3.2640 hn        1 29W      0.347500
     39 H12         0.8960    6.2380   -5.0830 ha        1 29W      0.165500
     40 H13         3.0230    6.8640   -6.2180 ha        1 29W      0.135500
     41 H14         6.3250    6.8700   -4.5150 hc        1 29W      0.047700
     42 H15         5.9300    5.6790   -5.8230 hc        1 29W      0.047700
     43 H16         5.3920    7.4040   -5.9780 hc        1 29W      0.047700
     44 H17         5.2560    5.4720   -2.7840 ha        1 29W      0.135500
     45 H18         3.1260    4.8290   -1.6610 ha        1 29W      0.165500
@<TRIPOS>BOND
     1    1    2 1   
     2    2    3 1   
     3    2    4 1   
     4    4    5 1   
     5    4   29 1   
     6    4   30 1   
     7    5    6 1   
     8    5   15 1   
     9    6    7 ar  
    10    6   13 ar  
    11    7    8 ar  
    12    7   31 1   
    13    8    9 ar  
    14    8   32 1   
    15    9   10 1   
    16    9   12 ar  
    17   10   11 1   
    18   11   33 1   
    19   11   34 1   
    20   11   35 1   
    21   12   13 ar  
    22   12   36 1   
    23   13   14 1   
    24   14   15 2   
    25   14   37 1   
    26   15   16 1   
    27   16   17 2   
    28   16   18 1   
    29   18   19 1   
    30   18   38 1   
    31   19   20 2   
    32   19   21 2   
    33   19   22 1   
    34   22   23 ar  
    35   22   28 ar  
    36   23   24 ar  
    37   23   39 1   
    38   24   25 ar  
    39   24   40 1   
    40   25   26 1   
    41   25   27 ar  
    42   26   41 1   
    43   26   42 1   
    44   26   43 1   
    45   27   28 ar  
    46   27   44 1   
    47   28   45 1   
@<TRIPOS>SUBSTRUCTURE
     1 29W         1 TEMP              0 ****  ****    0 ROOT
