@<TRIPOS>MOLECULE
29W
   46    48     1     0     0
SMALL
bcc


@<TRIPOS>ATOM
      1 OXT         1.2960    1.5720   -2.5580 os        1 29W     -0.450200
      2 C           1.7860    0.6370   -1.6680 c         1 29W      0.724600
      3 O           2.4990    1.1410   -0.8080 o         1 29W     -0.533500
      4 CA          1.4350   -0.8320   -1.7620 c3        1 29W     -0.037700
      5 N           0.7960   -1.1880   -2.9900 na        1 29W     -0.074400
      6 CAZ         0.2650   -2.4340   -3.3450 ca        1 29W     -0.035200
      7 CAM         0.5000   -3.7150   -2.8260 ca        1 29W     -0.118000
      8 CAL        -0.1330   -4.7910   -3.4280 ca        1 29W     -0.151000
      9 CAV        -0.9880   -4.6040   -4.5370 ca        1 29W      0.099100
     10 OAR        -1.6460   -5.6350   -5.1830 os        1 29W     -0.324900
     11 CAA        -1.4140   -6.9470   -4.6830 c3        1 29W      0.112700
     12 CAN        -1.2360   -3.3350   -5.0740 ca        1 29W     -0.096000
     13 CAY        -0.6160   -2.2400   -4.4780 ca        1 29W     -0.091800
     14 CAO        -0.6450   -0.8210   -4.7520 cc        1 29W     -0.047200
     15 CAX         0.1850   -0.2100   -3.8150 cd        1 29W     -0.175300
     16 CAT         0.4830    1.1980   -3.6250 c         1 29W      0.774800
     17 OAD         0.1150    2.1700   -4.2770 o         1 29W     -0.540500
     18 NAQ         0.9640    4.4680   -2.4290 n3        1 29W     -1.033700
     19 SBB         0.8460    6.0050   -2.0360 sy        1 29W      1.526200
     20 OAE         0.9320    6.1460   -0.6310 o         1 29W     -0.666300
     21 OAF        -0.2830    6.5740   -2.6680 o         1 29W     -0.666300
     22 CAW         2.2350    6.6950   -2.7170 ca        1 29W     -0.382500
     23 CAJ         2.2130    7.2110   -4.0180 ca        1 29W     -0.014000
     24 CAH         3.3460    7.7930   -4.5770 ca        1 29W     -0.162000
     25 CAU         4.5340    7.8740   -3.8380 ca        1 29W     -0.017300
     26 CAB         5.7380    8.5060   -4.4230 c3        1 29W     -0.065800
     27 CAI         4.5620    7.3670   -2.5330 ca        1 29W     -0.162000
     28 CAK         3.4230    6.7860   -1.9840 ca        1 29W     -0.014000
     29 H2          2.3920   -1.4260   -1.6600 h1        1 29W      0.099700
     30 H3          0.7770   -1.0760   -0.8730 h1        1 29W      0.099700
     31 H4          1.1680   -3.8650   -1.9660 ha        1 29W      0.142000
     32 H5          0.0390   -5.8020   -3.0290 ha        1 29W      0.145000
     33 H6         -0.3330   -7.2170   -4.7660 h1        1 29W      0.046367
     34 H7         -1.7620   -7.0350   -3.6260 h1        1 29W      0.046367
     35 H8         -2.0330   -7.5920   -5.3570 h1        1 29W      0.046367
     36 H9         -1.9020   -3.2160   -5.9400 ha        1 29W      0.162000
     37 H10        -1.2050   -0.3260   -5.5440 ha        1 29W      0.181000
     38 H11         1.4490    3.7900   -1.8920 hn        1 29W      0.459800
     39 H12         1.2750    7.1670   -4.5990 ha        1 29W      0.152000
     40 H13         3.3110    8.1940   -5.6010 ha        1 29W      0.137000
     41 H14         5.7370    9.6030   -4.1940 hc        1 29W      0.050367
     42 H15         5.7580    8.3810   -5.5340 hc        1 29W      0.050367
     43 H16         6.6710    8.0610   -3.9980 hc        1 29W      0.050367
     44 H17         5.4870    7.4300   -1.9420 ha        1 29W      0.137000
     45 H18         3.4470    6.4060   -0.9470 ha        1 29W      0.152000
     46 HAQ2        0.5680    4.0690   -3.2480 hn        1 29W      0.459800
@<TRIPOS>BOND
     1    1    2 1   
     2    1   16 1   
     3    2    3 2   
     4    2    4 1   
     5    4    5 1   
     6    4   29 1   
     7    4   30 1   
     8    5    6 1   
     9    5   15 1   
    10    6    7 ar  
    11    6   13 ar  
    12    7    8 ar  
    13    7   31 1   
    14    8    9 ar  
    15    8   32 1   
    16    9   10 1   
    17    9   12 ar  
    18   10   11 1   
    19   11   33 1   
    20   11   34 1   
    21   11   35 1   
    22   12   13 ar  
    23   12   36 1   
    24   13   14 1   
    25   14   15 2   
    26   14   37 1   
    27   15   16 1   
    28   16   17 2   
    29   18   19 1   
    30   18   38 1   
    31   18   46 1   
    32   19   20 2   
    33   19   21 2   
    34   19   22 1   
    35   22   23 ar  
    36   22   28 ar  
    37   23   24 ar  
    38   23   39 1   
    39   24   25 ar  
    40   24   40 1   
    41   25   26 1   
    42   25   27 ar  
    43   26   41 1   
    44   26   42 1   
    45   26   43 1   
    46   27   28 ar  
    47   27   44 1   
    48   28   45 1   
@<TRIPOS>SUBSTRUCTURE
     1 29W         1 TEMP              0 ****  ****    0 ROOT
