@<TRIPOS>MOLECULE
29W
   46    48     1     0     0
SMALL
bcc


@<TRIPOS>ATOM
      1 OXT         1.2930    1.5690   -2.5730 os        1 29W     -0.450200
      2 C           1.7600    0.6380   -1.6670 c         1 29W      0.724600
      3 O           2.4580    1.1450   -0.7960 o         1 29W     -0.533500
      4 CA          1.4050   -0.8300   -1.7580 c3        1 29W     -0.037700
      5 N           0.7880   -1.1910   -2.9970 na        1 29W     -0.074400
      6 CAZ         0.2590   -2.4370   -3.3540 ca        1 29W     -0.035200
      7 CAM         0.4770   -3.7160   -2.8220 ca        1 29W     -0.118000
      8 CAL        -0.1490   -4.7930   -3.4300 ca        1 29W     -0.151000
      9 CAV        -0.9790   -4.6090   -4.5570 ca        1 29W      0.099100
     10 OAR        -1.6290   -5.6420   -5.2090 os        1 29W     -0.324900
     11 CAA        -1.4160   -6.9510   -4.6940 c3        1 29W      0.112700
     12 CAN        -1.2110   -3.3430   -5.1070 ca        1 29W     -0.096000
     13 CAY        -0.5980   -2.2470   -4.5060 ca        1 29W     -0.091800
     14 CAO        -0.6150   -0.8290   -4.7900 cc        1 29W     -0.047200
     15 CAX         0.1990   -0.2160   -3.8400 cd        1 29W     -0.175300
     16 CAT         0.5000    1.1920   -3.6540 c         1 29W      0.774800
     17 OAD         0.1490    2.1610   -4.3190 o         1 29W     -0.540500
     18 NAQ         0.9580    4.4650   -2.4620 n8        1 29W     -1.033700
     19 SBB         0.8260    6.0020   -2.0720 sy        1 29W      1.526200
     20 OAE         0.8790    6.1440   -0.6660 o         1 29W     -0.666300
     21 OAF        -0.2900    6.5670   -2.7310 o         1 29W     -0.666300
     22 CAW         2.2280    6.6960   -2.7210 ca        1 29W     -0.382500
     23 CAJ         2.2350    7.2130   -4.0220 ca        1 29W     -0.014000
     24 CAH         3.3790    7.7990   -4.5540 ca        1 29W     -0.162000
     25 CAU         4.5490    7.8830   -3.7880 ca        1 29W     -0.017300
     26 CAB         5.7650    8.5180   -4.3450 c3        1 29W     -0.065800
     27 CAI         4.5490    7.3740   -2.4840 ca        1 29W     -0.162000
     28 CAK         3.3990    6.7900   -1.9610 ca        1 29W     -0.014000
     29 H2          2.3570   -1.4280   -1.6340 h1        1 29W      0.099700
     30 H3          0.7290   -1.0660   -0.8820 h1        1 29W      0.099700
     31 H4          1.1270   -3.8630   -1.9480 ha        1 29W      0.142000
     32 H5          0.0110   -5.8020   -3.0210 ha        1 29W      0.145000
     33 H6         -2.0250   -7.5980   -5.3760 h1        1 29W      0.046367
     34 H7         -0.3350   -7.2280   -4.7520 h1        1 29W      0.046367
     35 H8         -1.7870   -7.0280   -3.6440 h1        1 29W      0.046367
     36 H9         -1.8580   -3.2270   -5.9880 ha        1 29W      0.162000
     37 H10        -1.1560   -0.3370   -5.5970 ha        1 29W      0.181000
     38 H11         0.5820    4.0650   -3.2900 hn        1 29W      0.459800
     39 H12         1.3100    7.1680   -4.6240 ha        1 29W      0.152000
     40 H13         3.3660    8.2000   -5.5780 ha        1 29W      0.137000
     41 H14         5.8100    8.3960   -5.4550 hc        1 29W      0.050367
     42 H15         6.6890    8.0730   -3.9010 hc        1 29W      0.050367
     43 H16         5.7580    9.6140   -4.1130 hc        1 29W      0.050367
     44 H17         5.4600    7.4390   -1.8710 ha        1 29W      0.137000
     45 H18         3.4000    6.4090   -0.9240 ha        1 29W      0.152000
     46 HAQ2        1.4330    3.7890   -1.9130 hn        1 29W      0.459800
@<TRIPOS>BOND
     1    1    2 1   
     2    1   16 1   
     3    2    3 2   
     4    2    4 1   
     5    4    5 1   
     6    4   29 1   
     7    4   30 1   
     8    5    6 1   
     9    5   15 1   
    10    6    7 ar  
    11    6   13 ar  
    12    7    8 ar  
    13    7   31 1   
    14    8    9 ar  
    15    8   32 1   
    16    9   10 1   
    17    9   12 ar  
    18   10   11 1   
    19   11   33 1   
    20   11   34 1   
    21   11   35 1   
    22   12   13 ar  
    23   12   36 1   
    24   13   14 1   
    25   14   15 2   
    26   14   37 1   
    27   15   16 1   
    28   16   17 2   
    29   18   19 1   
    30   18   38 1   
    31   18   46 1   
    32   19   20 2   
    33   19   21 2   
    34   19   22 1   
    35   22   23 ar  
    36   22   28 ar  
    37   23   24 ar  
    38   23   39 1   
    39   24   25 ar  
    40   24   40 1   
    41   25   26 1   
    42   25   27 ar  
    43   26   41 1   
    44   26   42 1   
    45   26   43 1   
    46   27   28 ar  
    47   27   44 1   
    48   28   45 1   
@<TRIPOS>SUBSTRUCTURE
     1 29W         1 TEMP              0 ****  ****    0 ROOT
