@<TRIPOS>MOLECULE
29X
   44    47     1     0     0
SMALL
bcc


@<TRIPOS>ATOM
      1 F21        -0.0540   -0.1850   -0.0210 f         1 29X     -0.138900
      2 C4          1.2990   -0.1390   -0.0010 ca        1 29X      0.125900
      3 C5          1.9790    0.0350    1.2190 ca        1 29X     -0.164000
      4 C6          3.3690    0.0810    1.2280 ca        1 29X     -0.103000
      5 C3          2.0230   -0.2650   -1.2010 ca        1 29X     -0.164000
      6 C2          3.4130   -0.2140   -1.1690 ca        1 29X     -0.103000
      7 C1          4.1000   -0.0400    0.0390 ca        1 29X     -0.099300
      8 C7          5.5950   -0.0070    0.0490 c3        1 29X     -0.015400
      9 C8          6.1440   -1.1980    0.8290 c3        1 29X     -0.071400
     10 C9          7.6700   -1.1660    0.8860 c3        1 29X      0.160800
     11 N10         8.1870    0.0890    1.3940 n7        1 29X     -0.820200
     12 C11         7.6780    1.2490    0.6930 c3        1 29X      0.165800
     13 C12         6.1440    1.2930    0.6420 c3        1 29X     -0.062700
     14 C13         5.6970    2.4860   -0.1960 c3        1 29X      0.125400
     15 O14         6.0220    3.6540    0.5730 os        1 29X     -0.326900
     16 C15         5.6640    4.8630    0.0210 ca        1 29X      0.149100
     17 C16         5.9940    5.9820    0.8420 ca        1 29X     -0.103000
     18 C20         5.0420    5.0190   -1.2170 ca        1 29X     -0.215000
     19 C19         4.7210    6.3060   -1.6940 ca        1 29X     -0.014000
     20 C18         5.0360    7.3900   -0.9120 ca        1 29X     -0.223600
     21 C22         4.8490    8.8730   -1.0930 c         1 29X      0.687100
     22 O25         4.3420    9.4540   -2.0470 o         1 29X     -0.468100
     23 C17         5.6740    7.2220    0.3590 ca        1 29X     -0.173900
     24 C24         5.8500    8.6030    0.9020 cc        1 29X      0.504800
     25 N23         5.3970    9.5330    0.1080 nd        1 29X     -0.595100
     26 H1          1.4060    0.1310    2.1530 ha        1 29X      0.150500
     27 H2          3.8980    0.2130    2.1840 ha        1 29X      0.140000
     28 H3          1.4860   -0.4030   -2.1500 ha        1 29X      0.150500
     29 H4          3.9760   -0.3180   -2.1100 ha        1 29X      0.140000
     30 H5          5.9690   -0.0830   -1.0140 hc        1 29X      0.052700
     31 H6          5.7250   -1.1900    1.8690 hc        1 29X      0.054700
     32 H7          5.8230   -2.1510    0.3360 hc        1 29X      0.054700
     33 H8          8.0250   -1.9800    1.5780 h1        1 29X      0.030700
     34 H9          8.0660   -1.4010   -0.1470 h1        1 29X      0.030700
     35 H10         9.1890    0.0860    1.3690 hn        1 29X      0.367800
     36 H12         8.0380    2.1670    1.2400 h1        1 29X      0.036200
     37 H13         8.0660    1.3080   -0.3680 h1        1 29X      0.036200
     38 H14         5.7480    1.4200    1.6880 hc        1 29X      0.082700
     39 H15         4.5890    2.4500   -0.3710 h1        1 29X      0.049700
     40 H16         6.2390    2.5260   -1.1770 h1        1 29X      0.049700
     41 H17         6.4820    5.8180    1.8120 ha        1 29X      0.161000
     42 H18         4.7900    4.1490   -1.8390 ha        1 29X      0.147000
     43 H19         4.2290    6.4270   -2.6710 ha        1 29X      0.155000
     44 H20         6.3150    8.8110    1.8750 h4        1 29X      0.051800
@<TRIPOS>BOND
     1    1    2 1   
     2    2    3 ar  
     3    2    5 ar  
     4    3    4 ar  
     5    3   26 1   
     6    4    7 ar  
     7    4   27 1   
     8    5    6 ar  
     9    5   28 1   
    10    6    7 ar  
    11    6   29 1   
    12    7    8 1   
    13    8    9 1   
    14    8   13 1   
    15    8   30 1   
    16    9   10 1   
    17    9   31 1   
    18    9   32 1   
    19   10   11 1   
    20   10   33 1   
    21   10   34 1   
    22   11   12 1   
    23   11   35 1   
    24   12   13 1   
    25   12   36 1   
    26   12   37 1   
    27   13   14 1   
    28   13   38 1   
    29   14   15 1   
    30   14   39 1   
    31   14   40 1   
    32   15   16 1   
    33   16   17 ar  
    34   16   18 ar  
    35   17   23 ar  
    36   17   41 1   
    37   18   19 ar  
    38   18   42 1   
    39   19   20 ar  
    40   19   43 1   
    41   20   21 1   
    42   20   23 ar  
    43   21   22 2   
    44   21   25 1   
    45   23   24 1   
    46   24   25 2   
    47   24   44 1   
@<TRIPOS>SUBSTRUCTURE
     1 29X         1 TEMP              0 ****  ****    0 ROOT
