@<TRIPOS>MOLECULE
29X
   44    47     1     0     0
SMALL
bcc


@<TRIPOS>ATOM
      1 F21        -0.0610   -0.1380    0.0390 f         1 29X     -0.138900
      2 C4          1.2930   -0.1040    0.0440 ca        1 29X      0.125900
      3 C5          1.9870    0.0710    1.2560 ca        1 29X     -0.164000
      4 C6          3.3770    0.1050    1.2510 ca        1 29X     -0.103000
      5 C3          2.0040   -0.2430   -1.1620 ca        1 29X     -0.164000
      6 C2          3.3940   -0.2050   -1.1440 ca        1 29X     -0.103000
      7 C1          4.0950   -0.0290    0.0560 ca        1 29X     -0.099300
      8 C7          5.5910   -0.0100    0.0500 c3        1 29X     -0.015400
      9 C8          6.1370   -1.2010    0.8320 c3        1 29X     -0.071400
     10 C9          7.6630   -1.1820    0.8730 c3        1 29X      0.160800
     11 N10         8.1960    0.0710    1.3690 n3        1 29X     -0.820200
     12 C11         7.6910    1.2320    0.6660 c3        1 29X      0.165800
     13 C12         6.1560    1.2890    0.6290 c3        1 29X     -0.062700
     14 C13         5.7110    2.4810   -0.2110 c3        1 29X      0.125400
     15 O14         6.0540    3.6500    0.5480 os        1 29X     -0.326900
     16 C15         5.7010    4.8590   -0.0080 ca        1 29X      0.149100
     17 C16         6.0490    5.9800    0.8040 ca        1 29X     -0.103000
     18 C20         5.0680    5.0140   -1.2410 ca        1 29X     -0.215000
     19 C19         4.7540    6.3010   -1.7210 ca        1 29X     -0.014000
     20 C18         5.0850    7.3860   -0.9490 ca        1 29X     -0.223600
     21 C22         4.9090    8.8690   -1.1370 c         1 29X      0.687100
     22 O25         4.3970    9.4490   -2.0890 o         1 29X     -0.468100
     23 C17         5.7340    7.2200    0.3170 ca        1 29X     -0.173900
     24 C24         5.9270    8.6020    0.8510 cc        1 29X      0.504800
     25 N23         5.4740    9.5310    0.0550 nd        1 29X     -0.595100
     26 H1          1.4240    0.1780    2.1950 ha        1 29X      0.150500
     27 H2          3.9170    0.2380    2.2010 ha        1 29X      0.140000
     28 H3          1.4560   -0.3820   -2.1040 ha        1 29X      0.150500
     29 H4          3.9460   -0.3200   -2.0900 ha        1 29X      0.140000
     30 H5          5.9520   -0.0960   -1.0160 hc        1 29X      0.052700
     31 H6          5.7280   -1.1830    1.8750 hc        1 29X      0.054700
     32 H7          5.8020   -2.1540    0.3470 hc        1 29X      0.054700
     33 H8          8.0470   -1.4270   -0.1630 h1        1 29X      0.030700
     34 H9          8.0180   -1.9960    1.5670 h1        1 29X      0.030700
     35 H10         9.1980    0.0590    1.3330 hn        1 29X      0.367800
     36 H12         8.0690    1.2810   -0.4000 h1        1 29X      0.036200
     37 H13         8.0640    2.1490    1.2040 h1        1 29X      0.036200
     38 H14         5.7730    1.4250    1.6790 hc        1 29X      0.082700
     39 H15         4.6010    2.4540   -0.3750 h1        1 29X      0.049700
     40 H16         6.2440    2.5100   -1.1980 h1        1 29X      0.049700
     41 H17         6.5450    5.8170    1.7710 ha        1 29X      0.161000
     42 H18         4.8030    4.1420   -1.8550 ha        1 29X      0.147000
     43 H19         4.2540    6.4200   -2.6940 ha        1 29X      0.155000
     44 H20         6.4030    8.8120    1.8170 h4        1 29X      0.051800
@<TRIPOS>BOND
     1    1    2 1   
     2    2    3 ar  
     3    2    5 ar  
     4    3    4 ar  
     5    3   26 1   
     6    4    7 ar  
     7    4   27 1   
     8    5    6 ar  
     9    5   28 1   
    10    6    7 ar  
    11    6   29 1   
    12    7    8 1   
    13    8    9 1   
    14    8   13 1   
    15    8   30 1   
    16    9   10 1   
    17    9   31 1   
    18    9   32 1   
    19   10   11 1   
    20   10   33 1   
    21   10   34 1   
    22   11   12 1   
    23   11   35 1   
    24   12   13 1   
    25   12   36 1   
    26   12   37 1   
    27   13   14 1   
    28   13   38 1   
    29   14   15 1   
    30   14   39 1   
    31   14   40 1   
    32   15   16 1   
    33   16   17 ar  
    34   16   18 ar  
    35   17   23 ar  
    36   17   41 1   
    37   18   19 ar  
    38   18   42 1   
    39   19   20 ar  
    40   19   43 1   
    41   20   21 1   
    42   20   23 ar  
    43   21   22 2   
    44   21   25 1   
    45   23   24 1   
    46   24   25 2   
    47   24   44 1   
@<TRIPOS>SUBSTRUCTURE
     1 29X         1 TEMP              0 ****  ****    0 ROOT
