@<TRIPOS>MOLECULE
29X
   44    42     1     0     0
SMALL
bcc


@<TRIPOS>ATOM
      1 F21        -5.5590   -2.4760    0.6360 f         1 29X     -0.104000
      2 C4         -4.2170   -2.4500    0.5720 c2        1 29X      0.091000
      3 C5         -3.5820   -2.5960   -0.6460 c2        1 29X     -0.165000
      4 C6         -2.1800   -2.5430   -0.7200 c1        1 29X     -0.107000
      5 C3         -3.4530   -2.2460    1.7470 c1        1 29X     -0.163000
      6 C2         -2.0470   -2.1920    1.6730 c1        1 29X     -0.099000
      7 C1         -1.4170   -2.3390    0.4520 c1        1 29X     -0.092000
      8 C7          0.1450   -2.4020    0.3840 c2        1 29X     -0.062000
      9 C8          0.6210   -3.5550    1.2120 c3        1 29X     -0.150000
     10 C9          2.1130   -3.5770    1.3530 c3        1 29X     -0.076000
     11 N10         2.6590   -2.2820    1.8130 n3        1 29X     -0.299000
     12 C11         2.1960   -1.1440    1.0000 c3        1 29X     -0.071000
     13 C12         0.6980   -1.1070    0.8550 c3        1 29X     -0.102000
     14 C13         0.3260    0.0010   -0.1610 c3        1 29X     -0.025000
     15 O14         0.8410    1.2680    0.3040 os        1 29X     -0.210000
     16 C15         0.7070    2.3300   -0.6410 c2        1 29X      0.104000
     17 C16         0.6790    3.5710    0.0480 c2        1 29X     -0.103000
     18 C20         0.7330    2.3050   -2.0800 c1        1 29X     -0.215000
     19 C19         0.7290    3.5240   -2.8140 c1        1 29X     -0.014000
     20 C18         0.7000    4.7530   -2.1360 c1        1 29X     -0.203000
     21 C22         0.6000    6.3310   -2.5650 c1        1 29X      0.288000
     22 O25         0.2070    6.7760   -3.6930 o         1 29X     -0.229000
     23 C17         0.6750    4.7790   -0.6790 c2        1 29X     -0.090000
     24 C24         0.5510    6.2060   -0.3580 c2        1 29X      0.004000
     25 N23         0.5190    6.9800   -1.3900 n2        1 29X     -0.168000
     26 H1         -4.1160   -2.7390   -1.4690 ha        1 29X      0.150000
     27 H2         -1.7230   -2.6480   -1.5980 ha        1 29X      0.136000
     28 H3         -3.9100   -2.1420    2.6280 ha        1 29X      0.151000
     29 H4         -1.4920   -2.0450    2.5230 ha        1 29X      0.144000
     30 H5          0.4190   -2.5440   -0.5510 ha        1 29X      0.092000
     31 H6          0.2160   -3.4980    2.1030 hc        1 29X      0.094000
     32 H7          0.3160   -4.4370    0.7610 hc        1 29X      0.094000
     33 H8          2.3710   -4.3050    2.0350 h1        1 29X      0.070000
     34 H9          2.4940   -3.7890    0.5270 h1        1 29X      0.070000
     35 H10         3.5500   -2.3130    1.7980 hn        1 29X      0.163000
     36 H12         2.5060   -0.2750    1.4400 h1        1 29X      0.075500
     37 H13         2.6150   -1.2130    0.0700 h1        1 29X      0.075500
     38 H14         0.3100   -0.8960    1.7020 hc        1 29X      0.122000
     39 H15         0.7060   -0.2040   -1.0030 h1        1 29X      0.088500
     40 H16        -0.6520    0.0560   -0.2470 h1        1 29X      0.088500
     41 H17         0.8190    3.5900    1.0330 ha        1 29X      0.161000
     42 H18         0.7220    1.4490   -2.5540 ha        1 29X      0.147000
     43 H19         0.7490    3.5040   -3.8400 ha        1 29X      0.155000
     44 H20         0.8620    6.5360    0.4750 h4        1 29X      0.181000
@<TRIPOS>BOND
     1    1    2 1   
     2    2    3 1   
     3    2    5 1   
     4    3    4 1   
     5    3   26 1   
     6    4   27 1   
     7    5   28 1   
     8    6    7 1   
     9    6   29 1   
    10    8    9 1   
    11    8   13 1   
    12    8   30 1   
    13    9   10 1   
    14    9   31 1   
    15    9   32 1   
    16   10   11 1   
    17   10   33 1   
    18   10   34 1   
    19   11   12 1   
    20   11   35 1   
    21   12   13 1   
    22   12   36 1   
    23   12   37 1   
    24   13   14 1   
    25   13   38 1   
    26   14   15 1   
    27   14   39 1   
    28   14   40 1   
    29   15   16 1   
    30   16   17 1   
    31   16   18 1   
    32   17   23 1   
    33   17   41 1   
    34   18   42 1   
    35   19   20 1   
    36   19   43 1   
    37   20   23 1   
    38   21   22 1   
    39   21   25 1   
    40   23   24 1   
    41   24   25 1   
    42   24   44 1   
@<TRIPOS>SUBSTRUCTURE
     1 29X         1 TEMP              0 ****  ****    0 ROOT
