@<TRIPOS>MOLECULE
29X
   44    47     1     0     0
SMALL
bcc


@<TRIPOS>ATOM
      1 F21        -0.0550   -0.1870   -0.0220 f         1 29X     -0.138900
      2 C4          1.2980   -0.1400   -0.0010 ca        1 29X      0.125900
      3 C5          1.9770    0.0340    1.2190 ca        1 29X     -0.164000
      4 C6          3.3660    0.0800    1.2290 ca        1 29X     -0.103000
      5 C3          2.0230   -0.2660   -1.2000 ca        1 29X     -0.164000
      6 C2          3.4130   -0.2150   -1.1680 ca        1 29X     -0.103000
      7 C1          4.0980   -0.0400    0.0410 ca        1 29X     -0.099300
      8 C7          5.5940   -0.0070    0.0510 c3        1 29X     -0.015400
      9 C8          6.1430   -1.1970    0.8330 c3        1 29X     -0.071400
     10 C9          7.6680   -1.1650    0.8910 c3        1 29X      0.160800
     11 N10         8.1840    0.0900    1.4000 n3        1 29X     -0.820200
     12 C11         7.6760    1.2500    0.6970 c3        1 29X      0.165800
     13 C12         6.1410    1.2940    0.6440 c3        1 29X     -0.062700
     14 C13         5.6950    2.4860   -0.1950 c3        1 29X      0.125400
     15 O14         6.0170    3.6550    0.5760 os        1 29X     -0.326900
     16 C15         5.6570    4.8630    0.0230 ca        1 29X      0.149100
     17 C16         5.9820    5.9820    0.8470 ca        1 29X     -0.103000
     18 C20         5.0390    5.0190   -1.2170 ca        1 29X     -0.215000
     19 C19         4.7170    6.3050   -1.6940 ca        1 29X     -0.014000
     20 C18         5.0260    7.3890   -0.9100 ca        1 29X     -0.223600
     21 C22         4.8360    8.8710   -1.0910 c         1 29X      0.687100
     22 O25         4.3310    9.4520   -2.0460 o         1 29X     -0.468100
     23 C17         5.6600    7.2220    0.3630 ca        1 29X     -0.173900
     24 C24         5.8300    8.6030    0.9080 cc        1 29X      0.504800
     25 N23         5.3780    9.5320    0.1130 nd        1 29X     -0.595100
     26 H1          1.4030    0.1300    2.1520 ha        1 29X      0.150500
     27 H2          3.8950    0.2130    2.1860 ha        1 29X      0.140000
     28 H3          1.4860   -0.4040   -2.1500 ha        1 29X      0.150500
     29 H4          3.9760   -0.3190   -2.1080 ha        1 29X      0.140000
     30 H5          5.9680   -0.0840   -1.0110 hc        1 29X      0.052700
     31 H6          5.7220   -1.1890    1.8720 hc        1 29X      0.054700
     32 H7          5.8220   -2.1500    0.3390 hc        1 29X      0.054700
     33 H8          8.0660   -1.4000   -0.1410 h1        1 29X      0.030700
     34 H9          8.0230   -1.9790    1.5850 h1        1 29X      0.030700
     35 H10         9.1870    0.0880    1.3750 hn        1 29X      0.367800
     36 H12         8.0350    2.1680    1.2440 h1        1 29X      0.036200
     37 H13         8.0650    1.3090   -0.3630 h1        1 29X      0.036200
     38 H14         5.7450    1.4210    1.6900 hc        1 29X      0.082700
     39 H15         4.5870    2.4490   -0.3720 h1        1 29X      0.049700
     40 H16         6.2390    2.5270   -1.1740 h1        1 29X      0.049700
     41 H17         6.4670    5.8190    1.8190 ha        1 29X      0.161000
     42 H18         4.7920    4.1480   -1.8410 ha        1 29X      0.147000
     43 H19         4.2280    6.4260   -2.6730 ha        1 29X      0.155000
     44 H20         6.2910    8.8110    1.8830 h4        1 29X      0.051800
@<TRIPOS>BOND
     1    1    2 1   
     2    2    3 ar  
     3    2    5 ar  
     4    3    4 ar  
     5    3   26 1   
     6    4    7 ar  
     7    4   27 1   
     8    5    6 ar  
     9    5   28 1   
    10    6    7 ar  
    11    6   29 1   
    12    7    8 1   
    13    8    9 1   
    14    8   13 1   
    15    8   30 1   
    16    9   10 1   
    17    9   31 1   
    18    9   32 1   
    19   10   11 1   
    20   10   33 1   
    21   10   34 1   
    22   11   12 1   
    23   11   35 1   
    24   12   13 1   
    25   12   36 1   
    26   12   37 1   
    27   13   14 1   
    28   13   38 1   
    29   14   15 1   
    30   14   39 1   
    31   14   40 1   
    32   15   16 1   
    33   16   17 ar  
    34   16   18 ar  
    35   17   23 ar  
    36   17   41 1   
    37   18   19 ar  
    38   18   42 1   
    39   19   20 ar  
    40   19   43 1   
    41   20   21 1   
    42   20   23 ar  
    43   21   22 2   
    44   21   25 1   
    45   23   24 1   
    46   24   25 2   
    47   24   44 1   
@<TRIPOS>SUBSTRUCTURE
     1 29X         1 TEMP              0 ****  ****    0 ROOT
