@<TRIPOS>MOLECULE
29X
   44    47     1     0     0
SMALL
bcc


@<TRIPOS>ATOM
      1 F21        -3.8060   -4.4460   -0.7020 f         1 29X     -0.137900
      2 C4         -3.6020   -3.1410   -0.4010 ca        1 29X      0.126900
      3 C5         -3.4910   -2.1910   -1.4330 ca        1 29X     -0.163000
      4 C6         -3.2830   -0.8540   -1.1130 ca        1 29X     -0.103000
      5 C3         -3.5020   -2.7380    0.9430 ca        1 29X     -0.163000
      6 C2         -3.2910   -1.3960    1.2400 ca        1 29X     -0.103000
      7 C1         -3.1780   -0.4420    0.2220 ca        1 29X     -0.100300
      8 C7         -2.9700    0.9990    0.5700 c3        1 29X     -0.013400
      9 C8         -4.1740    1.8270    0.1300 c3        1 29X     -0.109400
     10 C9         -3.9580    3.3100    0.4310 c3        1 29X      0.147800
     11 N10        -2.7200    3.8680   -0.0780 n3        1 29X     -0.795200
     12 C11        -1.5680    3.0660    0.2740 c3        1 29X      0.153800
     13 C12        -1.6880    1.5660   -0.0470 c3        1 29X     -0.100700
     14 C13        -0.4690    0.8260    0.4890 c3        1 29X      0.131400
     15 O14         0.6240    1.2010   -0.3630 os        1 29X     -0.328900
     16 C15         1.8420    0.6260   -0.0750 ca        1 29X      0.149100
     17 C16         2.8860    1.0380   -0.9560 ca        1 29X     -0.103000
     18 C20         2.0710   -0.2740    0.9650 ca        1 29X     -0.214000
     19 C19         3.3590   -0.8050    1.1740 ca        1 29X     -0.014000
     20 C18         4.3720   -0.4150    0.3330 ca        1 29X     -0.223600
     21 C22         5.8340   -0.7660    0.2570 c         1 29X      0.687100
     22 O25         6.4610   -1.5270    0.9870 o         1 29X     -0.467100
     23 C17         4.1290    0.5100   -0.7340 ca        1 29X     -0.173900
     24 C24         5.4470    0.6850   -1.4160 cc        1 29X      0.504800
     25 N23         6.4050   -0.0160   -0.8780 nd        1 29X     -0.594100
     26 H1         -3.5720   -2.5140   -2.4810 ha        1 29X      0.151000
     27 H2         -3.2000   -0.1130   -1.9230 ha        1 29X      0.138000
     28 H3         -3.5920   -3.4860    1.7440 ha        1 29X      0.151000
     29 H4         -3.2180   -1.0840    2.2940 ha        1 29X      0.138000
     30 H5         -2.8770    1.0930    1.6910 hc        1 29X      0.057700
     31 H6         -4.3510    1.6800   -0.9670 hc        1 29X      0.051700
     32 H7         -5.0880    1.4720    0.6710 hc        1 29X      0.051700
     33 H8         -4.8160    3.9010    0.0050 h1        1 29X      0.055700
     34 H9         -3.9590    3.4570    1.5480 h1        1 29X      0.055700
     35 H10        -2.7760    3.9690   -1.0760 hn        1 29X      0.352800
     36 H12        -0.6650    3.4730   -0.2620 h1        1 29X      0.060700
     37 H13        -1.3990    3.1850    1.3810 h1        1 29X      0.060700
     38 H14        -1.7240    1.4300   -1.1640 hc        1 29X      0.068700
     39 H15        -0.2380    1.1280    1.5440 h1        1 29X      0.050200
     40 H16        -0.6230   -0.2850    0.4320 h1        1 29X      0.050200
     41 H17         2.6660    1.7480   -1.7640 ha        1 29X      0.160000
     42 H18         1.2580   -0.5840    1.6360 ha        1 29X      0.147000
     43 H19         3.5380   -1.5150    1.9960 ha        1 29X      0.156000
     44 H20         5.5910    1.3410   -2.2840 h4        1 29X      0.051800
@<TRIPOS>BOND
     1    1    2 1   
     2    2    3 ar  
     3    2    5 ar  
     4    3    4 ar  
     5    3   26 1   
     6    4    7 ar  
     7    4   27 1   
     8    5    6 ar  
     9    5   28 1   
    10    6    7 ar  
    11    6   29 1   
    12    7    8 1   
    13    8    9 1   
    14    8   13 1   
    15    8   30 1   
    16    9   10 1   
    17    9   31 1   
    18    9   32 1   
    19   10   11 1   
    20   10   33 1   
    21   10   34 1   
    22   11   12 1   
    23   11   35 1   
    24   12   13 1   
    25   12   36 1   
    26   12   37 1   
    27   13   14 1   
    28   13   38 1   
    29   14   15 1   
    30   14   39 1   
    31   14   40 1   
    32   15   16 1   
    33   16   17 ar  
    34   16   18 ar  
    35   17   23 ar  
    36   17   41 1   
    37   18   19 ar  
    38   18   42 1   
    39   19   20 ar  
    40   19   43 1   
    41   20   21 1   
    42   20   23 ar  
    43   21   22 2   
    44   21   25 1   
    45   23   24 1   
    46   24   25 2   
    47   24   44 1   
@<TRIPOS>SUBSTRUCTURE
     1 29X         1 TEMP              0 ****  ****    0 ROOT
