@<TRIPOS>MOLECULE
29Y
   55    59     1     0     0
SMALL
bcc


@<TRIPOS>ATOM
      1 C1          0.3030   -0.2110   -0.0560 c3        1 29Y      0.080100
      2 N2          0.3880    0.8510   -1.0920 n4        1 29Y     -0.682400
      3 C3          0.3670    2.1980   -0.4630 c3        1 29Y      0.080100
      4 C4          1.6190    0.6840   -1.9480 c3        1 29Y      0.166100
      5 C5          1.4880   -0.4350   -2.9270 ca        1 29Y     -0.165300
      6 C6          2.0380   -1.6890   -2.6410 ca        1 29Y     -0.094500
      7 C7          1.9690   -2.7150   -3.5820 ca        1 29Y     -0.109000
      8 C8          1.3470   -2.5030   -4.8220 ca        1 29Y     -0.035300
      9 C9          0.8020   -1.2430   -5.1040 ca        1 29Y     -0.109000
     10 C10         0.8710   -0.2160   -4.1650 ca        1 29Y     -0.094500
     11 C11         1.2710   -3.6220   -5.7730 cx        1 29Y     -0.038400
     12 C13         0.1580   -3.7510   -6.7690 cx        1 29Y     -0.058400
     13 C14         1.5450   -3.3920   -7.2600 cx        1 29Y     -0.238700
     14 C16         2.3150   -4.4390   -7.9560 c         1 29Y      0.591100
     15 O17         2.4620   -5.6130   -7.6520 o         1 29Y     -0.415100
     16 N18         3.0540   -4.0190   -9.2220 n4        1 29Y     -0.573800
     17 C19         2.1400   -3.8070  -10.3320 cc        1 29Y      0.242100
     18 N20         1.3910   -2.6910  -10.4330 nd        1 29Y     -0.472100
     19 C21         0.6480   -2.7590  -11.5940 ca        1 29Y      0.043400
     20 C22        -0.2550   -1.7730  -12.0700 ca        1 29Y     -0.037000
     21 C23        -0.9140   -1.9860  -13.2580 ca        1 29Y     -0.132000
     22 C24        -0.7240   -3.1680  -14.0300 ca        1 29Y      0.129000
     23 C25         0.1660   -4.1480  -13.5710 ca        1 29Y     -0.128000
     24 C26         0.8500   -3.9590  -12.3750 ca        1 29Y     -0.052100
     25 S27         1.9670   -4.9530  -11.6130 ss        1 29Y      0.154900
     26 C28        -1.4290   -3.3480  -15.2570 cc        1 29Y     -0.282300
     27 C29        -2.2820   -2.4330  -15.9280 cd        1 29Y     -0.078300
     28 N30        -2.7160   -3.0760  -17.0740 na        1 29Y      0.008400
     29 N32        -2.2190   -4.3140  -17.1910 nd        1 29Y     -0.480800
     30 C33        -1.4310   -4.5260  -16.1130 cc        1 29Y      0.336200
     31 H1         -0.6880   -0.1410    0.4690 hx        1 29Y      0.108700
     32 H2          0.4000   -1.2160   -0.5510 hx        1 29Y      0.108700
     33 H3          1.1310   -0.0780    0.6900 hx        1 29Y      0.108700
     34 H5          0.3240    2.9860   -1.2620 hx        1 29Y      0.108700
     35 H6         -0.5380    2.2850    0.1990 hx        1 29Y      0.108700
     36 H7          1.2950    2.3400    0.1540 hx        1 29Y      0.108700
     37 H8          1.7810    1.6580   -2.4990 hx        1 29Y      0.112200
     38 H9          2.4950    0.5130   -1.2580 hx        1 29Y      0.112200
     39 H10         2.5440   -1.8710   -1.6790 ha        1 29Y      0.150000
     40 H11         2.4060   -3.6990   -3.3430 ha        1 29Y      0.158500
     41 H13         0.3140   -1.0550   -6.0740 ha        1 29Y      0.158500
     42 H14         0.4490    0.7710   -4.4110 ha        1 29Y      0.150000
     43 H12         1.6660   -4.5740   -5.3460 hc        1 29Y      0.122700
     44 H16        -0.6250   -2.9720   -6.8360 hc        1 29Y      0.113200
     45 H17        -0.2420   -4.7630   -6.9800 hc        1 29Y      0.113200
     46 H15         1.7160   -2.3550   -7.6170 hc        1 29Y      0.135700
     47 H18         3.5770   -3.1530   -9.0340 hn        1 29Y      0.471800
     48 H19        -0.4120   -0.8500  -11.4890 ha        1 29Y      0.162000
     49 H20        -1.6160   -1.2210  -13.6320 ha        1 29Y      0.157000
     50 H21         0.3260   -5.0650  -14.1620 ha        1 29Y      0.165000
     51 H22        -2.5840   -1.4160  -15.6740 h4        1 29Y      0.189000
     52 H31        -3.3250   -2.7150  -17.7760 hn        1 29Y      0.344700
     53 H23        -0.9010   -5.4680  -15.9620 h4        1 29Y      0.053100
     54 H211       -0.4340    0.7640   -1.7060 hn        1 29Y      0.451800
     55 H182        3.7170   -4.7620   -9.4900 hn        1 29Y      0.471800
@<TRIPOS>BOND
     1    1    2 1   
     2    1   31 1   
     3    1   32 1   
     4    1   33 1   
     5    2    3 1   
     6    2    4 1   
     7    2   54 1   
     8    3   34 1   
     9    3   35 1   
    10    3   36 1   
    11    4    5 1   
    12    4   37 1   
    13    4   38 1   
    14    5    6 ar  
    15    5   10 ar  
    16    6    7 ar  
    17    6   39 1   
    18    7    8 ar  
    19    7   40 1   
    20    8    9 ar  
    21    8   11 1   
    22    9   10 ar  
    23    9   41 1   
    24   10   42 1   
    25   11   12 1   
    26   11   13 1   
    27   11   43 1   
    28   12   13 1   
    29   12   44 1   
    30   12   45 1   
    31   13   14 1   
    32   13   46 1   
    33   14   15 2   
    34   14   16 1   
    35   16   17 1   
    36   16   47 1   
    37   16   55 1   
    38   17   18 2   
    39   17   25 1   
    40   18   19 1   
    41   19   20 ar  
    42   19   24 ar  
    43   20   21 ar  
    44   20   48 1   
    45   21   22 ar  
    46   21   49 1   
    47   22   23 ar  
    48   22   26 1   
    49   23   24 ar  
    50   23   50 1   
    51   24   25 1   
    52   26   27 2   
    53   26   30 1   
    54   27   28 1   
    55   27   51 1   
    56   28   29 1   
    57   28   52 1   
    58   29   30 2   
    59   30   53 1   
@<TRIPOS>SUBSTRUCTURE
     1 29Y         1 TEMP              0 ****  ****    0 ROOT
