@<TRIPOS>MOLECULE
29Y
   54    58     1     0     0
SMALL
bcc


@<TRIPOS>ATOM
      1 C1         -0.0980   -1.1530    0.1470 c3        1 29Y      0.081100
      2 N2          1.0330   -0.1910    0.0820 n4        1 29Y     -0.685400
      3 C3          1.4990    0.1680    1.4440 c3        1 29Y      0.081100
      4 C4          2.1710   -0.7430   -0.7480 c3        1 29Y      0.178100
      5 C5          1.8560   -0.6990   -2.2020 ca        1 29Y     -0.196300
      6 C6          1.4100   -1.8510   -2.8620 ca        1 29Y     -0.101000
      7 C7          1.1510   -1.8140   -4.2290 ca        1 29Y     -0.115000
      8 C8          1.3350   -0.6250   -4.9530 ca        1 29Y      0.004700
      9 C9          1.7870    0.5230   -4.2890 ca        1 29Y     -0.115000
     10 C10         2.0460    0.4870   -2.9210 ca        1 29Y     -0.101000
     11 C11         1.0090   -0.5990   -6.3850 cx        1 29Y     -0.088400
     12 C13         1.8230    0.1810   -7.3810 cx        1 29Y     -0.107400
     13 C14         1.8910   -1.3180   -7.3800 cx        1 29Y     -0.194700
     14 C16         1.2060   -2.1210   -8.4500 c         1 29Y      0.678100
     15 O17         0.2800   -2.9000   -8.1750 o         1 29Y     -0.556100
     16 N18         1.7520   -2.0030   -9.7320 n         1 29Y     -0.443400
     17 C19         1.0560   -2.4850  -10.8580 cc        1 29Y      0.367800
     18 N20         0.2400   -1.7580  -11.6280 nd        1 29Y     -0.538100
     19 C21        -0.2260   -2.5470  -12.6810 ca        1 29Y      0.077400
     20 C22        -1.1030   -2.1270  -13.7040 ca        1 29Y     -0.066000
     21 C23        -1.4790   -3.0270  -14.6800 ca        1 29Y     -0.130000
     22 C24        -1.0090   -4.3650  -14.6830 ca        1 29Y      0.042000
     23 C25        -0.1420   -4.7910  -13.6760 ca        1 29Y     -0.094000
     24 C26         0.2570   -3.9000  -12.6800 ca        1 29Y     -0.088100
     25 S27         1.2850   -4.1440  -11.3690 ss        1 29Y      0.035900
     26 C28        -1.4240   -5.2700  -15.7170 cc        1 29Y     -0.225300
     27 C29        -2.4550   -5.1020  -16.6660 cd        1 29Y     -0.119300
     28 N30        -2.4620   -6.2570  -17.4440 na        1 29Y     -0.013600
     29 N32        -1.5260   -7.1320  -17.0700 nd        1 29Y     -0.506800
     30 C33        -0.8690   -6.5790  -16.0220 cc        1 29Y      0.314200
     31 H1         -0.3680   -1.4690   -0.8980 hx        1 29Y      0.104367
     32 H2          0.2080   -2.0540    0.7430 hx        1 29Y      0.104367
     33 H3         -0.9800   -0.6600    0.6370 hx        1 29Y      0.104367
     34 H5          0.6290    0.5400    2.0500 hx        1 29Y      0.104367
     35 H6          1.9400   -0.7370    1.9410 hx        1 29Y      0.104367
     36 H7          2.2790    0.9730    1.3730 hx        1 29Y      0.104367
     37 H8          3.0820   -0.1140   -0.5260 hx        1 29Y      0.104700
     38 H9          2.3650   -1.7980   -0.4020 hx        1 29Y      0.104700
     39 H10         1.2770   -2.7930   -2.3090 ha        1 29Y      0.138000
     40 H11         0.8000   -2.7200   -4.7530 ha        1 29Y      0.167000
     41 H13         1.9380    1.4570   -4.8540 ha        1 29Y      0.167000
     42 H14         2.4170    1.3910   -2.4150 ha        1 29Y      0.138000
     43 H12        -0.0910   -0.6630   -6.5530 hc        1 29Y      0.123700
     44 H16         2.7070    0.7480   -7.0370 hc        1 29Y      0.090200
     45 H17         1.2920    0.7020   -8.2010 hc        1 29Y      0.090200
     46 H15         2.8170   -1.8160   -7.0270 hc        1 29Y      0.116700
     47 H18         2.2990   -1.1820   -9.9020 hn        1 29Y      0.320500
     48 H19        -1.4760   -1.0920  -13.7140 ha        1 29Y      0.152000
     49 H20        -2.1590   -2.7030  -15.4830 ha        1 29Y      0.137000
     50 H21         0.2260   -5.8280  -13.6640 ha        1 29Y      0.145000
     51 H22        -3.1540   -4.2830  -16.8290 h4        1 29Y      0.181000
     52 H31        -3.0670   -6.4630  -18.2050 hn        1 29Y      0.327700
     53 H23        -0.0430   -7.0860  -15.5230 h4        1 29Y      0.046100
     54 H211        0.6970    0.6620   -0.3880 hn        1 29Y      0.452800
@<TRIPOS>BOND
     1    1    2 1   
     2    1   31 1   
     3    1   32 1   
     4    1   33 1   
     5    2    3 1   
     6    2    4 1   
     7    2   54 1   
     8    3   34 1   
     9    3   35 1   
    10    3   36 1   
    11    4    5 1   
    12    4   37 1   
    13    4   38 1   
    14    5    6 ar  
    15    5   10 ar  
    16    6    7 ar  
    17    6   39 1   
    18    7    8 ar  
    19    7   40 1   
    20    8    9 ar  
    21    8   11 1   
    22    9   10 ar  
    23    9   41 1   
    24   10   42 1   
    25   11   12 1   
    26   11   13 1   
    27   11   43 1   
    28   12   13 1   
    29   12   44 1   
    30   12   45 1   
    31   13   14 1   
    32   13   46 1   
    33   14   15 2   
    34   14   16 1   
    35   16   17 1   
    36   16   47 1   
    37   17   18 2   
    38   17   25 1   
    39   18   19 1   
    40   19   20 ar  
    41   19   24 ar  
    42   20   21 ar  
    43   20   48 1   
    44   21   22 ar  
    45   21   49 1   
    46   22   23 ar  
    47   22   26 1   
    48   23   24 ar  
    49   23   50 1   
    50   24   25 1   
    51   26   27 2   
    52   26   30 1   
    53   27   28 1   
    54   27   51 1   
    55   28   29 1   
    56   28   52 1   
    57   29   30 2   
    58   30   53 1   
@<TRIPOS>SUBSTRUCTURE
     1 29Y         1 TEMP              0 ****  ****    0 ROOT
