@<TRIPOS>MOLECULE
29Y
   54    58     1     0     0
SMALL
bcc


@<TRIPOS>ATOM
      1 C1         -0.1270   -1.0950    0.1390 c3        1 29Y      0.081100
      2 N2          1.0240   -0.1580    0.0760 nx        1 29Y     -0.685400
      3 C3          1.4890    0.1990    1.4390 c3        1 29Y      0.081100
      4 C4          2.1550   -0.7380   -0.7440 c3        1 29Y      0.178100
      5 C5          1.8500   -0.6960   -2.2000 ca        1 29Y     -0.196300
      6 C6          1.3840   -1.8420   -2.8570 ca        1 29Y     -0.101000
      7 C7          1.1330   -1.8070   -4.2250 ca        1 29Y     -0.115000
      8 C8          1.3470   -0.6270   -4.9550 ca        1 29Y      0.004700
      9 C9          1.8190    0.5150   -4.2940 ca        1 29Y     -0.115000
     10 C10         2.0690    0.4810   -2.9250 ca        1 29Y     -0.101000
     11 C11         1.0300   -0.6020   -6.3890 cx        1 29Y     -0.088400
     12 C13         1.8660    0.1560   -7.3850 cx        1 29Y     -0.107400
     13 C14         1.9040   -1.3450   -7.3750 cx        1 29Y     -0.194700
     14 C16         1.2090   -2.1390   -8.4440 c         1 29Y      0.678100
     15 O17         0.2650   -2.8960   -8.1710 o         1 29Y     -0.556100
     16 N18         1.7660   -2.0400   -9.7230 ns        1 29Y     -0.443400
     17 C19         1.0680   -2.5150  -10.8520 cc        1 29Y      0.367800
     18 N20         0.2730   -1.7750  -11.6320 nd        1 29Y     -0.538100
     19 C21        -0.2020   -2.5610  -12.6830 ca        1 29Y      0.077400
     20 C22        -1.0630   -2.1280  -13.7150 ca        1 29Y     -0.066000
     21 C23        -1.4520   -3.0260  -14.6880 ca        1 29Y     -0.130000
     22 C24        -1.0110   -4.3730  -14.6790 ca        1 29Y      0.042000
     23 C25        -0.1600   -4.8120  -13.6640 ca        1 29Y     -0.094000
     24 C26         0.2510   -3.9230  -12.6700 ca        1 29Y     -0.088100
     25 S27         1.2640   -4.1810  -11.3510 ss        1 29Y      0.035900
     26 C28        -1.4380   -5.2760  -15.7110 cc        1 29Y     -0.225300
     27 C29        -2.4590   -5.0920  -16.6680 cd        1 29Y     -0.119300
     28 N30        -2.4860   -6.2500  -17.4390 na        1 29Y     -0.013600
     29 N32        -1.5720   -7.1440  -17.0530 nd        1 29Y     -0.506800
     30 C33        -0.9090   -6.5980  -16.0030 cc        1 29Y      0.314200
     31 H1         -1.0010   -0.5810    0.6210 hx        1 29Y      0.104367
     32 H2         -0.3980   -1.4110   -0.9060 hx        1 29Y      0.104367
     33 H3          0.1560   -1.9990    0.7420 hx        1 29Y      0.104367
     34 H5          0.6240    0.5930    2.0370 hx        1 29Y      0.104367
     35 H6          2.2860    0.9880    1.3680 hx        1 29Y      0.104367
     36 H7          1.9080   -0.7120    1.9430 hx        1 29Y      0.104367
     37 H8          3.0770   -0.1280   -0.5200 hx        1 29Y      0.104700
     38 H9          2.3240   -1.7950   -0.3910 hx        1 29Y      0.104700
     39 H10         1.2280   -2.7790   -2.2990 ha        1 29Y      0.138000
     40 H11         0.7670   -2.7090   -4.7460 ha        1 29Y      0.167000
     41 H13         1.9930    1.4420   -4.8640 ha        1 29Y      0.167000
     42 H14         2.4550    1.3810   -2.4210 ha        1 29Y      0.138000
     43 H12        -0.0700   -0.6450   -6.5640 hc        1 29Y      0.123700
     44 H16         2.7600    0.7060   -7.0380 hc        1 29Y      0.090200
     45 H17         1.3510    0.6820   -8.2100 hc        1 29Y      0.090200
     46 H15         2.8170   -1.8590   -7.0130 hc        1 29Y      0.116700
     47 H18         2.3320   -1.2330   -9.8950 hn        1 29Y      0.320500
     48 H19        -1.4140   -1.0850  -13.7340 ha        1 29Y      0.152000
     49 H20        -2.1190   -2.6920  -15.4970 ha        1 29Y      0.137000
     50 H21         0.1850   -5.8570  -13.6430 ha        1 29Y      0.145000
     51 H22        -3.1380   -4.2580  -16.8410 h4        1 29Y      0.181000
     52 H31        -3.0890   -6.4490  -18.2030 hn        1 29Y      0.327700
     53 H23        -0.0990   -7.1200  -15.4950 h4        1 29Y      0.046100
     54 H211        0.7090    0.7000   -0.4010 hn        1 29Y      0.452800
@<TRIPOS>BOND
     1    1    2 1   
     2    1   31 1   
     3    1   32 1   
     4    1   33 1   
     5    2    3 1   
     6    2    4 1   
     7    2   54 1   
     8    3   34 1   
     9    3   35 1   
    10    3   36 1   
    11    4    5 1   
    12    4   37 1   
    13    4   38 1   
    14    5    6 ar  
    15    5   10 ar  
    16    6    7 ar  
    17    6   39 1   
    18    7    8 ar  
    19    7   40 1   
    20    8    9 ar  
    21    8   11 1   
    22    9   10 ar  
    23    9   41 1   
    24   10   42 1   
    25   11   12 1   
    26   11   13 1   
    27   11   43 1   
    28   12   13 1   
    29   12   44 1   
    30   12   45 1   
    31   13   14 1   
    32   13   46 1   
    33   14   15 2   
    34   14   16 1   
    35   16   17 1   
    36   16   47 1   
    37   17   18 2   
    38   17   25 1   
    39   18   19 1   
    40   19   20 ar  
    41   19   24 ar  
    42   20   21 ar  
    43   20   48 1   
    44   21   22 ar  
    45   21   49 1   
    46   22   23 ar  
    47   22   26 1   
    48   23   24 ar  
    49   23   50 1   
    50   24   25 1   
    51   26   27 2   
    52   26   30 1   
    53   27   28 1   
    54   27   51 1   
    55   28   29 1   
    56   28   52 1   
    57   29   30 2   
    58   30   53 1   
@<TRIPOS>SUBSTRUCTURE
     1 29Y         1 TEMP              0 ****  ****    0 ROOT
