@<TRIPOS>MOLECULE
29Y
   53    57     1     0     0
SMALL
bcc


@<TRIPOS>ATOM
      1 C1          9.2910    1.9110    0.6350 c3        1 29Y      0.154100
      2 N2          9.4870    0.4810    0.5420 n3        1 29Y     -0.736600
      3 C3         10.8170    0.0710    0.9340 c3        1 29Y      0.154100
      4 C4          8.4530   -0.2870    1.2270 c3        1 29Y      0.212100
      5 C5          7.0740   -0.1020    0.6650 ca        1 29Y     -0.080300
      6 C6          6.0000    0.1370    1.5290 ca        1 29Y     -0.118500
      7 C7          4.7060    0.2580    1.0280 ca        1 29Y     -0.121000
      8 C8          4.4690    0.1420   -0.3480 ca        1 29Y     -0.072300
      9 C9          5.5450   -0.0930   -1.2120 ca        1 29Y     -0.121000
     10 C10         6.8380   -0.2150   -0.7090 ca        1 29Y     -0.118500
     11 C11         3.1030    0.3070   -0.8670 cx        1 29Y     -0.038400
     12 C13         2.6020   -0.5150   -2.0240 cx        1 29Y     -0.119400
     13 C14         2.0780   -0.7830   -0.6410 cx        1 29Y     -0.206700
     14 C16         0.6900   -0.3950   -0.2460 c         1 29Y      0.691100
     15 O17         0.4330    0.1990    0.8160 o         1 29Y     -0.569100
     16 N18        -0.3210   -0.7660   -1.1300 n         1 29Y     -0.462400
     17 C19        -1.6750   -0.5200   -0.9130 cc        1 29Y      0.407800
     18 N20        -2.6300   -0.8950   -1.7820 nd        1 29Y     -0.590100
     19 C21        -3.8770   -0.5080   -1.2860 ca        1 29Y      0.105400
     20 C22        -5.1170   -0.7290   -1.9190 ca        1 29Y     -0.084000
     21 C23        -6.2740   -0.2880   -1.3070 ca        1 29Y     -0.124000
     22 C24        -6.2480    0.3810   -0.0600 ca        1 29Y      0.010000
     23 C25        -5.0260    0.6050    0.5750 ca        1 29Y     -0.077000
     24 C26        -3.8430    0.1690   -0.0210 ca        1 29Y     -0.133100
     25 S27        -2.2530    0.3060    0.5220 ss        1 29Y      0.069900
     26 C28        -7.4740    0.8260    0.5440 cc        1 29Y     -0.206300
     27 C29        -8.7420    0.9690   -0.0560 cd        1 29Y     -0.132300
     28 N30        -9.5980    1.4300    0.9420 na        1 29Y     -0.020600
     29 N32        -8.9790    1.5870    2.1140 nd        1 29Y     -0.514800
     30 C33        -7.6840    1.2330    1.9230 cc        1 29Y      0.309200
     31 H1         10.0440    2.4210   -0.0200 h1        1 29Y      0.033200
     32 H2          8.2610    2.1600    0.2680 h1        1 29Y      0.033200
     33 H3          9.4040    2.3060    1.6820 h1        1 29Y      0.033200
     34 H5         11.0330    0.2430    2.0250 h1        1 29Y      0.033200
     35 H6         10.9440   -1.0210    0.7140 h1        1 29Y      0.033200
     36 H7         11.5640    0.6480    0.3290 h1        1 29Y      0.033200
     37 H8          8.7180   -1.3810    1.1220 h1        1 29Y      0.039200
     38 H9          8.4340   -0.0510    2.3330 h1        1 29Y      0.039200
     39 H10         6.1730    0.2320    2.6120 ha        1 29Y      0.141500
     40 H11         3.8650    0.4480    1.7120 ha        1 29Y      0.138000
     41 H13         5.3680   -0.1780   -2.2950 ha        1 29Y      0.138000
     42 H14         7.6800   -0.3980   -1.3950 ha        1 29Y      0.141500
     43 H12         2.7520    1.3590   -0.7880 hc        1 29Y      0.103700
     44 H16         1.9490   -0.0300   -2.7720 hc        1 29Y      0.083200
     45 H17         3.2720   -1.2650   -2.4840 hc        1 29Y      0.083200
     46 H15         2.3920   -1.7090   -0.1150 hc        1 29Y      0.120700
     47 H18        -0.0680   -1.2500   -1.9660 hn        1 29Y      0.341500
     48 H19        -5.1530   -1.2480   -2.8890 ha        1 29Y      0.148000
     49 H20        -7.2450   -0.4630   -1.7950 ha        1 29Y      0.130000
     50 H21        -4.9930    1.1270    1.5430 ha        1 29Y      0.140000
     51 H22        -9.0770    0.7880   -1.0770 h4        1 29Y      0.178000
     52 H31       -10.5650    1.6370    0.8540 hn        1 29Y      0.322700
     53 H23        -6.9490    1.2610    2.7270 h4        1 29Y      0.045100
@<TRIPOS>BOND
     1    1    2 1   
     2    1   31 1   
     3    1   32 1   
     4    1   33 1   
     5    2    3 1   
     6    2    4 1   
     7    3   34 1   
     8    3   35 1   
     9    3   36 1   
    10    4    5 1   
    11    4   37 1   
    12    4   38 1   
    13    5    6 ar  
    14    5   10 ar  
    15    6    7 ar  
    16    6   39 1   
    17    7    8 ar  
    18    7   40 1   
    19    8    9 ar  
    20    8   11 1   
    21    9   10 ar  
    22    9   41 1   
    23   10   42 1   
    24   11   12 1   
    25   11   13 1   
    26   11   43 1   
    27   12   13 1   
    28   12   44 1   
    29   12   45 1   
    30   13   14 1   
    31   13   46 1   
    32   14   15 2   
    33   14   16 1   
    34   16   17 1   
    35   16   47 1   
    36   17   18 2   
    37   17   25 1   
    38   18   19 1   
    39   19   20 ar  
    40   19   24 ar  
    41   20   21 ar  
    42   20   48 1   
    43   21   22 ar  
    44   21   49 1   
    45   22   23 ar  
    46   22   26 1   
    47   23   24 ar  
    48   23   50 1   
    49   24   25 1   
    50   26   27 2   
    51   26   30 1   
    52   27   28 1   
    53   27   51 1   
    54   28   29 1   
    55   28   52 1   
    56   29   30 2   
    57   30   53 1   
@<TRIPOS>SUBSTRUCTURE
     1 29Y         1 TEMP              0 ****  ****    0 ROOT
