@<TRIPOS>MOLECULE
29Z
   55    47     1     0     0
SMALL
bcc


@<TRIPOS>ATOM
      1 C1          1.7680   -4.6440    5.7250 c3        1 29Z     -0.122000
      2 N2          0.8010   -4.9460    4.6990 n3        1 29Z     -0.262000
      3 C3         -0.0560   -6.0160    5.1460 c3        1 29Z     -0.122000
      4 C4          0.0070   -3.7750    4.4290 c3        1 29Z     -0.032000
      5 C5          0.0110   -3.4890    2.9140 c1        1 29Z     -0.074000
      6 C6          0.2220   -4.5290    2.0120 c1        1 29Z     -0.105000
      7 C7          0.0880   -4.3020    0.6440 c1        1 29Z     -0.123000
      8 C8         -0.2560   -3.0370    0.1790 c1        1 29Z     -0.061000
      9 C9         -0.4670   -1.9970    1.0800 c2        1 29Z     -0.129000
     10 C10        -0.3340   -2.2230    2.4480 c1        1 29Z     -0.125000
     11 C11        -0.4620   -2.8010   -1.3250 cu        1 29Z     -0.122000
     12 C12        -0.9330   -3.9870   -2.1110 cx        1 29Z     -0.164000
     13 C13        -1.9180   -2.8470   -1.8130 cx        1 29Z     -0.202000
     14 C14        -1.9880   -1.6230   -2.7420 c1        1 29Z      0.338000
     15 O15        -2.9650   -1.4550   -3.4530 o         1 29Z     -0.281000
     16 N16        -0.9760   -0.6100   -2.6670 n2        1 29Z     -0.318000
     17 C17        -1.1140    0.5980   -3.4250 c2        1 29Z     -0.056000
     18 N18        -1.9080    1.6810   -3.9110 n2        1 29Z     -0.110000
     19 C19        -1.2800    3.0410   -3.3800 c1        1 29Z     -0.028000
     20 C20        -1.6740    4.3650   -3.5370 c1        1 29Z     -0.114750
     21 C21        -0.9430    5.3940   -2.9230 c1        1 29Z     -0.114750
     22 C22         0.1960    5.0850   -2.1440 c1        1 29Z     -0.059500
     23 C23         0.5950    3.7500   -1.9840 c1        1 29Z     -0.068500
     24 C24        -0.1290    2.7280   -2.5920 c1        1 29Z     -0.311000
     25 S25         0.0330    1.1910   -2.5810 s         1 29Z      0.347000
     26 C26         1.0240    6.3700   -2.0530 c1        1 29Z     -0.059500
     27 C27         0.5650    7.4280   -1.3140 c1        1 29Z     -0.114750
     28 C28         1.2510    8.6130   -1.3170 c1        1 29Z     -0.114750
     29 C29         2.4140    8.7410   -2.0690 c1        1 29Z     -0.071000
     30 N30         2.8710    7.6840   -2.8050 n1        1 29Z     -0.137000
     31 C31         2.1870    6.5010   -2.8040 c1        1 29Z     -0.068500
     32 H1          2.2580   -5.4630    5.9650 h1        1 29Z      0.072833
     33 H2          2.4010   -3.9710    5.3910 h1        1 29Z      0.072833
     34 H3          1.3060   -4.2940    6.5190 h1        1 29Z      0.072833
     35 H5         -0.5780   -5.7150    5.9230 h1        1 29Z      0.072833
     36 H6         -0.6660   -6.2720    4.4200 h1        1 29Z      0.072833
     37 H7          0.4940   -6.7910    5.4010 h1        1 29Z      0.072833
     38 H8         -0.9170   -3.9290    4.7300 h1        1 29Z      0.078500
     39 H9          0.3840   -3.0050    4.9090 h1        1 29Z      0.078500
     40 H10         0.4650   -5.4210    2.3390 ha        1 29Z      0.151000
     41 H11         0.2370   -5.0350    0.0080 ha        1 29Z      0.137000
     42 H12        -0.7100   -1.1060    0.7520 ha        1 29Z      0.129000
     43 H13        -0.4820   -1.4890    3.0830 ha        1 29Z      0.133000
     44 H14         0.1260   -2.1820   -1.8040 ha        1 29Z      0.132000
     45 H15        -0.6090   -4.0400   -3.0380 hc        1 29Z      0.128000
     46 H16        -1.0680   -4.8110   -1.5960 hc        1 29Z      0.128000
     47 H17        -2.8490   -3.0930   -1.6190 hc        1 29Z      0.155000
     48 H18        -0.2170   -0.7580   -2.1800 hn        1 29Z      0.247000
     49 H19        -2.4640    4.5810   -4.0780 ha        1 29Z      0.146000
     50 H20        -1.2220    6.3280   -3.0340 ha        1 29Z      0.146000
     51 H21         1.3870    3.5360   -1.4420 ha        1 29Z      0.153000
     52 H22        -0.2560    7.3380   -0.7840 ha        1 29Z      0.146000
     53 H23         0.9230    9.3720   -0.7880 ha        1 29Z      0.146000
     54 H24         2.9060    9.5900   -2.0700 ha        1 29Z      0.160000
     55 H25         2.5170    5.7440   -3.3330 ha        1 29Z      0.153000
@<TRIPOS>BOND
     1    1    2 1   
     2    1   32 1   
     3    1   33 1   
     4    1   34 1   
     5    2    3 1   
     6    2    4 1   
     7    3   35 1   
     8    3   36 1   
     9    3   37 1   
    10    4    5 1   
    11    4   38 1   
    12    4   39 1   
    13    5    6 1   
    14    6   40 1   
    15    7    8 1   
    16    7   41 1   
    17    8    9 1   
    18    9   10 1   
    19    9   42 1   
    20   10   43 1   
    21   11   12 1   
    22   11   13 1   
    23   11   44 1   
    24   12   13 1   
    25   12   45 1   
    26   12   46 1   
    27   13   14 1   
    28   13   47 1   
    29   14   15 1   
    30   16   17 1   
    31   16   48 1   
    32   17   18 1   
    33   17   25 1   
    34   18   19 1   
    35   19   24 1   
    36   20   21 1   
    37   20   49 1   
    38   21   50 1   
    39   22   23 1   
    40   23   51 1   
    41   26   31 1   
    42   27   28 1   
    43   27   52 1   
    44   28   53 1   
    45   29   30 1   
    46   29   54 1   
    47   31   55 1   
@<TRIPOS>SUBSTRUCTURE
     1 29Z         1 TEMP              0 ****  ****    0 ROOT
