@<TRIPOS>MOLECULE
29Z
   57    61     1     0     0
SMALL
bcc


@<TRIPOS>ATOM
      1 C1          0.5980   -2.8140   -1.5770 c3        1 29Z      0.081100
      2 N2          1.6030   -1.8900   -0.9910 n4        1 29Z     -0.682400
      3 C3          2.4800   -2.6090   -0.0290 c3        1 29Z      0.081100
      4 C4          2.4250   -1.2250   -2.0640 c3        1 29Z      0.165100
      5 C5          1.6820   -0.1460   -2.7800 ca        1 29Z     -0.162300
      6 C6          1.3830    1.0550   -2.1250 ca        1 29Z     -0.096500
      7 C7          0.7900    2.1040   -2.8200 ca        1 29Z     -0.107000
      8 C8          0.4990    1.9770   -4.1890 ca        1 29Z     -0.036300
      9 C9          0.7830    0.7670   -4.8340 ca        1 29Z     -0.107000
     10 C10         1.3650   -0.2900   -4.1350 ca        1 29Z     -0.096500
     11 C11        -0.0370    3.1450   -4.9030 cx        1 29Z     -0.036400
     12 C12         0.4450    3.5020   -6.2790 cx        1 29Z     -0.056400
     13 C13        -0.9680    2.9830   -6.1040 cx        1 29Z     -0.240700
     14 C14        -2.0680    3.9580   -6.2180 c         1 29Z      0.592100
     15 O15        -2.2040    5.0350   -5.6600 o         1 29Z     -0.411100
     16 N16        -3.2200    3.5860   -7.1470 n4        1 29Z     -0.578800
     17 C17        -2.8310    3.6540   -8.5470 cc        1 29Z      0.255100
     18 N18        -2.0550    2.7080   -9.1130 nd        1 29Z     -0.477100
     19 C19        -1.8730    3.0250  -10.4470 ca        1 29Z      0.059400
     20 C20        -1.1270    2.2720  -11.3890 ca        1 29Z     -0.048000
     21 C21        -1.0480    2.7190  -12.6900 ca        1 29Z     -0.113000
     22 C22        -1.6940    3.9110  -13.1140 cp        1 29Z      0.072000
     23 C23        -2.4310    4.6650  -12.1990 ca        1 29Z     -0.108000
     24 C24        -2.5310    4.2370  -10.8750 ca        1 29Z     -0.070100
     25 S25        -3.3480    4.9320   -9.5850 ss        1 29Z      0.170900
     26 C26        -1.5930    4.3360  -14.5010 cp        1 29Z     -0.216300
     27 C27        -0.4120    4.1570  -15.2430 ca        1 29Z     -0.063000
     28 C28        -0.3710    4.5890  -16.5660 ca        1 29Z     -0.239300
     29 C29        -1.5220    5.1880  -17.1180 ca        1 29Z      0.434200
     30 N30        -2.6650    5.3640  -16.4270 nb        1 29Z     -0.649000
     31 C31        -2.6930    4.9470  -15.1500 ca        1 29Z      0.428200
     32 H1         -0.0840   -3.1870   -0.7650 hx        1 29Z      0.108367
     33 H2          1.1210   -3.6860   -2.0540 hx        1 29Z      0.108367
     34 H3          0.0020   -2.2630   -2.3530 hx        1 29Z      0.108367
     35 H5          3.0950   -3.3720   -0.5790 hx        1 29Z      0.108367
     36 H6          3.1610   -1.8750    0.4800 hx        1 29Z      0.108367
     37 H7          1.8430   -3.1260    0.7390 hx        1 29Z      0.108367
     38 H8          3.3380   -0.7810   -1.5650 hx        1 29Z      0.113700
     39 H9          2.7660   -2.0270   -2.7810 hx        1 29Z      0.113700
     40 H10         1.6420    1.1910   -1.0620 ha        1 29Z      0.149000
     41 H11         0.5710    3.0490   -2.2940 ha        1 29Z      0.158000
     42 H12         0.5680    0.6470   -5.9080 ha        1 29Z      0.158000
     43 H13         1.5960   -1.2280   -4.6660 ha        1 29Z      0.149000
     44 H14        -0.2710    3.9950   -4.2200 hc        1 29Z      0.122700
     45 H15         1.1670    2.8440   -6.7980 hc        1 29Z      0.114700
     46 H16         0.6020    4.5710   -6.5220 hc        1 29Z      0.114700
     47 H17        -1.1980    1.9630   -6.4760 hc        1 29Z      0.132700
     48 H18        -3.5370    2.6310   -6.9240 hn        1 29Z      0.472300
     49 H19        -0.6290    1.3410  -11.0760 ha        1 29Z      0.165000
     50 H20        -0.4810    2.1330  -13.4340 ha        1 29Z      0.168000
     51 H21        -2.9260    5.5960  -12.5200 ha        1 29Z      0.170000
     52 H22         0.4730    3.6950  -14.7810 ha        1 29Z      0.142000
     53 H23         0.5370    4.4690  -17.1740 ha        1 29Z      0.164000
     54 H24        -1.5320    5.5460  -18.1650 h4        1 29Z      0.046100
     55 H25        -3.6530    5.0940  -14.6220 h4        1 29Z      0.025100
     56 H211        1.0980   -1.1500   -0.4810 hn        1 29Z      0.450800
     57 H162       -4.0020    4.2420   -6.9980 hn        1 29Z      0.472300
@<TRIPOS>BOND
     1    1    2 1   
     2    1   32 1   
     3    1   33 1   
     4    1   34 1   
     5    2    3 1   
     6    2    4 1   
     7    2   56 1   
     8    3   35 1   
     9    3   36 1   
    10    3   37 1   
    11    4    5 1   
    12    4   38 1   
    13    4   39 1   
    14    5    6 ar  
    15    5   10 ar  
    16    6    7 ar  
    17    6   40 1   
    18    7    8 ar  
    19    7   41 1   
    20    8    9 ar  
    21    8   11 1   
    22    9   10 ar  
    23    9   42 1   
    24   10   43 1   
    25   11   12 1   
    26   11   13 1   
    27   11   44 1   
    28   12   13 1   
    29   12   45 1   
    30   12   46 1   
    31   13   14 1   
    32   13   47 1   
    33   14   15 2   
    34   14   16 1   
    35   16   17 1   
    36   16   48 1   
    37   16   57 1   
    38   17   18 2   
    39   17   25 1   
    40   18   19 1   
    41   19   20 ar  
    42   19   24 ar  
    43   20   21 ar  
    44   20   49 1   
    45   21   22 ar  
    46   21   50 1   
    47   22   23 ar  
    48   22   26 1   
    49   23   24 ar  
    50   23   51 1   
    51   24   25 1   
    52   26   27 ar  
    53   26   31 ar  
    54   27   28 ar  
    55   27   52 1   
    56   28   29 ar  
    57   28   53 1   
    58   29   30 ar  
    59   29   54 1   
    60   30   31 ar  
    61   31   55 1   
@<TRIPOS>SUBSTRUCTURE
     1 29Z         1 TEMP              0 ****  ****    0 ROOT
