@<TRIPOS>MOLECULE
29Z
   56    60     1     0     0
SMALL
bcc


@<TRIPOS>ATOM
      1 C1          0.0110    0.3100    0.3940 c3        1 29Z      0.081100
      2 N2          1.4550    0.0030    0.2350 nx        1 29Z     -0.685400
      3 C3          2.1110   -0.1580    1.5560 c3        1 29Z      0.081100
      4 C4          1.6580   -1.2280   -0.6210 c3        1 29Z      0.178100
      5 C5          1.4030   -0.9400   -2.0580 ca        1 29Z     -0.196300
      6 C6          2.3740   -0.2740   -2.8170 ca        1 29Z     -0.097500
      7 C7          2.1540   -0.0240   -4.1670 ca        1 29Z     -0.119000
      8 C8          0.9620   -0.4400   -4.7850 ca        1 29Z      0.014700
      9 C9          0.0010   -1.1170   -4.0200 ca        1 29Z     -0.119000
     10 C10         0.2160   -1.3630   -2.6670 ca        1 29Z     -0.097500
     11 C11         0.7580   -0.1440   -6.2070 cx        1 29Z     -0.084400
     12 C12        -0.0100   -1.0760   -7.1120 cx        1 29Z     -0.102400
     13 C13        -0.6150    0.2390   -6.7200 cx        1 29Z     -0.195700
     14 C14        -0.6900    1.3740   -7.7010 c         1 29Z      0.678100
     15 O15        -0.1130    2.4510   -7.4890 o         1 29Z     -0.551100
     16 N16        -1.5330    1.1600   -8.7980 ns        1 29Z     -0.445400
     17 C17        -1.5070    2.0230   -9.9110 cc        1 29Z      0.373800
     18 N18        -0.8740    1.7680  -11.0620 nd        1 29Z     -0.543100
     19 C19        -1.1190    2.8070  -11.9630 ca        1 29Z      0.089400
     20 C20        -0.6230    2.8880  -13.2820 ca        1 29Z     -0.071000
     21 C21        -0.9450    3.9860  -14.0540 ca        1 29Z     -0.118000
     22 C22        -1.7600    5.0290  -13.5550 cp        1 29Z     -0.010000
     23 C23        -2.2570    4.9620  -12.2550 ca        1 29Z     -0.082000
     24 C24        -1.9480    3.8620  -11.4540 ca        1 29Z     -0.100100
     25 S25        -2.4090    3.5230   -9.8710 ss        1 29Z      0.043900
     26 C26        -2.0790    6.1700  -14.4050 cp        1 29Z     -0.165300
     27 C27        -1.1250    6.7340  -15.2660 ca        1 29Z     -0.079000
     28 C28        -1.4820    7.8270  -16.0540 ca        1 29Z     -0.244300
     29 C29        -2.7940    8.3260  -15.9590 ca        1 29Z      0.402200
     30 N30        -3.7280    7.8000  -15.1420 nb        1 29Z     -0.660000
     31 C31        -3.3710    6.7470  -14.3860 ca        1 29Z      0.408200
     32 H1         -0.4710    0.3340   -0.6220 hx        1 29Z      0.104700
     33 H2         -0.4760   -0.4840    1.0210 hx        1 29Z      0.104700
     34 H3         -0.1060    1.3080    0.8950 hx        1 29Z      0.104700
     35 H5          1.9150    0.7540    2.1830 hx        1 29Z      0.104700
     36 H6          1.6970   -1.0630    2.0740 hx        1 29Z      0.104700
     37 H7          3.2180   -0.2820    1.4120 hx        1 29Z      0.104700
     38 H8          0.9690   -2.0310   -0.2330 hx        1 29Z      0.105200
     39 H9          2.7270   -1.5640   -0.4740 hx        1 29Z      0.105200
     40 H10         3.3220    0.0400   -2.3540 ha        1 29Z      0.137500
     41 H11         2.9210    0.5030   -4.7580 ha        1 29Z      0.159500
     42 H12        -0.9330   -1.4610   -4.4930 ha        1 29Z      0.159500
     43 H13        -0.5460   -1.9040   -2.0840 ha        1 29Z      0.137500
     44 H14         1.6200    0.3990   -6.6600 hc        1 29Z      0.116700
     45 H15        -0.4410   -2.0040   -6.6940 hc        1 29Z      0.092700
     46 H16         0.3600   -1.2210   -8.1450 hc        1 29Z      0.092700
     47 H17        -1.4720    0.2530   -6.0170 hc        1 29Z      0.111700
     48 H18        -1.7310    0.2040   -9.0180 hn        1 29Z      0.322500
     49 H19         0.0100    2.0800  -13.6810 ha        1 29Z      0.155000
     50 H20        -0.5700    4.0540  -15.0880 ha        1 29Z      0.145000
     51 H21        -2.8850    5.7750  -11.8580 ha        1 29Z      0.148000
     52 H22        -0.1050    6.3220  -15.3100 ha        1 29Z      0.142000
     53 H23        -0.7590    8.2920  -16.7360 ha        1 29Z      0.149000
     54 H24        -3.1190    9.1910  -16.5660 h4        1 29Z      0.028100
     55 H25        -4.1620    6.3330  -13.7350 h4        1 29Z      0.024100
     56 H211        1.8950    0.7930   -0.2590 hn        1 29Z      0.453800
@<TRIPOS>BOND
     1    1    2 1   
     2    1   32 1   
     3    1   33 1   
     4    1   34 1   
     5    2    3 1   
     6    2    4 1   
     7    2   56 1   
     8    3   35 1   
     9    3   36 1   
    10    3   37 1   
    11    4    5 1   
    12    4   38 1   
    13    4   39 1   
    14    5    6 ar  
    15    5   10 ar  
    16    6    7 ar  
    17    6   40 1   
    18    7    8 ar  
    19    7   41 1   
    20    8    9 ar  
    21    8   11 1   
    22    9   10 ar  
    23    9   42 1   
    24   10   43 1   
    25   11   12 1   
    26   11   13 1   
    27   11   44 1   
    28   12   13 1   
    29   12   45 1   
    30   12   46 1   
    31   13   14 1   
    32   13   47 1   
    33   14   15 2   
    34   14   16 1   
    35   16   17 1   
    36   16   48 1   
    37   17   18 2   
    38   17   25 1   
    39   18   19 1   
    40   19   20 ar  
    41   19   24 ar  
    42   20   21 ar  
    43   20   49 1   
    44   21   22 ar  
    45   21   50 1   
    46   22   23 ar  
    47   22   26 1   
    48   23   24 ar  
    49   23   51 1   
    50   24   25 1   
    51   26   27 ar  
    52   26   31 ar  
    53   27   28 ar  
    54   27   52 1   
    55   28   29 ar  
    56   28   53 1   
    57   29   30 ar  
    58   29   54 1   
    59   30   31 ar  
    60   31   55 1   
@<TRIPOS>SUBSTRUCTURE
     1 29Z         1 TEMP              0 ****  ****    0 ROOT
