@<TRIPOS>MOLECULE
29Z
   56    60     1     0     0
SMALL
bcc


@<TRIPOS>ATOM
      1 C1          0.0400    0.3210    0.3950 c3        1 29Z      0.081100
      2 N2          1.4800   -0.0020    0.2270 n4        1 29Z     -0.685400
      3 C3          2.1430   -0.1660    1.5440 c3        1 29Z      0.081100
      4 C4          1.6650   -1.2370   -0.6270 c3        1 29Z      0.178100
      5 C5          1.4030   -0.9480   -2.0630 ca        1 29Z     -0.196300
      6 C6          2.3760   -0.2940   -2.8310 ca        1 29Z     -0.097500
      7 C7          2.1490   -0.0450   -4.1800 ca        1 29Z     -0.118500
      8 C8          0.9480   -0.4490   -4.7880 ca        1 29Z      0.014700
      9 C9         -0.0140   -1.1140   -4.0160 ca        1 29Z     -0.118500
     10 C10         0.2080   -1.3590   -2.6630 ca        1 29Z     -0.097500
     11 C11         0.7380   -0.1530   -6.2100 cx        1 29Z     -0.084400
     12 C12        -0.0460   -1.0790   -7.1080 cx        1 29Z     -0.102400
     13 C13        -0.6350    0.2420   -6.7140 cx        1 29Z     -0.195700
     14 C14        -0.7060    1.3780   -7.6960 c         1 29Z      0.678100
     15 O15        -0.1250    2.4530   -7.4830 o         1 29Z     -0.551100
     16 N16        -1.5490    1.1660   -8.7930 n         1 29Z     -0.445400
     17 C17        -1.5190    2.0290   -9.9060 cc        1 29Z      0.373800
     18 N18        -0.8820    1.7740  -11.0550 nd        1 29Z     -0.543100
     19 C19        -1.1240    2.8120  -11.9560 ca        1 29Z      0.089400
     20 C20        -0.6230    2.8930  -13.2740 ca        1 29Z     -0.071000
     21 C21        -0.9430    3.9920  -14.0470 ca        1 29Z     -0.118000
     22 C22        -1.7610    5.0350  -13.5510 cp        1 29Z     -0.010000
     23 C23        -2.2620    4.9670  -12.2530 ca        1 29Z     -0.082000
     24 C24        -1.9560    3.8670  -11.4500 ca        1 29Z     -0.100100
     25 S25        -2.4210    3.5280   -9.8690 ss        1 29Z      0.043900
     26 C26        -2.0760    6.1750  -14.4020 cp        1 29Z     -0.165300
     27 C27        -1.1190    6.7390  -15.2600 ca        1 29Z     -0.079000
     28 C28        -1.4750    7.8320  -16.0490 ca        1 29Z     -0.244300
     29 C29        -2.7870    8.3310  -15.9590 ca        1 29Z      0.402200
     30 N30        -3.7240    7.8040  -15.1450 nb        1 29Z     -0.660000
     31 C31        -3.3690    6.7520  -14.3890 ca        1 29Z      0.408200
     32 H1         -0.0630    1.3210    0.8940 hx        1 29Z      0.104700
     33 H2         -0.4480    0.3470   -0.6180 hx        1 29Z      0.104700
     34 H3         -0.4510   -0.4670    1.0270 hx        1 29Z      0.104700
     35 H5          1.7230   -1.0670    2.0660 hx        1 29Z      0.104700
     36 H6          1.9610    0.7490    2.1700 hx        1 29Z      0.104700
     37 H7          3.2480   -0.3030    1.3930 hx        1 29Z      0.104700
     38 H8          2.7310   -1.5830   -0.4880 hx        1 29Z      0.105200
     39 H9          0.9700   -2.0320   -0.2330 hx        1 29Z      0.105200
     40 H10         3.3310    0.0100   -2.3750 ha        1 29Z      0.137500
     41 H11         2.9180    0.4730   -4.7780 ha        1 29Z      0.159500
     42 H12        -0.9560   -1.4480   -4.4810 ha        1 29Z      0.159500
     43 H13        -0.5560   -1.8910   -2.0740 ha        1 29Z      0.137500
     44 H14         1.6020    0.3800   -6.6690 hc        1 29Z      0.116700
     45 H15         0.3150   -1.2290   -8.1420 hc        1 29Z      0.092700
     46 H16        -0.4840   -2.0020   -6.6850 hc        1 29Z      0.092700
     47 H17        -1.4870    0.2670   -6.0040 hc        1 29Z      0.112700
     48 H18        -1.7500    0.2110   -9.0120 hn        1 29Z      0.322500
     49 H19         0.0110    2.0860  -13.6700 ha        1 29Z      0.155000
     50 H20        -0.5640    4.0600  -15.0790 ha        1 29Z      0.145000
     51 H21        -2.8920    5.7800  -11.8580 ha        1 29Z      0.148000
     52 H22        -0.1000    6.3280  -15.3010 ha        1 29Z      0.142000
     53 H23        -0.7490    8.2980  -16.7290 ha        1 29Z      0.149000
     54 H24        -3.1100    9.1950  -16.5670 h4        1 29Z      0.028100
     55 H25        -4.1620    6.3370  -13.7400 h4        1 29Z      0.024100
     56 H211        1.9250    0.7830   -0.2720 hn        1 29Z      0.453800
@<TRIPOS>BOND
     1    1    2 1   
     2    1   32 1   
     3    1   33 1   
     4    1   34 1   
     5    2    3 1   
     6    2    4 1   
     7    2   56 1   
     8    3   35 1   
     9    3   36 1   
    10    3   37 1   
    11    4    5 1   
    12    4   38 1   
    13    4   39 1   
    14    5    6 ar  
    15    5   10 ar  
    16    6    7 ar  
    17    6   40 1   
    18    7    8 ar  
    19    7   41 1   
    20    8    9 ar  
    21    8   11 1   
    22    9   10 ar  
    23    9   42 1   
    24   10   43 1   
    25   11   12 1   
    26   11   13 1   
    27   11   44 1   
    28   12   13 1   
    29   12   45 1   
    30   12   46 1   
    31   13   14 1   
    32   13   47 1   
    33   14   15 2   
    34   14   16 1   
    35   16   17 1   
    36   16   48 1   
    37   17   18 2   
    38   17   25 1   
    39   18   19 1   
    40   19   20 ar  
    41   19   24 ar  
    42   20   21 ar  
    43   20   49 1   
    44   21   22 ar  
    45   21   50 1   
    46   22   23 ar  
    47   22   26 1   
    48   23   24 ar  
    49   23   51 1   
    50   24   25 1   
    51   26   27 ar  
    52   26   31 ar  
    53   27   28 ar  
    54   27   52 1   
    55   28   29 ar  
    56   28   53 1   
    57   29   30 ar  
    58   29   54 1   
    59   30   31 ar  
    60   31   55 1   
@<TRIPOS>SUBSTRUCTURE
     1 29Z         1 TEMP              0 ****  ****    0 ROOT
