@<TRIPOS>MOLECULE
29Z
   55    59     1     0     0
SMALL
bcc


@<TRIPOS>ATOM
      1 C1          8.2280    2.6320   -0.5750 c3        1 29Z      0.154600
      2 N2          8.5750    1.6060   -1.5310 n3        1 29Z     -0.736600
      3 C3          9.7770    1.9150   -2.2730 c3        1 29Z      0.154600
      4 C4          8.6170    0.2690   -0.9500 c3        1 29Z      0.212100
      5 C5          7.2960   -0.2150   -0.4270 ca        1 29Z     -0.081300
      6 C6          6.1500   -0.1670   -1.2280 ca        1 29Z     -0.117500
      7 C7          4.9410   -0.6670   -0.7520 ca        1 29Z     -0.123500
      8 C8          4.8570   -1.2200    0.5320 ca        1 29Z     -0.068300
      9 C9          6.0060   -1.2710    1.3290 ca        1 29Z     -0.123500
     10 C10         7.2160   -0.7700    0.8540 ca        1 29Z     -0.117500
     11 C11         3.5800   -1.7730    1.0050 cx        1 29Z     -0.045400
     12 C12         3.1900   -1.7340    2.4540 cx        1 29Z     -0.090400
     13 C13         2.4830   -0.8310    1.4740 cx        1 29Z     -0.223700
     14 C14         1.0750   -1.1840    1.1050 c         1 29Z      0.697100
     15 O15         0.6810   -2.3570    1.0340 o         1 29Z     -0.542100
     16 N16         0.2370   -0.1030    0.7950 n         1 29Z     -0.476400
     17 C17        -1.1410   -0.1900    0.6300 cc        1 29Z      0.455800
     18 N18        -1.9680   -1.0630    1.2040 nd        1 29Z     -0.531100
     19 C19        -3.2760   -0.8310    0.7590 ca        1 29Z      0.107400
     20 C20        -4.4110   -1.5710    1.1470 ca        1 29Z     -0.077000
     21 C21        -5.6500   -1.2180    0.6430 ca        1 29Z     -0.118000
     22 C22        -5.8040   -0.1320   -0.2460 cp        1 29Z     -0.031000
     23 C23        -4.6880    0.6080   -0.6390 ca        1 29Z     -0.076000
     24 C24        -3.4290    0.2670   -0.1510 ca        1 29Z     -0.084100
     25 S25        -1.9260    0.9700   -0.4680 ss        1 29Z     -0.091100
     26 C26        -7.1270    0.2110   -0.7530 cp        1 29Z     -0.152300
     27 C27        -8.0540   -0.7790   -1.1120 ca        1 29Z     -0.083000
     28 C28        -9.3050   -0.3960   -1.5940 ca        1 29Z     -0.245300
     29 C29        -9.5940    0.9770   -1.7030 ca        1 29Z      0.395200
     30 N30        -8.7210    1.9460   -1.3630 nb        1 29Z     -0.663000
     31 C31        -7.5180    1.5630   -0.9000 ca        1 29Z      0.403200
     32 H1          8.0850    3.6010   -1.1220 h1        1 29Z      0.032867
     33 H2          7.2640    2.3520   -0.0750 h1        1 29Z      0.032867
     34 H3          9.0110    2.7830    0.2180 h1        1 29Z      0.032867
     35 H5         10.7030    1.9290   -1.6350 h1        1 29Z      0.032867
     36 H6          9.9140    1.1510   -3.0830 h1        1 29Z      0.032867
     37 H7          9.6570    2.9240   -2.7480 h1        1 29Z      0.032867
     38 H8          8.9420   -0.4450   -1.7630 h1        1 29Z      0.039700
     39 H9          9.3860    0.2070   -0.1220 h1        1 29Z      0.039700
     40 H10         6.2070    0.2690   -2.2370 ha        1 29Z      0.140500
     41 H11         4.0440   -0.6320   -1.3900 ha        1 29Z      0.134500
     42 H12         5.9550   -1.7140    2.3360 ha        1 29Z      0.134500
     43 H13         8.1120   -0.8170    1.4920 ha        1 29Z      0.140500
     44 H14         3.2550   -2.6600    0.4170 hc        1 29Z      0.112700
     45 H15         2.6340   -2.5960    2.8680 hc        1 29Z      0.088700
     46 H16         3.8680   -1.2700    3.1930 hc        1 29Z      0.088700
     47 H17         2.7130    0.2510    1.5100 hc        1 29Z      0.094700
     48 H18         0.6070    0.8190    0.8500 hn        1 29Z      0.330500
     49 H19        -4.3020   -2.4190    1.8410 ha        1 29Z      0.157000
     50 H20        -6.5420   -1.7880    0.9470 ha        1 29Z      0.139000
     51 H21        -4.8000    1.4500   -1.3400 ha        1 29Z      0.144000
     52 H22        -7.7920   -1.8440   -1.0200 ha        1 29Z      0.143000
     53 H23       -10.0520   -1.1450   -1.8860 ha        1 29Z      0.145000
     54 H24       -10.5720    1.3230   -2.0810 h4        1 29Z      0.023100
     55 H25        -6.8270    2.3790   -0.6220 h4        1 29Z      0.025100
@<TRIPOS>BOND
     1    1    2 1   
     2    1   32 1   
     3    1   33 1   
     4    1   34 1   
     5    2    3 1   
     6    2    4 1   
     7    3   35 1   
     8    3   36 1   
     9    3   37 1   
    10    4    5 1   
    11    4   38 1   
    12    4   39 1   
    13    5    6 ar  
    14    5   10 ar  
    15    6    7 ar  
    16    6   40 1   
    17    7    8 ar  
    18    7   41 1   
    19    8    9 ar  
    20    8   11 1   
    21    9   10 ar  
    22    9   42 1   
    23   10   43 1   
    24   11   12 1   
    25   11   13 1   
    26   11   44 1   
    27   12   13 1   
    28   12   45 1   
    29   12   46 1   
    30   13   14 1   
    31   13   47 1   
    32   14   15 2   
    33   14   16 1   
    34   16   17 1   
    35   16   48 1   
    36   17   18 2   
    37   17   25 1   
    38   18   19 1   
    39   19   20 ar  
    40   19   24 ar  
    41   20   21 ar  
    42   20   49 1   
    43   21   22 ar  
    44   21   50 1   
    45   22   23 ar  
    46   22   26 1   
    47   23   24 ar  
    48   23   51 1   
    49   24   25 1   
    50   26   27 ar  
    51   26   31 ar  
    52   27   28 ar  
    53   27   52 1   
    54   28   29 ar  
    55   28   53 1   
    56   29   30 ar  
    57   29   54 1   
    58   30   31 ar  
    59   31   55 1   
@<TRIPOS>SUBSTRUCTURE
     1 29Z         1 TEMP              0 ****  ****    0 ROOT
