@<TRIPOS>MOLECULE
2A0
   41    40     1     0     0
SMALL
bcc


@<TRIPOS>ATOM
      1 N          -1.9800    1.9520   -0.7420 n3        1 2A0     -0.905800
      2 C1         -1.9420    0.6570   -0.0860 c3        1 2A0      0.146500
      3 C2         -0.7130   -0.1850   -0.5200 c3        1 2A0      0.166800
      4 C3         -3.1850   -0.2240   -0.3080 c3        1 2A0     -0.118400
      5 C4         -4.4520    0.4140    0.2160 c3        1 2A0     -0.078400
      6 C5         -5.5960   -0.5790    0.2400 c3        1 2A0     -0.081400
      7 C6         -6.8740    0.0570    0.7230 c3        1 2A0     -0.090100
      8 N2          0.5510    0.3560   -0.0660 n3        1 2A0     -0.802200
      9 C7          1.7020   -0.2310   -0.7480 c3        1 2A0      0.045500
     10 C           1.5780   -1.7830   -0.9390 c         1 2A0      0.918600
     11 O           0.7770   -2.1810   -1.8330 o         1 2A0     -0.841300
     12 C9          3.0100    0.0810   -0.0180 c3        1 2A0     -0.059400
     13 C10         3.3320    1.5600    0.0090 c3        1 2A0     -0.081400
     14 C11         4.7400    1.8060    0.5120 c3        1 2A0     -0.080400
     15 C12         5.0630    3.2770    0.5710 c3        1 2A0     -0.088100
     16 OXT         2.2990   -2.5410   -0.2380 o         1 2A0     -0.841300
     17 H          -1.7790    1.8560   -1.7180 hn        1 2A0      0.333800
     18 H1         -1.8680    0.8700    1.0220 h1        1 2A0      0.060700
     19 H3         -0.8040   -1.2120   -0.0630 h1        1 2A0      0.057700
     20 H4         -0.7460   -0.3310   -1.6410 h1        1 2A0      0.057700
     21 H5         -3.2970   -0.4550   -1.3990 hc        1 2A0      0.050700
     22 H6         -3.0160   -1.1990    0.2200 hc        1 2A0      0.050700
     23 H7         -4.2770    0.8080    1.2520 hc        1 2A0      0.031700
     24 H8         -4.7430    1.2880   -0.4240 hc        1 2A0      0.031700
     25 H9         -5.7470   -0.9970   -0.7900 hc        1 2A0      0.040700
     26 H10        -5.3280   -1.4400    0.9080 hc        1 2A0      0.040700
     27 H11        -7.7010   -0.6940    0.7390 hc        1 2A0      0.026033
     28 H12        -6.7460    0.4640    1.7550 hc        1 2A0      0.026033
     29 H13        -7.1750    0.8970    0.0510 hc        1 2A0      0.026033
     30 H14         0.5730    1.3510   -0.1990 hn        1 2A0      0.331800
     31 H15         1.7860    0.1920   -1.7980 h1        1 2A0     -0.004300
     32 H16         2.9620   -0.3270    1.0240 hc        1 2A0      0.053200
     33 H17         3.8240   -0.4790   -0.5500 hc        1 2A0      0.053200
     34 H18         3.2240    1.9910   -1.0210 hc        1 2A0      0.028200
     35 H19         2.6060    2.0990    0.6720 hc        1 2A0      0.028200
     36 H20         4.8530    1.3540    1.5320 hc        1 2A0      0.035200
     37 H21         5.4720    1.2860   -0.1610 hc        1 2A0      0.035200
     38 H22         6.1050    3.4360    0.9410 hc        1 2A0      0.021033
     39 H23         4.9750    3.7400   -0.4420 hc        1 2A0      0.021033
     40 H24         4.3600    3.8070    1.2580 hc        1 2A0      0.021033
     41 H2         -2.8870    2.3640   -0.6420 hn        1 2A0      0.333800
@<TRIPOS>BOND
     1    1    2 1   
     2    1   17 1   
     3    1   41 1   
     4    2    3 1   
     5    2    4 1   
     6    2   18 1   
     7    3    8 1   
     8    3   19 1   
     9    3   20 1   
    10    4    5 1   
    11    4   21 1   
    12    4   22 1   
    13    5    6 1   
    14    5   23 1   
    15    5   24 1   
    16    6    7 1   
    17    6   25 1   
    18    6   26 1   
    19    7   27 1   
    20    7   28 1   
    21    7   29 1   
    22    8    9 1   
    23    8   30 1   
    24    9   10 1   
    25    9   12 1   
    26    9   31 1   
    27   10   11 1   
    28   10   16 1   
    29   12   13 1   
    30   12   32 1   
    31   12   33 1   
    32   13   14 1   
    33   13   34 1   
    34   13   35 1   
    35   14   15 1   
    36   14   36 1   
    37   14   37 1   
    38   15   38 1   
    39   15   39 1   
    40   15   40 1   
@<TRIPOS>SUBSTRUCTURE
     1 2A0         1 TEMP              0 ****  ****    0 ROOT
