@<TRIPOS>MOLECULE
2A0
   41    40     1     0     0
SMALL
bcc


@<TRIPOS>ATOM
      1 N          -1.6700    0.0840   -1.7510 n3        1 2A0     -0.900800
      2 C1         -0.3750    0.6290   -1.6260 c3        1 2A0      0.154500
      3 C2          0.0340    0.6410   -0.1580 c3        1 2A0      0.118800
      4 C3         -0.3710    2.0460   -2.1620 c3        1 2A0     -0.070400
      5 C4         -0.4730    2.0120   -3.6890 c3        1 2A0     -0.074400
      6 C5         -0.3680    3.4220   -4.2320 c3        1 2A0     -0.082400
      7 C6         -0.6040    3.4060   -5.7370 c3        1 2A0     -0.089100
      8 N2          0.5960   -0.6420    0.1970 n3        1 2A0     -0.809200
      9 C7          0.8230   -0.6880    1.6050 c3        1 2A0      0.029500
     10 C           2.2590   -0.2800    1.9010 c         1 2A0      0.890600
     11 O           2.4930    0.7400    2.6180 o         1 2A0     -0.841800
     12 C9          0.5830   -2.0880    2.1120 c3        1 2A0     -0.050400
     13 C10         0.1830   -2.0340    3.5940 c3        1 2A0     -0.091400
     14 C11         0.0790   -3.4570    4.1490 c3        1 2A0     -0.076400
     15 C12        -0.4490   -3.4080    5.6030 c3        1 2A0     -0.087100
     16 OXT         3.2200   -0.9160    1.3710 o         1 2A0     -0.841800
     17 H          -1.6100   -0.7740   -2.0650 hn        1 2A0      0.341800
     18 H1          0.2550    0.0880   -2.1330 h1        1 2A0      0.055700
     19 H3         -0.7560    0.8190    0.4020 h1        1 2A0      0.041200
     20 H4          0.7060    1.3440   -0.0110 h1        1 2A0      0.041200
     21 H5          0.4560    2.4890   -1.9020 hc        1 2A0      0.038700
     22 H6         -1.1360    2.5380   -1.7940 hc        1 2A0      0.038700
     23 H7          0.2480    1.4730   -4.0490 hc        1 2A0      0.044700
     24 H8         -1.3300    1.6260   -3.9490 hc        1 2A0      0.044700
     25 H9         -1.0420    3.9900   -3.8010 hc        1 2A0      0.034700
     26 H10         0.5230    3.7760   -4.0470 hc        1 2A0      0.034700
     27 H11        -0.6240    4.3300   -6.0760 hc        1 2A0      0.025700
     28 H12        -1.4680    2.9660   -5.9310 hc        1 2A0      0.025700
     29 H13         0.1120    2.9180   -6.1720 hc        1 2A0      0.025700
     30 H14         1.3870   -0.7600   -0.2430 hn        1 2A0      0.353800
     31 H15         0.2120   -0.0710    2.0530 h1        1 2A0      0.042700
     32 H16         1.4050   -2.6170    2.0140 hc        1 2A0      0.025700
     33 H17        -0.1290   -2.5000    1.5990 hc        1 2A0      0.025700
     34 H18        -0.6820   -1.5860    3.6820 hc        1 2A0      0.060200
     35 H19         0.8560   -1.5390    4.0930 hc        1 2A0      0.060200
     36 H20         0.9620   -3.8770    4.1380 hc        1 2A0      0.026700
     37 H21        -0.5410   -3.9810    3.5920 hc        1 2A0      0.026700
     38 H22        -1.4010   -3.1350    5.6000 hc        1 2A0      0.022700
     39 H23         0.0780   -2.7570    6.1230 hc        1 2A0      0.022700
     40 H24        -0.3640   -4.3040    6.0150 hc        1 2A0      0.022700
     41 H2         -2.0810    0.0820   -0.9340 hn        1 2A0      0.341800
@<TRIPOS>BOND
     1    1    2 1   
     2    1   17 1   
     3    1   41 1   
     4    2    3 1   
     5    2    4 1   
     6    2   18 1   
     7    3    8 1   
     8    3   19 1   
     9    3   20 1   
    10    4    5 1   
    11    4   21 1   
    12    4   22 1   
    13    5    6 1   
    14    5   23 1   
    15    5   24 1   
    16    6    7 1   
    17    6   25 1   
    18    6   26 1   
    19    7   27 1   
    20    7   28 1   
    21    7   29 1   
    22    8    9 1   
    23    8   30 1   
    24    9   10 1   
    25    9   12 1   
    26    9   31 1   
    27   10   11 1   
    28   10   16 1   
    29   12   13 1   
    30   12   32 1   
    31   12   33 1   
    32   13   14 1   
    33   13   34 1   
    34   13   35 1   
    35   14   15 1   
    36   14   36 1   
    37   14   37 1   
    38   15   38 1   
    39   15   39 1   
    40   15   40 1   
@<TRIPOS>SUBSTRUCTURE
     1 2A0         1 TEMP              0 ****  ****    0 ROOT
