@<TRIPOS>MOLECULE
2A1
   15    14     1     0     0
SMALL
bcc


@<TRIPOS>ATOM
      1 C1         -0.0380    0.0170    0.0130 c3        1 2A1      0.110400
      2 N1          2.0330    1.2390   -0.6920 nz        1 2A1     -0.838600
      3 O1         -0.4560    1.2930    0.4600 oh        1 2A1     -0.632800
      4 C2          1.5070    0.0130    0.0110 c3        1 2A1      0.120500
      5 C3          2.0440   -0.0710    1.4310 c3        1 2A1     -0.137100
      6 H1         -0.3900   -0.8030    0.6920 h1        1 2A1      0.076700
      7 H1A        -0.4330   -0.1580   -1.0250 h1        1 2A1      0.076700
      8 HN1         3.0540    1.2640   -0.6410 hn        1 2A1      0.465467
      9 HN1A        1.6450    2.0730   -0.2300 hn        1 2A1      0.465467
     10 HO1        -1.3390    1.2020    0.8440 ho        1 2A1      0.459000
     11 H2          1.8600   -0.8810   -0.5870 hx        1 2A1      0.113700
     12 H3          1.6290    0.7520    2.0640 hc        1 2A1      0.085367
     13 H3A         1.7230   -1.0480    1.8720 hc        1 2A1      0.085367
     14 H3B         3.1610   -0.0320    1.4560 hc        1 2A1      0.085367
     15 H13         1.7310    1.2360   -1.6700 hn        1 2A1      0.465467
@<TRIPOS>BOND
     1    1    3 1   
     2    1    4 1   
     3    1    6 1   
     4    1    7 1   
     5    2    4 1   
     6    2    8 1   
     7    2    9 1   
     8    2   15 1   
     9    3   10 1   
    10    4    5 1   
    11    4   11 1   
    12    5   12 1   
    13    5   13 1   
    14    5   14 1   
@<TRIPOS>SUBSTRUCTURE
     1 2A1         1 TEMP              0 ****  ****    0 ROOT
