@<TRIPOS>MOLECULE
2A1
   14    13     1     0     0
SMALL
bcc


@<TRIPOS>ATOM
      1 C1         -1.1520   -0.0740   -0.1700 c3        1 2A1      0.126400
      2 N1          0.9010    1.1210   -0.6660 n3        1 2A1     -0.911800
      3 O1         -1.6240   -0.6600   -1.3840 oh        1 2A1     -0.610800
      4 C2          0.3830   -0.1130   -0.1400 c3        1 2A1      0.169500
      5 C3          0.8480   -0.2900    1.2640 c3        1 2A1     -0.093100
      6 H1         -1.5080   -0.5770    0.5960 h1        1 2A1      0.032200
      7 H1A        -1.4530    0.8500   -0.1190 h1        1 2A1      0.032200
      8 HN1         0.7710    1.1450   -1.5870 hn        1 2A1      0.355300
      9 HN1A        1.8020    1.1820   -0.4800 hn        1 2A1      0.355300
     10 HO1        -2.5150   -0.7360   -1.3510 ho        1 2A1      0.403000
     11 H2          0.7060   -0.8690   -0.6920 h1        1 2A1      0.022700
     12 H3          0.5290    0.4770    1.8180 hc        1 2A1      0.040033
     13 H3A         1.8290   -0.3230    1.2830 hc        1 2A1      0.040033
     14 H3B         0.4830   -1.1320    1.6270 hc        1 2A1      0.040033
@<TRIPOS>BOND
     1    1    3 1   
     2    1    4 1   
     3    1    6 1   
     4    1    7 1   
     5    2    4 1   
     6    2    8 1   
     7    2    9 1   
     8    3   10 1   
     9    4    5 1   
    10    4   11 1   
    11    5   12 1   
    12    5   13 1   
    13    5   14 1   
@<TRIPOS>SUBSTRUCTURE
     1 2A1         1 TEMP              0 ****  ****    0 ROOT
