@<TRIPOS>MOLECULE
2A1
   15    14     1     0     0
SMALL
bcc


@<TRIPOS>ATOM
      1 C1         -0.0400    0.0310    0.0050 c3        1 2A1      0.110400
      2 N1          2.0410    1.2460   -0.6790 n4        1 2A1     -0.838600
      3 O1         -0.4490    1.3040    0.4700 oh        1 2A1     -0.632800
      4 C2          1.5050    0.0140    0.0050 c3        1 2A1      0.120500
      5 C3          2.0380   -0.0950    1.4250 c3        1 2A1     -0.137100
      6 H1         -0.4010   -0.7960    0.6720 h1        1 2A1      0.076700
      7 H1A        -0.4350   -0.1260   -1.0350 h1        1 2A1      0.076700
      8 HN1         1.7410    1.2600   -1.6560 hn        1 2A1      0.465467
      9 HN1A        3.0620    1.2610   -0.6260 hn        1 2A1      0.465467
     10 HO1        -1.3340    1.2140    0.8510 ho        1 2A1      0.459000
     11 H2          1.8510   -0.8750   -0.6040 hx        1 2A1      0.113700
     12 H3          1.7090   -1.0760    1.8510 hc        1 2A1      0.085367
     13 H3A         3.1550   -0.0660    1.4530 hc        1 2A1      0.085367
     14 H3B         1.6280    0.7230    2.0690 hc        1 2A1      0.085367
     15 H13         1.6600    2.0760   -0.2050 hn        1 2A1      0.465467
@<TRIPOS>BOND
     1    1    3 1   
     2    1    4 1   
     3    1    6 1   
     4    1    7 1   
     5    2    4 1   
     6    2    8 1   
     7    2    9 1   
     8    2   15 1   
     9    3   10 1   
    10    4    5 1   
    11    4   11 1   
    12    5   12 1   
    13    5   13 1   
    14    5   14 1   
@<TRIPOS>SUBSTRUCTURE
     1 2A1         1 TEMP              0 ****  ****    0 ROOT
