@<TRIPOS>MOLECULE
2A1
   14    13     1     0     0
SMALL
bcc


@<TRIPOS>ATOM
      1 C1         -0.9550    0.0370   -0.8240 c3        1 2A1      0.140400
      2 N1          0.8740    1.1830    0.3790 n3        1 2A1     -0.924800
      3 O1         -1.7970   -0.1950    0.2840 oh        1 2A1     -0.600800
      4 C2          0.5460    0.0400   -0.4580 c3        1 2A1      0.128500
      5 C3          0.8970   -1.2910    0.2030 c3        1 2A1     -0.094100
      6 H1         -1.1630   -0.8170   -1.5230 h1        1 2A1      0.040700
      7 H1A        -1.2350    1.0040   -1.3210 h1        1 2A1      0.040700
      8 HN1         1.7610    1.0550    0.8210 hn        1 2A1      0.354300
      9 HN1A        0.8890    2.0200   -0.1670 hn        1 2A1      0.354300
     10 HO1        -1.5630    0.4460    0.9670 ho        1 2A1      0.415000
     11 H2          1.1070    0.0860   -1.4440 h1        1 2A1      0.014700
     12 H3          0.2800   -1.4420    1.1210 hc        1 2A1      0.044033
     13 H3A         0.6790   -2.1210   -0.5110 hc        1 2A1      0.044033
     14 H3B         1.9770   -1.3320    0.4790 hc        1 2A1      0.044033
@<TRIPOS>BOND
     1    1    3 1   
     2    1    4 1   
     3    1    6 1   
     4    1    7 1   
     5    2    4 1   
     6    2    8 1   
     7    2    9 1   
     8    3   10 1   
     9    4    5 1   
    10    4   11 1   
    11    5   12 1   
    12    5   13 1   
    13    5   14 1   
@<TRIPOS>SUBSTRUCTURE
     1 2A1         1 TEMP              0 ****  ****    0 ROOT
