@<TRIPOS>MOLECULE
2A1
   15    14     1     0     0
SMALL
bcc


@<TRIPOS>ATOM
      1 C1         -0.0360    0.0130    0.0120 c3        1 2A1      0.110400
      2 N1          2.0330    1.2360   -0.6950 n4        1 2A1     -0.838600
      3 O1         -0.4580    1.2900    0.4520 oh        1 2A1     -0.632800
      4 C2          1.5090    0.0130    0.0130 c3        1 2A1      0.120500
      5 C3          2.0430   -0.0630    1.4350 c3        1 2A1     -0.137100
      6 H1         -0.3880   -0.8050    0.6950 h1        1 2A1      0.076700
      7 H1A        -0.4290   -0.1680   -1.0250 h1        1 2A1      0.076700
      8 HN1         3.0540    1.2640   -0.6420 hn        1 2A1      0.465467
      9 HN1A        1.6430    2.0720   -0.2370 hn        1 2A1      0.465467
     10 HO1        -1.3420    1.1990    0.8350 ho        1 2A1      0.459000
     11 H2          1.8650   -0.8840   -0.5790 hx        1 2A1      0.113700
     12 H3          1.6240    0.7620    2.0630 hc        1 2A1      0.085367
     13 H3A         1.7230   -1.0390    1.8800 hc        1 2A1      0.085367
     14 H3B         3.1590   -0.0220    1.4620 hc        1 2A1      0.085367
     15 H13         1.7330    1.2280   -1.6730 hn        1 2A1      0.465467
@<TRIPOS>BOND
     1    1    3 1   
     2    1    4 1   
     3    1    6 1   
     4    1    7 1   
     5    2    4 1   
     6    2    8 1   
     7    2    9 1   
     8    2   15 1   
     9    3   10 1   
    10    4    5 1   
    11    4   11 1   
    12    5   12 1   
    13    5   13 1   
    14    5   14 1   
@<TRIPOS>SUBSTRUCTURE
     1 2A1         1 TEMP              0 ****  ****    0 ROOT
