@<TRIPOS>MOLECULE
2A2
   38    39     1     0     0
SMALL
bcc


@<TRIPOS>ATOM
      1 C1          0.0520    0.0730    0.0110 c3        1 2A2      0.004700
      2 SD          1.8190    0.1370    0.1040 sh        1 2A2     -0.362900
      3 C15        -0.4660    0.0480    1.4270 c3        1 2A2     -0.068400
      4 C16        -1.9810   -0.0060    1.4360 c3        1 2A2     -0.144400
      5 C17        -2.5090   -0.0180    2.8590 c         1 2A2      0.654100
      6 O18        -1.7420    0.1190    3.8330 o         1 2A2     -0.597100
      7 N19        -3.8660   -0.2580    3.0740 n         1 2A2     -0.466800
      8 C20        -4.4120   -0.1730    4.4120 c3        1 2A2      0.081500
      9 C21        -5.3730    1.0200    4.6140 c3        1 2A2      0.160300
     10 N22        -6.3830    1.1000    3.5710 nh        1 2A2     -0.636000
     11 C23        -5.8250    1.0510    2.2290 c3        1 2A2      0.160300
     12 C24        -4.8610   -0.1460    2.0370 c3        1 2A2      0.081500
     13 C25        -7.4150    2.0540    3.7630 ca        1 2A2      0.143600
     14 C26        -8.5610    2.0140    2.9320 ca        1 2A2     -0.157000
     15 C27        -9.6230    2.8820    3.1490 ca        1 2A2     -0.101000
     16 C28        -9.5930    3.8090    4.1890 ca        1 2A2     -0.150000
     17 C29        -8.4690    3.8540    5.0140 ca        1 2A2      0.043400
     18 C30        -7.3840    2.9990    4.8110 ca        1 2A2     -0.177000
     19 CL99       -8.4080    4.9780    6.2920 cl        1 2A2     -0.096400
     20 H1         -0.3400    0.9650   -0.5350 h1        1 2A2      0.056200
     21 H1A        -0.2750   -0.8390   -0.5430 h1        1 2A2      0.056200
     22 HSD         2.0910    0.1450   -1.1880 hs        1 2A2      0.196800
     23 H15        -0.0570   -0.8430    1.9750 hc        1 2A2      0.078200
     24 H15A       -0.1200    0.9590    1.9860 hc        1 2A2      0.078200
     25 H16        -2.3940    0.8920    0.9040 hc        1 2A2      0.063700
     26 H16A       -2.3290   -0.9250    0.8960 hc        1 2A2      0.063700
     27 H20        -4.9700   -1.1320    4.6120 h1        1 2A2      0.067200
     28 H20A       -3.5770   -0.0780    5.1630 h1        1 2A2      0.067200
     29 H21        -5.8970    0.8720    5.5990 h1        1 2A2      0.047700
     30 H21A       -4.7620    1.9680    4.6760 h1        1 2A2      0.047700
     31 H23        -5.2750    2.0050    1.9790 h1        1 2A2      0.047700
     32 H23A       -6.6640    0.9300    1.4900 h1        1 2A2      0.047700
     33 H24        -5.4650   -1.0990    2.0410 h1        1 2A2      0.067200
     34 H24A       -4.3870   -0.0370    1.0240 h1        1 2A2      0.067200
     35 H26        -8.6300    1.2810    2.1140 ha        1 2A2      0.138000
     36 H27       -10.5060    2.8330    2.4930 ha        1 2A2      0.137000
     37 H28       -10.4410    4.4890    4.3560 ha        1 2A2      0.149000
     38 H30        -6.5130    3.0760    5.4800 ha        1 2A2      0.150000
@<TRIPOS>BOND
     1    1    2 1   
     2    1    3 1   
     3    1   20 1   
     4    1   21 1   
     5    2   22 1   
     6    3    4 1   
     7    3   23 1   
     8    3   24 1   
     9    4    5 1   
    10    4   25 1   
    11    4   26 1   
    12    5    6 2   
    13    5    7 1   
    14    7    8 1   
    15    7   12 1   
    16    8    9 1   
    17    8   27 1   
    18    8   28 1   
    19    9   10 1   
    20    9   29 1   
    21    9   30 1   
    22   10   11 1   
    23   10   13 1   
    24   11   12 1   
    25   11   31 1   
    26   11   32 1   
    27   12   33 1   
    28   12   34 1   
    29   13   14 ar  
    30   13   18 ar  
    31   14   15 ar  
    32   14   35 1   
    33   15   16 ar  
    34   15   36 1   
    35   16   17 ar  
    36   16   37 1   
    37   17   18 ar  
    38   17   19 1   
    39   18   38 1   
@<TRIPOS>SUBSTRUCTURE
     1 2A2         1 TEMP              0 ****  ****    0 ROOT
