@<TRIPOS>MOLECULE
2A2
   38    37     1     0     0
SMALL
bcc


@<TRIPOS>ATOM
      1 C1          4.8480   -0.8580   -2.2520 c3        1 2A2     -0.256000
      2 SD          6.4200   -1.4280   -1.7550 sh        1 2A2     -0.009000
      3 C15         4.1440   -0.2000   -1.0570 c3        1 2A2     -0.147000
      4 C16         2.6560   -0.1170   -1.3320 c3        1 2A2     -0.172000
      5 C17         1.9450    0.7930   -0.2080 c2        1 2A2      0.305000
      6 O18         2.6270    1.6070    0.4700 o         1 2A2     -0.362000
      7 N19         0.5180    0.6420    0.0530 n         1 2A2     -0.338000
      8 C20        -0.3030   -0.2550   -0.6710 c3        1 2A2     -0.054500
      9 C21        -1.5380    0.4190   -1.2180 c3        1 2A2     -0.068000
     10 N22        -2.2680    1.1610   -0.1880 n3        1 2A2     -0.228000
     11 C23        -1.4140    2.0720    0.5470 c3        1 2A2     -0.068000
     12 C24        -0.1980    1.3970    1.0840 c3        1 2A2     -0.054500
     13 C25        -2.8750    0.2370    0.7250 c2        1 2A2      0.050000
     14 C26        -3.3840   -0.9630    0.2550 c2        1 2A2     -0.152000
     15 C27        -4.0720   -1.8290    1.1310 c1        1 2A2     -0.103000
     16 C28        -4.2400   -1.4730    2.4750 c1        1 2A2     -0.147000
     17 C29        -3.7240   -0.2590    2.9460 c1        1 2A2     -0.038000
     18 C30        -3.0450    0.5940    2.0800 c2        1 2A2     -0.174000
     19 CL99       -3.9760    0.2040    4.5730 cl        1 2A2     -0.017000
     20 H1          4.9440   -0.2320   -2.9310 h1        1 2A2      0.095500
     21 H1A         4.3300   -1.5860   -2.5660 h1        1 2A2      0.095500
     22 HSD         6.9150   -2.0030   -2.6160 hs        1 2A2      0.024000
     23 H15         4.3110   -0.7700   -0.1830 hc        1 2A2      0.117500
     24 H15A        4.5130    0.7350   -0.9230 hc        1 2A2      0.117500
     25 H16         2.5170    0.2620   -2.1710 hc        1 2A2      0.102500
     26 H16A        2.2900   -0.9660   -1.3140 hc        1 2A2      0.102500
     27 H20        -0.5660   -0.9650   -0.0960 h1        1 2A2      0.094750
     28 H20A        0.2380   -0.6450   -1.4530 h1        1 2A2      0.094750
     29 H21        -2.1450   -0.2760   -1.6070 h1        1 2A2      0.105500
     30 H21A       -1.2790    1.0180   -1.9030 h1        1 2A2      0.105500
     31 H23        -1.9250    2.4490    1.2970 h1        1 2A2      0.105500
     32 H23A       -1.1200    2.8460   -0.0840 h1        1 2A2      0.105500
     33 H24         0.3990    2.0720    1.4550 h1        1 2A2      0.094750
     34 H24A       -0.4640    0.7870    1.7930 h1        1 2A2      0.094750
     35 H26        -3.2620   -1.2150   -0.7000 ha        1 2A2      0.140000
     36 H27        -4.4220   -2.6520    0.8100 ha        1 2A2      0.138000
     37 H28        -4.7320   -2.0910    3.1040 ha        1 2A2      0.149000
     38 H30        -2.6640    1.4900    2.4320 ha        1 2A2      0.149000
@<TRIPOS>BOND
     1    1    2 1   
     2    1    3 1   
     3    1   20 1   
     4    1   21 1   
     5    2   22 1   
     6    3    4 1   
     7    3   23 1   
     8    3   24 1   
     9    4    5 1   
    10    4   25 1   
    11    4   26 1   
    12    5    6 1   
    13    5    7 1   
    14    7    8 1   
    15    7   12 1   
    16    8    9 1   
    17    8   27 1   
    18    8   28 1   
    19    9   10 1   
    20    9   29 1   
    21    9   30 1   
    22   10   11 1   
    23   10   13 1   
    24   11   12 1   
    25   11   31 1   
    26   11   32 1   
    27   12   33 1   
    28   12   34 1   
    29   13   14 1   
    30   13   18 1   
    31   14   15 1   
    32   14   35 1   
    33   15   36 1   
    34   16   17 1   
    35   16   37 1   
    36   17   18 1   
    37   18   38 1   
@<TRIPOS>SUBSTRUCTURE
     1 2A2         1 TEMP              0 ****  ****    0 ROOT
