@<TRIPOS>MOLECULE
2A2
   38    39     1     0     0
SMALL
bcc


@<TRIPOS>ATOM
      1 C1          0.0540    0.0820    0.0140 c3        1 2A2      0.004700
      2 SD          1.8210    0.1400    0.1090 sh        1 2A2     -0.362900
      3 C15        -0.4660    0.0490    1.4280 c3        1 2A2     -0.068400
      4 C16        -1.9810   -0.0030    1.4350 c3        1 2A2     -0.144400
      5 C17        -2.5110   -0.0220    2.8570 c         1 2A2      0.654100
      6 O18        -1.7450    0.1100    3.8320 o         1 2A2     -0.597100
      7 N19        -3.8680   -0.2620    3.0690 n         1 2A2     -0.465800
      8 C20        -4.4160   -0.1820    4.4070 c3        1 2A2      0.081500
      9 C21        -5.3760    1.0120    4.6130 c3        1 2A2      0.160300
     10 N22        -6.3840    1.0980    3.5690 nh        1 2A2     -0.636000
     11 C23        -5.8240    1.0540    2.2270 c3        1 2A2      0.160300
     12 C24        -4.8620   -0.1430    2.0310 c3        1 2A2      0.081500
     13 C25        -7.4150    2.0530    3.7630 ca        1 2A2      0.143600
     14 C26        -8.5590    2.0180    2.9300 ca        1 2A2     -0.157000
     15 C27        -9.6200    2.8880    3.1500 ca        1 2A2     -0.101000
     16 C28        -9.5910    3.8100    4.1950 ca        1 2A2     -0.150000
     17 C29        -8.4670    3.8490    5.0220 ca        1 2A2      0.043400
     18 C30        -7.3840    2.9930    4.8160 ca        1 2A2     -0.177000
     19 CL99       -8.4070    4.9660    6.3040 cl        1 2A2     -0.096400
     20 H1         -0.3350    0.9780   -0.5270 h1        1 2A2      0.056200
     21 H1A        -0.2750   -0.8260   -0.5470 h1        1 2A2      0.056200
     22 HSD         2.0950    0.1580   -1.1830 hs        1 2A2      0.196800
     23 H15        -0.1200    0.9560    1.9930 hc        1 2A2      0.078200
     24 H15A       -0.0590   -0.8460    1.9720 hc        1 2A2      0.078200
     25 H16        -2.3290   -0.9200    0.8900 hc        1 2A2      0.063700
     26 H16A       -2.3920    0.8980    0.9070 hc        1 2A2      0.063700
     27 H20        -3.5830   -0.0920    5.1590 h1        1 2A2      0.067200
     28 H20A       -4.9760   -1.1410    4.6010 h1        1 2A2      0.067200
     29 H21        -4.7640    1.9580    4.6800 h1        1 2A2      0.047700
     30 H21A       -5.9010    0.8600    5.5970 h1        1 2A2      0.047700
     31 H23        -5.2730    2.0080    1.9830 h1        1 2A2      0.047700
     32 H23A       -6.6620    0.9380    1.4860 h1        1 2A2      0.047700
     33 H24        -5.4680   -1.0960    2.0300 h1        1 2A2      0.067200
     34 H24A       -4.3870   -0.0320    1.0190 h1        1 2A2      0.067200
     35 H26        -8.6280    1.2900    2.1080 ha        1 2A2      0.138000
     36 H27       -10.5020    2.8440    2.4920 ha        1 2A2      0.137000
     37 H28       -10.4370    4.4910    4.3630 ha        1 2A2      0.149000
     38 H30        -6.5140    3.0650    5.4870 ha        1 2A2      0.150000
@<TRIPOS>BOND
     1    1    2 1   
     2    1    3 1   
     3    1   20 1   
     4    1   21 1   
     5    2   22 1   
     6    3    4 1   
     7    3   23 1   
     8    3   24 1   
     9    4    5 1   
    10    4   25 1   
    11    4   26 1   
    12    5    6 2   
    13    5    7 1   
    14    7    8 1   
    15    7   12 1   
    16    8    9 1   
    17    8   27 1   
    18    8   28 1   
    19    9   10 1   
    20    9   29 1   
    21    9   30 1   
    22   10   11 1   
    23   10   13 1   
    24   11   12 1   
    25   11   31 1   
    26   11   32 1   
    27   12   33 1   
    28   12   34 1   
    29   13   14 ar  
    30   13   18 ar  
    31   14   15 ar  
    32   14   35 1   
    33   15   16 ar  
    34   15   36 1   
    35   16   17 ar  
    36   16   37 1   
    37   17   18 ar  
    38   17   19 1   
    39   18   38 1   
@<TRIPOS>SUBSTRUCTURE
     1 2A2         1 TEMP              0 ****  ****    0 ROOT
