@<TRIPOS>MOLECULE
2A2
   38    39     1     0     0
SMALL
bcc


@<TRIPOS>ATOM
      1 C1         -5.7730    0.5030   -0.9740 c3        1 2A2      0.004700
      2 SD         -7.2140   -0.4940   -1.2280 sh        1 2A2     -0.362900
      3 C15        -4.7840   -0.3340   -0.2040 c3        1 2A2     -0.068400
      4 C16        -3.5130    0.4510    0.0550 c3        1 2A2     -0.144400
      5 C17        -2.5080   -0.3910    0.8190 c         1 2A2      0.654100
      6 O18        -2.7270   -1.5940    1.0610 o         1 2A2     -0.597100
      7 N19        -1.3570    0.2180    1.3170 n         1 2A2     -0.466800
      8 C20        -0.3350   -0.5820    1.9590 c3        1 2A2      0.081500
      9 C21         0.9810   -0.6700    1.1520 c3        1 2A2      0.160300
     10 N22         1.4550    0.6350    0.7230 nh        1 2A2     -0.636000
     11 C23         0.4340    1.4210    0.0460 c3        1 2A2      0.160300
     12 C24        -0.8810    1.5000    0.8590 c3        1 2A2      0.081500
     13 C25         2.7420    0.6760    0.1300 ca        1 2A2      0.143600
     14 C26         3.3730    1.9280   -0.0760 ca        1 2A2     -0.157000
     15 C27         4.6660    1.9940   -0.5790 ca        1 2A2     -0.101000
     16 C28         5.3780    0.8360   -0.8890 ca        1 2A2     -0.150000
     17 C29         4.7640   -0.4010   -0.6880 ca        1 2A2      0.043400
     18 C30         3.4620   -0.4950   -0.1930 ca        1 2A2     -0.177000
     19 CL99        5.6120   -1.8300   -1.0590 cl        1 2A2     -0.096400
     20 H1         -5.3410    0.8180   -1.9550 h1        1 2A2      0.056200
     21 H1A        -6.0350    1.4270   -0.4040 h1        1 2A2      0.056200
     22 HSD        -7.9510    0.3770   -1.8910 hs        1 2A2      0.196800
     23 H15        -5.2280   -0.6590    0.7750 hc        1 2A2      0.078200
     24 H15A       -4.5370   -1.2700   -0.7730 hc        1 2A2      0.078200
     25 H16        -3.0570    0.7630   -0.9220 hc        1 2A2      0.063700
     26 H16A       -3.7550    1.3770    0.6410 hc        1 2A2      0.063700
     27 H20        -0.1200   -0.1160    2.9620 h1        1 2A2      0.067200
     28 H20A       -0.7140   -1.6310    2.1210 h1        1 2A2      0.067200
     29 H21         1.7620   -1.1230    1.8250 h1        1 2A2      0.047700
     30 H21A        0.8210   -1.3650    0.2760 h1        1 2A2      0.047700
     31 H23         0.8120    2.4710   -0.0880 h1        1 2A2      0.047700
     32 H23A        0.2050    1.0000   -0.9760 h1        1 2A2      0.047700
     33 H24        -1.6450    2.0150    0.2150 h1        1 2A2      0.067200
     34 H24A       -0.7030    2.1410    1.7710 h1        1 2A2      0.067200
     35 H26         2.8500    2.8620    0.1770 ha        1 2A2      0.138000
     36 H27         5.1390    2.9770   -0.7300 ha        1 2A2      0.137000
     37 H28         6.4020    0.8980   -1.2820 ha        1 2A2      0.149000
     38 H30         3.0140   -1.4920   -0.0590 ha        1 2A2      0.150000
@<TRIPOS>BOND
     1    1    2 1   
     2    1    3 1   
     3    1   20 1   
     4    1   21 1   
     5    2   22 1   
     6    3    4 1   
     7    3   23 1   
     8    3   24 1   
     9    4    5 1   
    10    4   25 1   
    11    4   26 1   
    12    5    6 2   
    13    5    7 1   
    14    7    8 1   
    15    7   12 1   
    16    8    9 1   
    17    8   27 1   
    18    8   28 1   
    19    9   10 1   
    20    9   29 1   
    21    9   30 1   
    22   10   11 1   
    23   10   13 1   
    24   11   12 1   
    25   11   31 1   
    26   11   32 1   
    27   12   33 1   
    28   12   34 1   
    29   13   14 ar  
    30   13   18 ar  
    31   14   15 ar  
    32   14   35 1   
    33   15   16 ar  
    34   15   36 1   
    35   16   17 ar  
    36   16   37 1   
    37   17   18 ar  
    38   17   19 1   
    39   18   38 1   
@<TRIPOS>SUBSTRUCTURE
     1 2A2         1 TEMP              0 ****  ****    0 ROOT
