@<TRIPOS>MOLECULE
2A2
   38    39     1     0     0
SMALL
bcc


@<TRIPOS>ATOM
      1 C1          0.0540    0.0740    0.0130 c3        1 2A2      0.004700
      2 SD          1.8210    0.1350    0.1060 sh        1 2A2     -0.362900
      3 C15        -0.4650    0.0470    1.4280 c3        1 2A2     -0.068400
      4 C16        -1.9800   -0.0050    1.4370 c3        1 2A2     -0.144400
      5 C17        -2.5090   -0.0180    2.8580 c         1 2A2      0.654100
      6 O18        -1.7420    0.1180    3.8330 o         1 2A2     -0.597100
      7 N19        -3.8660   -0.2570    3.0730 n         1 2A2     -0.466800
      8 C20        -4.4120   -0.1740    4.4110 c3        1 2A2      0.081500
      9 C21        -5.3740    1.0200    4.6140 c3        1 2A2      0.160300
     10 N22        -6.3830    1.1000    3.5710 nh        1 2A2     -0.636000
     11 C23        -5.8240    1.0520    2.2280 c3        1 2A2      0.160300
     12 C24        -4.8610   -0.1440    2.0350 c3        1 2A2      0.081500
     13 C25        -7.4160    2.0530    3.7630 ca        1 2A2      0.143600
     14 C26        -8.5610    2.0140    2.9310 ca        1 2A2     -0.157000
     15 C27        -9.6240    2.8820    3.1490 ca        1 2A2     -0.101000
     16 C28        -9.5950    3.8080    4.1900 ca        1 2A2     -0.150000
     17 C29        -8.4700    3.8520    5.0160 ca        1 2A2      0.043400
     18 C30        -7.3850    2.9980    4.8120 ca        1 2A2     -0.177000
     19 Cl99       -8.4110    4.9740    6.2940 cl        1 2A2     -0.096400
     20 H1         -0.2740   -0.8380   -0.5430 h1        1 2A2      0.056200
     21 H1A        -0.3370    0.9670   -0.5330 h1        1 2A2      0.056200
     22 HSD         2.0930    0.1460   -1.1860 hs        1 2A2      0.196800
     23 H15        -0.1180    0.9570    1.9880 hc        1 2A2      0.078200
     24 H15A       -0.0580   -0.8450    1.9760 hc        1 2A2      0.078200
     25 H16        -2.3920    0.8940    0.9050 hc        1 2A2      0.063700
     26 H16A       -2.3280   -0.9230    0.8950 hc        1 2A2      0.063700
     27 H20        -4.9710   -1.1330    4.6090 h1        1 2A2      0.067200
     28 H20A       -3.5780   -0.0790    5.1620 h1        1 2A2      0.067200
     29 H21        -4.7630    1.9670    4.6770 h1        1 2A2      0.047700
     30 H21A       -5.8980    0.8700    5.5990 h1        1 2A2      0.047700
     31 H23        -5.2750    2.0060    1.9800 h1        1 2A2      0.047700
     32 H23A       -6.6630    0.9330    1.4880 h1        1 2A2      0.047700
     33 H24        -5.4650   -1.0970    2.0380 h1        1 2A2      0.067200
     34 H24A       -4.3860   -0.0340    1.0230 h1        1 2A2      0.067200
     35 H26        -8.6300    1.2820    2.1120 ha        1 2A2      0.138000
     36 H27       -10.5060    2.8330    2.4920 ha        1 2A2      0.137000
     37 H28       -10.4420    4.4870    4.3570 ha        1 2A2      0.149000
     38 H30        -6.5150    3.0740    5.4820 ha        1 2A2      0.150000
@<TRIPOS>BOND
     1    1    2 1   
     2    1    3 1   
     3    1   20 1   
     4    1   21 1   
     5    2   22 1   
     6    3    4 1   
     7    3   23 1   
     8    3   24 1   
     9    4    5 1   
    10    4   25 1   
    11    4   26 1   
    12    5    6 2   
    13    5    7 1   
    14    7    8 1   
    15    7   12 1   
    16    8    9 1   
    17    8   27 1   
    18    8   28 1   
    19    9   10 1   
    20    9   29 1   
    21    9   30 1   
    22   10   11 1   
    23   10   13 1   
    24   11   12 1   
    25   11   31 1   
    26   11   32 1   
    27   12   33 1   
    28   12   34 1   
    29   13   14 ar  
    30   13   18 ar  
    31   14   15 ar  
    32   14   35 1   
    33   15   16 ar  
    34   15   36 1   
    35   16   17 ar  
    36   16   37 1   
    37   17   18 ar  
    38   17   19 1   
    39   18   38 1   
@<TRIPOS>SUBSTRUCTURE
     1 2A2         1 TEMP              0 ****  ****    0 ROOT
