@<TRIPOS>MOLECULE
2A3
   14    13     1     0     0
SMALL
bcc


@<TRIPOS>ATOM
      1 C1         -1.1420    0.1210   -0.1770 c3        1 2A3      0.126400
      2 N1          0.8650   -1.0530   -0.7540 n3        1 2A3     -0.911800
      3 O1         -1.5820    0.6690   -1.4000 oh        1 2A3     -0.610800
      4 C2          0.3690    0.1280   -0.1360 c3        1 2A3      0.169500
      5 C3          0.8340    0.1780    1.3010 c3        1 2A3     -0.093100
      6 H1         -1.4670   -0.7990   -0.0960 h1        1 2A3      0.032200
      7 H1A        -1.4910    0.6570    0.5650 h1        1 2A3      0.032200
      8 HN1         1.7270   -1.2010   -0.4820 hn        1 2A3      0.355300
      9 HN1A        0.8450   -0.9530   -1.6650 hn        1 2A3      0.355300
     10 HO1        -2.4640    0.7760   -1.3770 ho        1 2A3      0.403000
     11 H2          0.7040    0.9120   -0.6140 h1        1 2A3      0.022700
     12 H3          0.5210    1.0080    1.7170 hc        1 2A3      0.040033
     13 H3A         0.4680   -0.5900    1.7900 hc        1 2A3      0.040033
     14 H3B         1.8130    0.1460    1.3290 hc        1 2A3      0.040033
@<TRIPOS>BOND
     1    1    3 1   
     2    1    4 1   
     3    1    6 1   
     4    1    7 1   
     5    2    4 1   
     6    2    8 1   
     7    2    9 1   
     8    3   10 1   
     9    4    5 1   
    10    4   11 1   
    11    5   12 1   
    12    5   13 1   
    13    5   14 1   
@<TRIPOS>SUBSTRUCTURE
     1 2A3         1 TEMP              0 ****  ****    0 ROOT
