@<TRIPOS>MOLECULE
2A3
   15    14     1     0     0
SMALL
bcc


@<TRIPOS>ATOM
      1 C1         -0.0370   -0.0190    0.0090 c3        1 2A3      0.110400
      2 N1          2.0350   -1.2430   -0.6870 n4        1 2A3     -0.838600
      3 O1         -0.4560   -1.2930    0.4620 oh        1 2A3     -0.632800
      4 C2          1.5080   -0.0140    0.0090 c3        1 2A3      0.120500
      5 C3          2.0420    0.0760    1.4300 c3        1 2A3     -0.137100
      6 H1         -0.3910    0.8050    0.6840 h1        1 2A3      0.076700
      7 H1A        -0.4310    0.1510   -1.0300 h1        1 2A3      0.076700
      8 HN1         1.6470   -2.0750   -0.2210 hn        1 2A3      0.465467
      9 HN1A        3.0560   -1.2670   -0.6340 hn        1 2A3      0.465467
     10 HO1        -1.3400   -1.2000    0.8430 ho        1 2A3      0.459000
     11 H2          1.8610    0.8780   -0.5910 hx        1 2A3      0.113700
     12 H3          1.6260   -0.7440    2.0660 hc        1 2A3      0.085367
     13 H3A         1.7200    1.0560    1.8660 hc        1 2A3      0.085367
     14 H3B         3.1590    0.0380    1.4580 hc        1 2A3      0.085367
     15 H13         1.7350   -1.2450   -1.6650 hn        1 2A3      0.465467
@<TRIPOS>BOND
     1    1    3 1   
     2    1    4 1   
     3    1    6 1   
     4    1    7 1   
     5    2    4 1   
     6    2    8 1   
     7    2    9 1   
     8    2   15 1   
     9    3   10 1   
    10    4    5 1   
    11    4   11 1   
    12    5   12 1   
    13    5   13 1   
    14    5   14 1   
@<TRIPOS>SUBSTRUCTURE
     1 2A3         1 TEMP              0 ****  ****    0 ROOT
