@<TRIPOS>MOLECULE
2A3
   15    14     1     0     0
SMALL
bcc


@<TRIPOS>ATOM
      1 C1         -0.0390   -0.0170    0.0200 c3        1 2A3      0.110400
      2 N1          2.0240   -1.2450   -0.6940 nz        1 2A3     -0.838600
      3 O1         -0.4560   -1.2900    0.4770 oh        1 2A3     -0.632800
      4 C2          1.5060   -0.0150    0.0060 c3        1 2A3      0.120500
      5 C3          2.0540    0.0760    1.4220 c3        1 2A3     -0.137100
      6 H1         -0.3850    0.8080    0.6970 h1        1 2A3      0.076700
      7 H1A        -0.4420    0.1530   -1.0150 h1        1 2A3      0.076700
      8 HN1         1.7150   -1.2480   -1.6690 hn        1 2A3      0.465467
      9 HN1A        1.6390   -2.0770   -0.2240 hn        1 2A3      0.465467
     10 HO1        -1.3360   -1.1950    0.8670 ho        1 2A3      0.459000
     11 H2          1.8560    0.8760   -0.5980 hx        1 2A3      0.113700
     12 H3          1.7380    1.0560    1.8600 hc        1 2A3      0.085367
     13 H3A         1.6420   -0.7430    2.0620 hc        1 2A3      0.085367
     14 H3B         3.1700    0.0360    1.4390 hc        1 2A3      0.085367
     15 H13         3.0460   -1.2710   -0.6500 hn        1 2A3      0.465467
@<TRIPOS>BOND
     1    1    3 1   
     2    1    4 1   
     3    1    6 1   
     4    1    7 1   
     5    2    4 1   
     6    2    8 1   
     7    2    9 1   
     8    2   15 1   
     9    3   10 1   
    10    4    5 1   
    11    4   11 1   
    12    5   12 1   
    13    5   13 1   
    14    5   14 1   
@<TRIPOS>SUBSTRUCTURE
     1 2A3         1 TEMP              0 ****  ****    0 ROOT
