@<TRIPOS>MOLECULE
2A3
   14    13     1     0     0
SMALL
bcc


@<TRIPOS>ATOM
      1 C1         -0.9130   -0.0700   -0.6710 c3        1 2A3      0.128400
      2 N1          1.0880   -1.2010    0.2560 n3        1 2A3     -0.901800
      3 O1         -1.5450   -0.0420    0.6000 oh        1 2A3     -0.607800
      4 C2          0.6120   -0.0230   -0.4460 c3        1 2A3      0.165500
      5 C3          0.9730    1.3140    0.2020 c3        1 2A3     -0.130100
      6 H1         -1.1980   -1.0010   -1.2280 h1        1 2A3      0.031200
      7 H1A        -1.2250    0.8300   -1.2650 h1        1 2A3      0.031200
      8 HN1         2.0280   -1.0540    0.5700 hn        1 2A3      0.351300
      9 HN1A        0.5070   -1.3890    1.0510 hn        1 2A3      0.351300
     10 HO1        -2.4770   -0.2350    0.4480 ho        1 2A3      0.402000
     11 H2          1.0890   -0.0540   -1.4730 h1        1 2A3      0.056700
     12 H3          0.4520    1.4230    1.1830 hc        1 2A3      0.041033
     13 H3A         2.0740    1.3930    0.3630 hc        1 2A3      0.041033
     14 H3B         0.6520    2.1520   -0.4620 hc        1 2A3      0.041033
@<TRIPOS>BOND
     1    1    3 1   
     2    1    4 1   
     3    1    6 1   
     4    1    7 1   
     5    2    4 1   
     6    2    8 1   
     7    2    9 1   
     8    3   10 1   
     9    4    5 1   
    10    4   11 1   
    11    5   12 1   
    12    5   13 1   
    13    5   14 1   
@<TRIPOS>SUBSTRUCTURE
     1 2A3         1 TEMP              0 ****  ****    0 ROOT
