@<TRIPOS>MOLECULE
2A5
   45    43     1     0     0
SMALL
bcc


@<TRIPOS>ATOM
      1 O2A        -3.1260    2.6870   -0.1010 o         1 2A5     -0.694500
      2 PA         -2.0930    3.7400   -0.4020 p5        1 2A5      2.045000
      3 O1A        -1.8360    4.5620    0.8360 o         1 2A5     -0.694500
      4 O3A        -2.6240    4.6900   -1.5710 os        1 2A5     -1.187000
      5 PB         -4.0810    5.3330   -1.5940 p5        1 2A5      1.626500
      6 O2B        -4.3820    5.9470   -0.2480 o         1 2A5     -0.905167
      7 O1B        -5.1010    4.2590   -1.8980 o         1 2A5     -0.905167
      8 O3B        -4.1420    6.4040   -2.6620 o         1 2A5     -0.905167
      9 O5'        -0.7400    3.0390   -0.8630 os        1 2A5     -0.738000
     10 C5'        -0.4230    1.7330   -0.3320 c3        1 2A5      0.039000
     11 C4'         0.8490    1.2650   -0.9110 c3        1 2A5     -0.027000
     12 O4'         1.6940    0.3980    0.2000 os        1 2A5     -0.285000
     13 C1'         1.2030   -0.7840    0.1770 c3        1 2A5      0.186000
     14 C2'         0.6090   -0.9650   -1.3120 c3        1 2A5     -0.138000
     15 C01         1.4390   -1.8450   -2.0750 c3        1 2A5     -0.175000
     16 C02         0.5610   -2.6550   -3.0590 c3        1 2A5     -0.003000
     17 O01         1.0790   -3.9580   -3.1890 oh        1 2A5     -0.373000
     18 C3'         0.6140    0.4360   -1.9320 c3        1 2A5      0.018000
     19 O3'         1.6860    0.5450   -2.9350 oh        1 2A5     -0.377000
     20 N9          0.1660   -0.9050    1.1410 n3        1 2A5     -0.210000
     21 C8         -0.8440   -1.7920    1.2350 c1        1 2A5     -0.132000
     22 N7         -0.7300   -2.4350    2.4260 n2        1 2A5     -0.329000
     23 C5          0.3620   -1.9380    3.0700 c1        1 2A5     -0.127000
     24 C4          0.9160   -0.9950    2.2810 c1        1 2A5     -0.007000
     25 C6          0.9410   -2.2440    4.3000 c1        1 2A5      0.039000
     26 N6          0.6140   -3.3560    5.1730 n2        1 2A5     -0.293000
     27 N1          2.0520   -1.5980    4.6980 n2        1 2A5     -0.254000
     28 C2          2.6130   -0.6420    3.8970 c1        1 2A5     -0.091000
     29 N3          2.0440   -0.3410    2.6890 n1        1 2A5     -0.186000
     30 H5'        -1.1410    1.1030   -0.5630 h1        1 2A5      0.085500
     31 H5'A       -0.3380    1.7890    0.6460 h1        1 2A5      0.085500
     32 H4'         1.3740    2.0200   -1.2130 h1        1 2A5      0.107000
     33 H1'         1.9050   -1.4490    0.3460 h2        1 2A5      0.086000
     34 H2'        -0.3010   -1.3120   -1.2710 hc        1 2A5      0.144000
     35 H01         2.0980   -1.3170   -2.5840 hc        1 2A5      0.092500
     36 H01A        1.9060   -2.4550   -1.4740 hc        1 2A5      0.092500
     37 H02         0.5620   -2.2130   -3.9410 h1        1 2A5      0.064000
     38 H02A       -0.3560   -2.7010   -2.7170 h1        1 2A5      0.064000
     39 HO01        0.9510   -4.2450   -4.0190 ho        1 2A5      0.234000
     40 H3'        -0.2540    0.6330   -2.3370 h1        1 2A5      0.091000
     41 HO3'        1.4130    1.0490   -3.6040 ho        1 2A5      0.254000
     42 H8         -1.5580   -1.9120    0.5900 DU        1 2A5      0.231000
     43 HN6         1.0830   -3.4810    5.9560 hn        1 2A5      0.156500
     44 HN6A       -0.0850   -3.9200    4.9600 hn        1 2A5      0.156500
     45 H2          3.4210   -0.1730    4.1880 ha        1 2A5      0.142000
@<TRIPOS>BOND
     1    1    2 1   
     2    2    3 1   
     3    2    4 1   
     4    2    9 1   
     5    4    5 1   
     6    5    6 1   
     7    5    7 1   
     8    5    8 1   
     9    9   10 1   
    10   10   11 1   
    11   10   30 1   
    12   10   31 1   
    13   11   12 1   
    14   11   18 1   
    15   11   32 1   
    16   12   13 1   
    17   13   14 1   
    18   13   20 1   
    19   13   33 1   
    20   14   15 1   
    21   14   18 1   
    22   14   34 1   
    23   15   16 1   
    24   15   35 1   
    25   15   36 1   
    26   16   17 1   
    27   16   37 1   
    28   16   38 1   
    29   17   39 1   
    30   18   19 1   
    31   18   40 1   
    32   19   41 1   
    33   20   21 1   
    34   20   24 1   
    35   21   22 1   
    36   22   23 1   
    37   23   25 1   
    38   24   29 1   
    39   25   27 1   
    40   26   43 1   
    41   26   44 1   
    42   27   28 1   
    43   28   45 1   
@<TRIPOS>SUBSTRUCTURE
     1 2A5         1 TEMP              0 ****  ****    0 ROOT
