@<TRIPOS>MOLECULE
2A6
   45    48     1     0     0
SMALL
bcc


@<TRIPOS>ATOM
      1 C2         -0.2590    0.4630    0.0930 ca        1 2A6      0.880900
      2 C8          0.8640   -0.2030    4.3400 cc        1 2A6      0.437700
      3 C10         3.8590    0.2320   -0.5540 c3        1 2A6      0.141400
      4 C11         5.3690    0.1100   -0.3780 c3        1 2A6     -0.072700
      5 C12         6.0110   -0.1830   -1.7260 c3        1 2A6     -0.073400
      6 C13         7.5170   -0.2750   -1.6010 c3        1 2A6     -0.075900
      7 C14         8.1000    0.9790   -0.9830 c3        1 2A6     -0.078400
      8 C15         7.4550    1.2840    0.3540 c3        1 2A6     -0.075900
      9 C16         5.9490    1.3800    0.2270 c3        1 2A6     -0.073400
     10 C19        -4.2540   -0.6470   -2.2640 ca        1 2A6     -0.120000
     11 C20        -5.1650   -0.0980   -1.3620 ca        1 2A6     -0.138000
     12 C21        -4.7070    0.7260   -0.3360 ca        1 2A6     -0.120000
     13 C22        -3.3500    1.0100   -0.2000 ca        1 2A6     -0.132000
     14 N1          1.1200    0.3760   -0.1640 nb        1 2A6     -0.808000
     15 C6          1.9340    0.1830    0.8850 ca        1 2A6      0.717600
     16 O6          3.3000    0.0890    0.7680 os        1 2A6     -0.456100
     17 C5          1.4180    0.0500    2.1980 ca        1 2A6     -0.377800
     18 N7          1.9550   -0.1600    3.4660 na        1 2A6     -0.244300
     19 N9         -0.3330   -0.0380    3.7390 nd        1 2A6     -0.637700
     20 C4         -0.0340    0.1290    2.3620 ca        1 2A6      0.599300
     21 N3         -0.8780    0.3320    1.3120 nb        1 2A6     -0.694000
     22 N2         -1.0450    0.7870   -1.0440 nu        1 2A6     -0.696300
     23 C17        -2.4210    0.4510   -1.1010 ca        1 2A6      0.119600
     24 C18        -2.8940   -0.3850   -2.1390 ca        1 2A6     -0.132000
     25 H8          0.9940   -0.3590    5.4190 h5        1 2A6      0.073800
     26 H101        3.5730    1.2300   -0.9740 h1        1 2A6      0.057700
     27 H102        3.4620   -0.5880   -1.2080 h1        1 2A6      0.057700
     28 H11         5.5800   -0.7480    0.3210 hc        1 2A6      0.064700
     29 H121        5.7410    0.6290   -2.4520 hc        1 2A6      0.044200
     30 H122        5.6090   -1.1480   -2.1330 hc        1 2A6      0.044200
     31 H131        7.9650   -0.4370   -2.6160 hc        1 2A6      0.041200
     32 H132        7.7860   -1.1620   -0.9690 hc        1 2A6      0.041200
     33 H141        7.9450    1.8450   -1.6780 hc        1 2A6      0.040700
     34 H142        9.2060    0.8510   -0.8460 hc        1 2A6      0.040700
     35 H151        7.7190    0.4780    1.0890 hc        1 2A6      0.041200
     36 H152        7.8580    2.2500    0.7540 hc        1 2A6      0.041200
     37 H161        5.4890    1.5480    1.2360 hc        1 2A6      0.044200
     38 H162        5.6820    2.2580   -0.4180 hc        1 2A6      0.044200
     39 H19        -4.6090   -1.2970   -3.0770 ha        1 2A6      0.133000
     40 H20        -6.2380   -0.3150   -1.4610 ha        1 2A6      0.132000
     41 H21        -5.4220    1.1610    0.3790 ha        1 2A6      0.133000
     42 H22        -3.0150    1.6670    0.6170 ha        1 2A6      0.144500
     43 H7          2.9120   -0.2570    3.6760 hn        1 2A6      0.318700
     44 H2         -0.5680    0.6390   -1.9130 hn        1 2A6      0.428800
     45 H18        -2.1920   -0.8320   -2.8590 ha        1 2A6      0.144500
@<TRIPOS>BOND
     1    1   14 ar  
     2    1   21 ar  
     3    1   22 1   
     4    2   18 1   
     5    2   19 2   
     6    2   25 1   
     7    3    4 1   
     8    3   16 1   
     9    3   26 1   
    10    3   27 1   
    11    4    5 1   
    12    4    9 1   
    13    4   28 1   
    14    5    6 1   
    15    5   29 1   
    16    5   30 1   
    17    6    7 1   
    18    6   31 1   
    19    6   32 1   
    20    7    8 1   
    21    7   33 1   
    22    7   34 1   
    23    8    9 1   
    24    8   35 1   
    25    8   36 1   
    26    9   37 1   
    27    9   38 1   
    28   10   11 ar  
    29   10   24 ar  
    30   10   39 1   
    31   11   12 ar  
    32   11   40 1   
    33   12   13 ar  
    34   12   41 1   
    35   13   23 ar  
    36   13   42 1   
    37   14   15 ar  
    38   15   16 1   
    39   15   17 ar  
    40   17   18 1   
    41   17   20 ar  
    42   18   43 1   
    43   19   20 1   
    44   20   21 ar  
    45   22   23 1   
    46   22   44 1   
    47   23   24 ar  
    48   24   45 1   
@<TRIPOS>SUBSTRUCTURE
     1 2A6         1 TEMP              0 ****  ****    0 ROOT
