@<TRIPOS>MOLECULE
2A6
   46    49     1     0     0
SMALL
bcc


@<TRIPOS>ATOM
      1 C2         -0.3700    1.5090    0.5030 ca        1 2A6      0.725900
      2 C8          0.8970    0.6040    4.6240 cc        1 2A6      0.467700
      3 C10         3.5210    0.3710   -0.5090 c3        1 2A6      0.140400
      4 C11         4.9710   -0.0920   -0.4190 c3        1 2A6     -0.073700
      5 C12         5.4250   -0.5720   -1.7910 c3        1 2A6     -0.072900
      6 C13         6.8750   -1.0130   -1.7520 c3        1 2A6     -0.076900
      7 C14         7.7760    0.0880   -1.2320 c3        1 2A6     -0.080400
      8 C15         7.3170    0.5820    0.1240 c3        1 2A6     -0.076900
      9 C16         5.8700    1.0270    0.0850 c3        1 2A6     -0.072900
     10 C19        -2.6890   -0.9360   -2.5870 ca        1 2A6     -0.109000
     11 C20        -3.8430   -1.2250   -1.8570 ca        1 2A6     -0.072000
     12 C21        -4.1500   -0.4900   -0.7110 ca        1 2A6     -0.109000
     13 C22        -3.3120    0.5390   -0.2850 ca        1 2A6     -0.091500
     14 N1          0.9030    1.1420    0.1000 nb        1 2A6     -0.768000
     15 C6          1.7480    0.7500    1.0810 ca        1 2A6      0.734600
     16 O6          3.0330    0.3620    0.8570 os        1 2A6     -0.429100
     17 C5          1.3130    0.7270    2.4370 ca        1 2A6     -0.309800
     18 N7          1.8890    0.3950    3.6520 na        1 2A6     -0.219300
     19 N9         -0.2770    1.0470    4.1240 nd        1 2A6     -0.596700
     20 C4         -0.0650    1.1420    2.7320 ca        1 2A6      0.569300
     21 N3         -0.9220    1.5390    1.7420 nb        1 2A6     -0.623000
     22 N2         -1.2820    1.9290   -0.6150 n4        1 2A6     -0.604100
     23 C17        -2.1580    0.8290   -1.0340 ca        1 2A6     -0.054400
     24 C18        -1.8340    0.0860   -2.1840 ca        1 2A6     -0.091500
     25 H8          1.0830    0.4160    5.6940 h5        1 2A6      0.104800
     26 H101        3.4410    1.4100   -0.9180 h1        1 2A6      0.061200
     27 H102        2.9010   -0.3390   -1.1140 h1        1 2A6      0.061200
     28 H11         5.0280   -0.9540    0.3050 hc        1 2A6      0.071700
     29 H121        5.3040    0.2580   -2.5350 hc        1 2A6      0.042950
     30 H122        4.7820   -1.4280   -2.1240 hc        1 2A6      0.042950
     31 H131        6.9720   -1.9180   -1.0960 hc        1 2A6      0.048950
     32 H132        7.1980   -1.3080   -2.7840 hc        1 2A6      0.048950
     33 H141        7.7820    0.9420   -1.9590 hc        1 2A6      0.049700
     34 H142        8.8270   -0.2950   -1.1550 hc        1 2A6      0.049700
     35 H151        7.9600    1.4400    0.4500 hc        1 2A6      0.048950
     36 H152        7.4370   -0.2370    0.8820 hc        1 2A6      0.048950
     37 H161        5.7710    1.9190   -0.5870 hc        1 2A6      0.042950
     38 H162        5.5360    1.3350    1.1100 hc        1 2A6      0.042950
     39 H19        -2.4460   -1.5200   -3.4910 ha        1 2A6      0.169000
     40 H20        -4.5130   -2.0370   -2.1850 ha        1 2A6      0.168000
     41 H21        -5.0590   -0.7210   -0.1310 ha        1 2A6      0.169000
     42 H22        -3.5590    1.1030    0.6310 ha        1 2A6      0.164500
     43 H7          2.8170    0.0770    3.7870 hn        1 2A6      0.342700
     44 H2         -1.8620    2.7150   -0.2870 hn        1 2A6      0.475800
     45 H18        -0.9220    0.2960   -2.7660 ha        1 2A6      0.164500
     46 H221       -0.7100    2.2360   -1.4150 hn        1 2A6      0.475800
@<TRIPOS>BOND
     1    1   14 ar  
     2    1   21 ar  
     3    1   22 1   
     4    2   18 1   
     5    2   19 2   
     6    2   25 1   
     7    3    4 1   
     8    3   16 1   
     9    3   26 1   
    10    3   27 1   
    11    4    5 1   
    12    4    9 1   
    13    4   28 1   
    14    5    6 1   
    15    5   29 1   
    16    5   30 1   
    17    6    7 1   
    18    6   31 1   
    19    6   32 1   
    20    7    8 1   
    21    7   33 1   
    22    7   34 1   
    23    8    9 1   
    24    8   35 1   
    25    8   36 1   
    26    9   37 1   
    27    9   38 1   
    28   10   11 ar  
    29   10   24 ar  
    30   10   39 1   
    31   11   12 ar  
    32   11   40 1   
    33   12   13 ar  
    34   12   41 1   
    35   13   23 ar  
    36   13   42 1   
    37   14   15 ar  
    38   15   16 1   
    39   15   17 ar  
    40   17   18 1   
    41   17   20 ar  
    42   18   43 1   
    43   19   20 1   
    44   20   21 ar  
    45   22   23 1   
    46   22   44 1   
    47   22   46 1   
    48   23   24 ar  
    49   24   45 1   
@<TRIPOS>SUBSTRUCTURE
     1 2A6         1 TEMP              0 ****  ****    0 ROOT
