@<TRIPOS>MOLECULE
2A6
   45    40     1     0     0
SMALL
bcc


@<TRIPOS>ATOM
      1 C2         -1.9740    1.5250    0.1290 c1        1 2A6      0.163000
      2 C8         -1.1990    1.3070    4.5570 c1        1 2A6     -0.016000
      3 C10         1.8550   -0.3430    1.0220 c3        1 2A6     -0.009000
      4 C11         3.1920   -0.5560    0.3130 c3        1 2A6     -0.132000
      5 C12         3.7210   -1.9320    0.6680 c3        1 2A6     -0.152000
      6 C13         4.9510   -2.3030   -0.1310 c3        1 2A6     -0.155000
      7 C14         4.7470   -2.1280   -1.6250 c3        1 2A6     -0.156000
      8 C15         4.2170   -0.7520   -1.9810 c3        1 2A6     -0.155000
      9 C16         2.9870   -0.3810   -1.1820 c3        1 2A6     -0.152000
     10 C19        -5.0610   -0.4710   -2.5490 c1        1 2A6     -0.127000
     11 C20        -6.2870   -0.0810   -2.0320 c1        1 2A6     -0.128000
     12 C21        -6.3570    0.9740   -1.1360 c1        1 2A6     -0.128000
     13 C22        -5.2010    1.6380   -0.7550 c1        1 2A6     -0.164000
     14 N1         -0.6260    1.3110    0.0890 n1        1 2A6     -0.263000
     15 C6          0.0700    1.1850    1.2310 c1        1 2A6      0.215000
     16 O6          1.3120    0.8990    0.6390 o         1 2A6     -0.212000
     17 C5         -0.5820    1.2720    2.4510 c1        1 2A6     -0.201000
     18 N7         -0.1370    1.1630    3.7320 n1        1 2A6     -0.203000
     19 N9         -2.2970    1.5050    3.7950 n2        1 2A6     -0.133000
     20 C4         -1.9140    1.4830    2.4900 c1        1 2A6      0.055000
     21 N3         -2.6160    1.6100    1.3290 n1        1 2A6     -0.186000
     22 N2         -2.8010    1.9710   -0.9340 n3        1 2A6     -0.219000
     23 C17        -3.9750    1.2480   -1.2710 c2        1 2A6      0.044000
     24 C18        -3.9060    0.1930   -2.1680 c2        1 2A6     -0.108000
     25 H8         -1.1790    1.2530    5.5320 DU        1 2A6      0.236000
     26 H101        1.2360   -1.0600    0.7740 h1        1 2A6      0.107500
     27 H102        1.9950   -0.3530    1.9920 h1        1 2A6      0.107500
     28 H11         3.8260    0.1170    0.6260 hc        1 2A6      0.111000
     29 H121        3.9460   -1.9490    1.6200 hc        1 2A6      0.081500
     30 H122        3.0220   -2.5940    0.4970 hc        1 2A6      0.081500
     31 H131        5.1770   -3.2370    0.0500 hc        1 2A6      0.080750
     32 H132        5.6960   -1.7370    0.1540 hc        1 2A6      0.080750
     33 H141        4.1110   -2.8020   -1.9380 hc        1 2A6      0.079000
     34 H142        5.6020   -2.2650   -2.0790 hc        1 2A6      0.079000
     35 H151        4.9170   -0.0900   -1.8090 hc        1 2A6      0.080750
     36 H152        3.9930   -0.7360   -2.9320 hc        1 2A6      0.080750
     37 H161        2.2430   -0.9480   -1.4670 hc        1 2A6      0.081500
     38 H162        2.7620    0.5530   -1.3630 hc        1 2A6      0.081500
     39 H19        -5.0120   -1.2140   -3.1800 ha        1 2A6      0.131000
     40 H20        -7.1010   -0.5480   -2.3000 ha        1 2A6      0.132500
     41 H21        -7.2200    1.2490   -0.7720 ha        1 2A6      0.132500
     42 H22        -5.2510    2.3810   -0.1240 ha        1 2A6      0.134000
     43 H7          0.7260    1.0170    3.9890 DU        1 2A6      0.236000
     44 H2         -2.5660    2.7090   -1.4160 hn        1 2A6      0.231000
     45 H18        -3.0420   -0.0820   -2.5320 ha        1 2A6      0.152000
@<TRIPOS>BOND
     1    1   21 1   
     2    1   22 1   
     3    2   18 1   
     4    2   19 1   
     5    3    4 1   
     6    3   16 1   
     7    3   26 1   
     8    3   27 1   
     9    4    5 1   
    10    4    9 1   
    11    4   28 1   
    12    5    6 1   
    13    5   29 1   
    14    5   30 1   
    15    6    7 1   
    16    6   31 1   
    17    6   32 1   
    18    7    8 1   
    19    7   33 1   
    20    7   34 1   
    21    8    9 1   
    22    8   35 1   
    23    8   36 1   
    24    9   37 1   
    25    9   38 1   
    26   10   24 1   
    27   10   39 1   
    28   11   12 1   
    29   11   40 1   
    30   12   41 1   
    31   13   23 1   
    32   13   42 1   
    33   14   15 1   
    34   15   17 1   
    35   17   20 1   
    36   19   20 1   
    37   22   23 1   
    38   22   44 1   
    39   23   24 1   
    40   24   45 1   
@<TRIPOS>SUBSTRUCTURE
     1 2A6         1 TEMP              0 ****  ****    0 ROOT
