@<TRIPOS>MOLECULE
2A6
   45    48     1     0     0
SMALL
bcc


@<TRIPOS>ATOM
      1 C2         -0.2590    0.4610    0.0950 ca        1 2A6      0.880900
      2 C8          0.8680   -0.2140    4.3390 cc        1 2A6      0.437700
      3 C10         3.8590    0.2300   -0.5560 c3        1 2A6      0.141400
      4 C11         5.3690    0.1090   -0.3810 c3        1 2A6     -0.072700
      5 C12         6.0100   -0.1820   -1.7310 c3        1 2A6     -0.073400
      6 C13         7.5170   -0.2720   -1.6070 c3        1 2A6     -0.075900
      7 C14         8.0990    0.9830   -0.9870 c3        1 2A6     -0.078400
      8 C15         7.4550    1.2840    0.3500 c3        1 2A6     -0.075900
      9 C16         5.9480    1.3790    0.2250 c3        1 2A6     -0.073400
     10 C19        -4.2580   -0.6390   -2.2580 ca        1 2A6     -0.120000
     11 C20        -5.1670   -0.0900   -1.3550 ca        1 2A6     -0.138000
     12 C21        -4.7070    0.7310   -0.3280 ca        1 2A6     -0.120000
     13 C22        -3.3490    1.0130   -0.1930 ca        1 2A6     -0.132000
     14 N1          1.1200    0.3740   -0.1640 nb        1 2A6     -0.808000
     15 C6          1.9350    0.1790    0.8850 ca        1 2A6      0.717600
     16 O6          3.3010    0.0850    0.7660 os        1 2A6     -0.456100
     17 C5          1.4200    0.0430    2.1970 ca        1 2A6     -0.377800
     18 N7          1.9590   -0.1690    3.4650 na        1 2A6     -0.244300
     19 N9         -0.3290   -0.0470    3.7400 nd        1 2A6     -0.637700
     20 C4         -0.0320    0.1230    2.3630 ca        1 2A6      0.599300
     21 N3         -0.8760    0.3270    1.3150 nb        1 2A6     -0.694000
     22 N2         -1.0450    0.7880   -1.0410 nh        1 2A6     -0.696300
     23 C17        -2.4220    0.4540   -1.0970 ca        1 2A6      0.119600
     24 C18        -2.8970   -0.3800   -2.1350 ca        1 2A6     -0.132000
     25 H8          0.9990   -0.3720    5.4180 h5        1 2A6      0.073800
     26 H101        3.4630   -0.5900   -1.2110 h1        1 2A6      0.057700
     27 H102        3.5720    1.2280   -0.9750 h1        1 2A6      0.057700
     28 H11         5.5810   -0.7500    0.3160 hc        1 2A6      0.064700
     29 H121        5.7390    0.6310   -2.4550 hc        1 2A6      0.044200
     30 H122        5.6090   -1.1460   -2.1380 hc        1 2A6      0.044200
     31 H131        7.9650   -0.4310   -2.6220 hc        1 2A6      0.041200
     32 H132        7.7870   -1.1590   -0.9760 hc        1 2A6      0.041200
     33 H141        9.2040    0.8560   -0.8520 hc        1 2A6      0.040700
     34 H142        7.9410    1.8490   -1.6810 hc        1 2A6      0.040700
     35 H151        7.8570    2.2510    0.7520 hc        1 2A6      0.041200
     36 H152        7.7200    0.4780    1.0840 hc        1 2A6      0.041200
     37 H161        5.4890    1.5450    1.2340 hc        1 2A6      0.044200
     38 H162        5.6790    2.2570   -0.4180 hc        1 2A6      0.044200
     39 H19        -4.6150   -1.2880   -3.0720 ha        1 2A6      0.133000
     40 H20        -6.2410   -0.3040   -1.4530 ha        1 2A6      0.132000
     41 H21        -5.4190    1.1670    0.3880 ha        1 2A6      0.133000
     42 H22        -3.0110    1.6690    0.6250 ha        1 2A6      0.144500
     43 H7          2.9160   -0.2670    3.6740 hn        1 2A6      0.318700
     44 H2         -0.5690    0.6400   -1.9110 hn        1 2A6      0.428800
     45 H18        -2.1970   -0.8270   -2.8560 ha        1 2A6      0.144500
@<TRIPOS>BOND
     1    1   14 ar  
     2    1   21 ar  
     3    1   22 1   
     4    2   18 1   
     5    2   19 2   
     6    2   25 1   
     7    3    4 1   
     8    3   16 1   
     9    3   26 1   
    10    3   27 1   
    11    4    5 1   
    12    4    9 1   
    13    4   28 1   
    14    5    6 1   
    15    5   29 1   
    16    5   30 1   
    17    6    7 1   
    18    6   31 1   
    19    6   32 1   
    20    7    8 1   
    21    7   33 1   
    22    7   34 1   
    23    8    9 1   
    24    8   35 1   
    25    8   36 1   
    26    9   37 1   
    27    9   38 1   
    28   10   11 ar  
    29   10   24 ar  
    30   10   39 1   
    31   11   12 ar  
    32   11   40 1   
    33   12   13 ar  
    34   12   41 1   
    35   13   23 ar  
    36   13   42 1   
    37   14   15 ar  
    38   15   16 1   
    39   15   17 ar  
    40   17   18 1   
    41   17   20 ar  
    42   18   43 1   
    43   19   20 1   
    44   20   21 ar  
    45   22   23 1   
    46   22   44 1   
    47   23   24 ar  
    48   24   45 1   
@<TRIPOS>SUBSTRUCTURE
     1 2A6         1 TEMP              0 ****  ****    0 ROOT
