@<TRIPOS>MOLECULE
2A6
   45    48     1     0     0
SMALL
bcc


@<TRIPOS>ATOM
      1 C2         -0.1560    0.3170    1.6340 ca        1 2A6      0.880900
      2 C8          4.0920   -0.3690    0.5270 cc        1 2A6      0.437700
      3 C10        -0.8150   -0.1050   -2.4670 c3        1 2A6      0.141400
      4 C11        -0.6420   -0.2940   -3.9710 c3        1 2A6     -0.072700
      5 C12        -1.9910   -0.6250   -4.5940 c3        1 2A6     -0.073400
      6 C13        -1.8700   -0.7840   -6.0960 c3        1 2A6     -0.075900
      7 C14        -1.2610    0.4460   -6.7370 c3        1 2A6     -0.078400
      8 C15         0.0750    0.7880   -6.1110 c3        1 2A6     -0.075900
      9 C16        -0.0470    0.9520   -4.6100 c3        1 2A6     -0.073400
     10 C19        -2.4920   -0.6300    5.6830 ca        1 2A6     -0.120000
     11 C20        -1.5920   -0.0340    6.5650 ca        1 2A6     -0.138000
     12 C21        -0.5730    0.7750    6.0670 ca        1 2A6     -0.120000
     13 C22        -0.4430    0.9990    4.6980 ca        1 2A6     -0.132000
     14 N1         -0.4170    0.1660    0.2610 nb        1 2A6     -0.808000
     15 C6          0.6310   -0.0560   -0.5470 ca        1 2A6      0.717600
     16 O6          0.5100   -0.2130   -1.9070 os        1 2A6     -0.456100
     17 C5          1.9460   -0.1570   -0.0300 ca        1 2A6     -0.377800
     18 N7          3.2140   -0.3820   -0.5620 na        1 2A6     -0.244300
     19 N9          3.4940   -0.1550    1.7170 nd        1 2A6     -0.637700
     20 C4          2.1150   -0.0110    1.4160 ca        1 2A6      0.599300
     21 N3          1.0660    0.2220    2.2540 nb        1 2A6     -0.694000
     22 N2         -1.2930    0.6680    2.4080 nh        1 2A6     -0.696300
     23 C17        -1.3430    0.3930    3.7980 ca        1 2A6      0.119600
     24 C18        -2.3730   -0.4280    4.3110 ca        1 2A6     -0.132000
     25 H8          5.1720   -0.5230    0.4010 h5        1 2A6      0.073800
     26 H101       -1.2410    0.9030   -2.2260 h1        1 2A6      0.057700
     27 H102       -1.4620   -0.9090   -2.0320 h1        1 2A6      0.057700
     28 H11         0.0610   -1.1570   -4.1450 hc        1 2A6      0.064700
     29 H121       -2.7200    0.1940   -4.3590 hc        1 2A6      0.044200
     30 H122       -2.3900   -1.5730   -4.1470 hc        1 2A6      0.044200
     31 H131       -2.8850   -0.9720   -6.5320 hc        1 2A6      0.041200
     32 H132       -1.2330   -1.6790   -6.3250 hc        1 2A6      0.041200
     33 H141       -1.1270    0.2690   -7.8360 hc        1 2A6      0.040700
     34 H142       -1.9620    1.3140   -6.6190 hc        1 2A6      0.040700
     35 H151        0.8150   -0.0240   -6.3400 hc        1 2A6      0.041200
     36 H152        0.4690    1.7380   -6.5590 hc        1 2A6      0.041200
     37 H161       -0.6970    1.8370   -4.3810 hc        1 2A6      0.044200
     38 H162        0.9620    1.1470   -4.1620 hc        1 2A6      0.044200
     39 H19        -3.2990   -1.2690    6.0690 ha        1 2A6      0.133000
     40 H20        -1.6860   -0.2030    7.6470 ha        1 2A6      0.132000
     41 H21         0.1410    1.2480    6.7590 ha        1 2A6      0.133000
     42 H22         0.3680    1.6470    4.3310 ha        1 2A6      0.144500
     43 H7          3.4220   -0.5200   -1.5150 hn        1 2A6      0.318700
     44 H2         -2.1630    0.4920    1.9410 hn        1 2A6      0.428800
     45 H18        -3.0920   -0.9120    3.6320 ha        1 2A6      0.144500
@<TRIPOS>BOND
     1    1   14 ar  
     2    1   21 ar  
     3    1   22 1   
     4    2   18 1   
     5    2   19 2   
     6    2   25 1   
     7    3    4 1   
     8    3   16 1   
     9    3   26 1   
    10    3   27 1   
    11    4    5 1   
    12    4    9 1   
    13    4   28 1   
    14    5    6 1   
    15    5   29 1   
    16    5   30 1   
    17    6    7 1   
    18    6   31 1   
    19    6   32 1   
    20    7    8 1   
    21    7   33 1   
    22    7   34 1   
    23    8    9 1   
    24    8   35 1   
    25    8   36 1   
    26    9   37 1   
    27    9   38 1   
    28   10   11 ar  
    29   10   24 ar  
    30   10   39 1   
    31   11   12 ar  
    32   11   40 1   
    33   12   13 ar  
    34   12   41 1   
    35   13   23 ar  
    36   13   42 1   
    37   14   15 ar  
    38   15   16 1   
    39   15   17 ar  
    40   17   18 1   
    41   17   20 ar  
    42   18   43 1   
    43   19   20 1   
    44   20   21 ar  
    45   22   23 1   
    46   22   44 1   
    47   23   24 ar  
    48   24   45 1   
@<TRIPOS>SUBSTRUCTURE
     1 2A6         1 TEMP              0 ****  ****    0 ROOT
