@<TRIPOS>MOLECULE
2A7
   18    18     1     0     0
SMALL
bcc


@<TRIPOS>ATOM
      1 C7         -0.0330   -0.0160   -0.1170 c3        1 2A7      0.112700
      2 O3          1.3880    0.0640   -0.0620 os        1 2A7     -0.321900
      3 C6          1.9530    0.0350    1.1960 ca        1 2A7      0.188100
      4 C5          3.3570    0.1160    1.2050 ca        1 2A7     -0.245000
      5 C3          4.0120    0.0930    2.4410 ca        1 2A7      0.192600
      6 O1          5.3840    0.1750    2.4030 oh        1 2A7     -0.493600
      7 C1          3.3070   -0.0080    3.6510 ca        1 2A7     -0.335000
      8 C2          1.9100   -0.0870    3.5970 ca        1 2A7      0.192600
      9 C4          1.2130   -0.0680    2.3790 ca        1 2A7     -0.245000
     10 O8          1.1390   -0.1890    4.7310 oh        1 2A7     -0.493600
     11 H71C       -0.2500    0.0260   -1.2150 h1        1 2A7      0.047700
     12 H72C       -0.3900   -0.9800    0.3200 h1        1 2A7      0.047700
     13 H73C       -0.4970    0.8510    0.4110 h1        1 2A7      0.047700
     14 H5          3.9210    0.1960    0.2680 ha        1 2A7      0.162500
     15 H4          0.1180   -0.1320    2.3850 ha        1 2A7      0.162500
     16 H1          5.7110    0.1490    3.3140 ho        1 2A7      0.421500
     17 HA          3.8370   -0.0250    4.6110 ha        1 2A7      0.137000
     18 H8          1.7310   -0.1920    5.4970 ho        1 2A7      0.421500
@<TRIPOS>BOND
     1    1    2 1   
     2    1   11 1   
     3    1   12 1   
     4    1   13 1   
     5    2    3 1   
     6    3    4 ar  
     7    3    9 ar  
     8    4    5 ar  
     9    4   14 1   
    10    5    6 1   
    11    5    7 ar  
    12    6   16 1   
    13    7    8 ar  
    14    7   17 1   
    15    8    9 ar  
    16    8   10 1   
    17    9   15 1   
    18   10   18 1   
@<TRIPOS>SUBSTRUCTURE
     1 2A7         1 TEMP              0 ****  ****    0 ROOT
