@<TRIPOS>MOLECULE
2A7
   18    16     1     0     0
SMALL
bcc


@<TRIPOS>ATOM
      1 C7         -2.0380   -0.2470   -2.1510 c3        1 2A7     -0.077000
      2 O3         -0.6340   -0.1190   -2.1200 os        1 2A7     -0.205000
      3 C6         -0.0980   -0.0410   -0.8230 c2        1 2A7      0.143000
      4 C5         -0.0270    1.1820   -0.1750 c2        1 2A7     -0.269000
      5 C3          0.5300    1.2640    1.0910 c1        1 2A7      0.150000
      6 O1          0.5660    2.4990    1.7650 o         1 2A7     -0.249000
      7 C1          1.0150    0.1230    1.7100 c2        1 2A7     -0.335000
      8 C2          0.9440   -1.1000    1.0630 c1        1 2A7      0.145000
      9 C4          0.3870   -1.1820   -0.2040 c1        1 2A7     -0.221000
     10 O8          1.4070   -2.2640    1.7050 oh        1 2A7     -0.246000
     11 H71C       -2.4500    0.6220   -1.9590 h1        1 2A7      0.087000
     12 H72C       -2.3180   -0.5530   -3.0410 h1        1 2A7      0.087000
     13 H73C       -2.3220   -0.9010   -1.4760 h1        1 2A7      0.087000
     14 H5         -0.3550    1.9880   -0.6170 ha        1 2A7      0.157000
     15 H4          0.3360   -2.0440   -0.6600 ha        1 2A7      0.168000
     16 H1          1.3560    2.8870    1.6320 ho        1 2A7      0.221000
     17 HA          1.4070    0.1810    2.6020 ha        1 2A7      0.137000
     18 H8          2.2940   -2.2960    1.6570 ho        1 2A7      0.220000
@<TRIPOS>BOND
     1    1    2 1   
     2    1   11 1   
     3    1   12 1   
     4    1   13 1   
     5    2    3 1   
     6    3    4 1   
     7    3    9 1   
     8    4    5 1   
     9    4   14 1   
    10    5    7 1   
    11    6   16 1   
    12    7    8 1   
    13    7   17 1   
    14    8   10 1   
    15    9   15 1   
    16   10   18 1   
@<TRIPOS>SUBSTRUCTURE
     1 2A7         1 TEMP              0 ****  ****    0 ROOT
