@<TRIPOS>MOLECULE
2A7
   18    18     1     0     0
SMALL
bcc


@<TRIPOS>ATOM
      1 C7          3.2750    0.0680    0.0160 c3        1 2A7      0.113700
      2 O3          2.1980    0.9980    0.0190 os        1 2A7     -0.320900
      3 C6          0.9270    0.4650   -0.0450 ca        1 2A7      0.193100
      4 C5         -0.1040    1.4180   -0.0390 ca        1 2A7     -0.272500
      5 C3         -1.4270    0.9620   -0.1010 ca        1 2A7      0.190100
      6 O1         -2.4030    1.9310   -0.0930 oh        1 2A7     -0.493600
      7 C1         -1.7390   -0.4030   -0.1680 ca        1 2A7     -0.279000
      8 C2         -0.6820   -1.3210   -0.1720 ca        1 2A7      0.190100
      9 C4          0.6570   -0.9080   -0.1110 ca        1 2A7     -0.272500
     10 O8         -1.0320   -2.6490   -0.2390 oh        1 2A7     -0.493600
     11 H71C        4.1810    0.7220    0.0730 h1        1 2A7      0.046367
     12 H72C        3.2180   -0.6050    0.9060 h1        1 2A7      0.046367
     13 H73C        3.2780   -0.5290   -0.9280 h1        1 2A7      0.046367
     14 H5          0.1210    2.4910    0.0130 ha        1 2A7      0.154000
     15 H4          1.4630   -1.6520   -0.1150 ha        1 2A7      0.154000
     16 H1         -3.2640    1.4880   -0.1400 ho        1 2A7      0.422500
     17 HA         -2.7770   -0.7560   -0.2170 ha        1 2A7      0.154000
     18 H8         -0.2190   -3.1750   -0.2340 ho        1 2A7      0.422500
@<TRIPOS>BOND
     1    1    2 1   
     2    1   11 1   
     3    1   12 1   
     4    1   13 1   
     5    2    3 1   
     6    3    4 ar  
     7    3    9 ar  
     8    4    5 ar  
     9    4   14 1   
    10    5    6 1   
    11    5    7 ar  
    12    6   16 1   
    13    7    8 ar  
    14    7   17 1   
    15    8    9 ar  
    16    8   10 1   
    17    9   15 1   
    18   10   18 1   
@<TRIPOS>SUBSTRUCTURE
     1 2A7         1 TEMP              0 ****  ****    0 ROOT
