@<TRIPOS>MOLECULE
2A7
   18    18     1     0     0
SMALL
bcc


@<TRIPOS>ATOM
      1 C7         -0.0210   -0.0060   -0.1280 c3        1 2A7      0.112700
      2 O3          1.4010    0.0180   -0.0670 os        1 2A7     -0.321900
      3 C6          1.9590    0.0100    1.1940 ca        1 2A7      0.188100
      4 C5          3.3640    0.0350    1.2100 ca        1 2A7     -0.245000
      5 C3          4.0120    0.0290    2.4490 ca        1 2A7      0.192600
      6 O1          5.3860    0.0540    2.4170 oh        1 2A7     -0.493600
      7 C1          3.2980   -0.0010    3.6570 ca        1 2A7     -0.335000
      8 C2          1.8990   -0.0260    3.5980 ca        1 2A7      0.192600
      9 C4          1.2100   -0.0200    2.3760 ca        1 2A7     -0.245000
     10 O8          1.1200   -0.0560    4.7300 oh        1 2A7     -0.493600
     11 H71C       -0.2320    0.0060   -1.2280 h1        1 2A7      0.047700
     12 H72C       -0.4200   -0.9380    0.3400 h1        1 2A7      0.047700
     13 H73C       -0.4520    0.8980    0.3670 h1        1 2A7      0.047700
     14 H5          3.9360    0.0590    0.2730 ha        1 2A7      0.162500
     15 H4          0.1130   -0.0400    2.3780 ha        1 2A7      0.162500
     16 H1          5.7080    0.0470    3.3300 ho        1 2A7      0.421500
     17 HA          3.8220   -0.0060    4.6200 ha        1 2A7      0.137000
     18 H8          1.7080   -0.0570    5.5000 ho        1 2A7      0.421500
@<TRIPOS>BOND
     1    1    2 1   
     2    1   11 1   
     3    1   12 1   
     4    1   13 1   
     5    2    3 1   
     6    3    4 ar  
     7    3    9 ar  
     8    4    5 ar  
     9    4   14 1   
    10    5    6 1   
    11    5    7 ar  
    12    6   16 1   
    13    7    8 ar  
    14    7   17 1   
    15    8    9 ar  
    16    8   10 1   
    17    9   15 1   
    18   10   18 1   
@<TRIPOS>SUBSTRUCTURE
     1 2A7         1 TEMP              0 ****  ****    0 ROOT
