@<TRIPOS>MOLECULE
2A8
   42    45     1     0     0
SMALL
bcc


@<TRIPOS>ATOM
      1 NAA         5.4520    1.8150    0.2830 nh        1 2A8     -0.811200
      2 CAC        -5.8090   -0.5030   -1.4410 ca        1 2A8     -0.113000
      3 CAD        -5.1640    0.7010   -1.1610 ca        1 2A8     -0.133000
      4 CAE        -5.3770   -1.6860   -0.8420 ca        1 2A8     -0.137000
      5 CAF         5.9220   -1.7620   -0.5920 ca        1 2A8     -0.101000
      6 CAG         4.6240   -2.1470   -0.9200 ca        1 2A8     -0.157000
      7 CAH         6.1820   -0.4670   -0.1640 ca        1 2A8     -0.184000
      8 CAI        -4.0760    0.7270   -0.2840 ca        1 2A8     -0.049300
      9 CAJ        -4.3010   -1.6660    0.0440 ca        1 2A8     -0.086000
     10 CAK         0.3630    1.4020   -0.4250 ca        1 2A8     -0.220000
     11 CAL         1.2030   -0.4350    0.9140 ca        1 2A8     -0.190000
     12 CAM         3.5850   -1.2280   -0.8260 ca        1 2A8     -0.123000
     13 CAN        -0.9550    1.1080   -0.0430 ca        1 2A8      0.011700
     14 CAO        -0.0970   -0.7200    1.2890 ca        1 2A8     -0.054000
     15 CA0        -3.3570    1.9910    0.0280 c3        1 2A8     -0.041100
     16 NAP         2.7660    1.0410   -0.2850 nh        1 2A8     -0.622000
     17 CAQ        -2.5180   -0.4410    1.2800 c         1 2A8      0.597300
     18 CA1        -1.9890    2.0170   -0.6190 c3        1 2A8     -0.040100
     19 CAR         5.1480    0.4900   -0.0550 ca        1 2A8      0.134600
     20 CAS         1.4610    0.6470    0.0380 ca        1 2A8      0.179600
     21 CAT        -3.6440   -0.4630    0.3170 ca        1 2A8     -0.146600
     22 CAU        -1.1940    0.0230    0.8100 ca        1 2A8     -0.196600
     23 CAV         3.8140    0.0910   -0.3940 ca        1 2A8      0.054600
     24 HAA1        6.3430    1.9190    0.7200 hn        1 2A8      0.391800
     25 HAA2        4.7300    2.2930    0.7780 hn        1 2A8      0.391800
     26 HAC        -6.6630   -0.5170   -2.1350 ha        1 2A8      0.133000
     27 HAD        -5.5120    1.6340   -1.6290 ha        1 2A8      0.134000
     28 HAE        -5.8890   -2.6340   -1.0620 ha        1 2A8      0.136000
     29 HAJ        -3.9690   -2.5920    0.5380 ha        1 2A8      0.143000
     30 HAF         6.7470   -2.4860   -0.6680 ha        1 2A8      0.133000
     31 HAG         4.4180   -3.1720   -1.2570 ha        1 2A8      0.135000
     32 HAH         7.2150   -0.1830    0.0900 ha        1 2A8      0.133000
     33 HAM         2.5620   -1.5420   -1.0890 ha        1 2A8      0.142000
     34 HA01       -3.9470    2.8710   -0.3450 hc        1 2A8      0.058700
     35 HA02       -3.2560    2.1030    1.1410 hc        1 2A8      0.058700
     36 HAK         0.5330    2.2560   -1.1000 ha        1 2A8      0.132000
     37 HAL         2.0350   -1.0400    1.3060 ha        1 2A8      0.149000
     38 HAO        -0.2900   -1.5500    1.9900 ha        1 2A8      0.149000
     39 HA11       -1.6010    3.0730   -0.5580 hc        1 2A8      0.058700
     40 HA12       -2.0950    1.7680   -1.7120 hc        1 2A8      0.058700
     41 HAP         2.8240    1.7620   -0.9770 hn        1 2A8      0.417800
     42 OAB        -2.6680   -0.8700    2.4330 o         1 2A8     -0.529100
@<TRIPOS>BOND
     1    1   19 1   
     2    1   24 1   
     3    1   25 1   
     4    2    3 ar  
     5    2    4 ar  
     6    2   26 1   
     7    3    8 ar  
     8    3   27 1   
     9    4    9 ar  
    10    4   28 1   
    11    5    6 ar  
    12    5    7 ar  
    13    5   30 1   
    14    6   12 ar  
    15    6   31 1   
    16    7   19 ar  
    17    7   32 1   
    18    8   15 1   
    19    8   21 ar  
    20    9   21 ar  
    21    9   29 1   
    22   10   13 ar  
    23   10   20 ar  
    24   10   36 1   
    25   11   14 ar  
    26   11   20 ar  
    27   11   37 1   
    28   12   23 ar  
    29   12   33 1   
    30   13   18 1   
    31   13   22 ar  
    32   14   22 ar  
    33   14   38 1   
    34   15   18 1   
    35   15   34 1   
    36   15   35 1   
    37   16   20 1   
    38   16   23 1   
    39   16   41 1   
    40   17   21 1   
    41   17   22 1   
    42   17   42 2   
    43   18   39 1   
    44   18   40 1   
    45   19   23 ar  
@<TRIPOS>SUBSTRUCTURE
     1 2A8         1 TEMP              0 ****  ****    0 ROOT
