@<TRIPOS>MOLECULE
2A8
   42    35     1     0     0
SMALL
bcc


@<TRIPOS>ATOM
      1 NAA        -3.0070   -1.0220   -3.7270 n3        1 2A8     -0.326000
      2 OAB         1.4890    2.0370    2.2700 o         1 2A8     -0.292000
      3 CAC         1.5770   -0.4870    6.2720 c1        1 2A8     -0.127250
      4 CAD         0.3790   -0.4030    5.5770 c1        1 2A8     -0.109000
      5 CAE         2.7850   -0.3530    5.5950 c1        1 2A8     -0.127250
      6 CAF        -1.9850    1.4160   -5.9640 c1        1 2A8     -0.127250
      7 CAG        -0.6890    1.7920   -5.6460 c1        1 2A8     -0.127250
      8 CAH        -2.6520    0.4900   -5.1750 c1        1 2A8     -0.127250
      9 CAI         0.3840   -0.1820    4.1930 c1        1 2A8     -0.084000
     10 CAJ         2.7920   -0.1350    4.2240 c1        1 2A8     -0.109000
     11 CAK        -0.6060   -0.5160   -0.4580 c1        1 2A8     -0.219000
     12 CAL         1.5540    0.0390   -1.3780 c1        1 2A8     -0.127250
     13 CAM        -0.0590    1.2430   -4.5370 c1        1 2A8     -0.127250
     14 CAN        -0.0880   -0.3810    0.8390 c1        1 2A8      0.018000
     15 CAO         2.0680    0.1740   -0.0930 c1        1 2A8     -0.127250
     16 CA0        -0.7990   -0.0790    3.2290 c2        1 2A8     -0.127000
     17 NAP        -0.1350   -0.6530   -2.8940 n3        1 2A8     -0.235000
     18 CAQ         1.4160    0.8240    2.2750 c1        1 2A8      0.318000
     19 CA1        -0.6550   -1.0670    2.0890 c3        1 2A8     -0.126000
     20 CAR        -2.0240   -0.0580   -4.0690 c1        1 2A8      0.040000
     21 CAS         0.2170   -0.3060   -1.5620 c1        1 2A8      0.081000
     22 CAT         1.5820   -0.0490    3.5220 c1        1 2A8     -0.084000
     23 CAU         1.2390   -0.0380    1.0210 c1        1 2A8     -0.177000
     24 CAV        -0.7260    0.3180   -3.7500 c1        1 2A8     -0.052000
     25 HAA1       -3.5410   -0.8900   -2.9960 hn        1 2A8      0.186500
     26 HAA2       -3.1030   -1.7760   -4.2320 hn        1 2A8      0.186500
     27 HAC         1.5730   -0.6410    7.2370 ha        1 2A8      0.139750
     28 HAD        -0.4690   -0.4970    6.0540 ha        1 2A8      0.139000
     29 HAE         3.6290   -0.4120    6.0850 ha        1 2A8      0.139750
     30 HAJ         3.6400   -0.0400    3.7490 ha        1 2A8      0.139000
     31 HAF        -2.4280    1.8030   -6.7450 ha        1 2A8      0.139750
     32 HAG        -0.2180    2.4460   -6.2030 ha        1 2A8      0.139750
     33 HAH        -3.5650    0.2250   -5.3990 ha        1 2A8      0.139750
     34 HAM         0.8510    1.5070   -4.3140 ha        1 2A8      0.139750
     35 HA01       -1.6280   -0.2670    3.7150 ha        1 2A8      0.097500
     36 HA02       -0.8390    0.8250    2.8660 ha        1 2A8      0.097500
     37 HAK        -1.5430   -0.7580   -0.5870 ha        1 2A8      0.134000
     38 HAL         2.1310    0.1860   -2.1530 ha        1 2A8      0.139750
     39 HAO         3.0040    0.4150    0.0350 ha        1 2A8      0.139750
     40 HA11       -1.5320   -1.4460    1.8790 hc        1 2A8      0.098000
     41 HA12       -0.0500   -1.7880    2.3630 hc        1 2A8      0.098000
     42 HAP         0.0300   -1.4940   -3.2050 hn        1 2A8      0.206000
@<TRIPOS>BOND
     1    1   20 1   
     2    1   25 1   
     3    1   26 1   
     4    2   18 1   
     5    3    5 1   
     6    3   27 1   
     7    4    9 1   
     8    4   28 1   
     9    5   29 1   
    10    6    8 1   
    11    6   31 1   
    12    7   13 1   
    13    7   32 1   
    14    8   33 1   
    15    9   22 1   
    16   10   22 1   
    17   10   30 1   
    18   11   21 1   
    19   11   37 1   
    20   12   15 1   
    21   12   38 1   
    22   13   34 1   
    23   14   19 1   
    24   14   23 1   
    25   15   39 1   
    26   16   19 1   
    27   16   35 1   
    28   16   36 1   
    29   17   21 1   
    30   17   24 1   
    31   17   42 1   
    32   18   23 1   
    33   19   40 1   
    34   19   41 1   
    35   20   24 1   
@<TRIPOS>SUBSTRUCTURE
     1 2A8         1 TEMP              0 ****  ****    0 ROOT
