@<TRIPOS>MOLECULE
2A8
   42    41     1     0     0
SMALL
bcc


@<TRIPOS>ATOM
      1 NAA         2.1480    1.5180    1.3300 nv        1 2A8     -0.824600
      2 CAC         4.5560   -1.4070    5.6110 c1        1 2A8     -0.166000
      3 CAD         1.3080   -2.0270   10.4570 c2        1 2A8     -0.197000
      4 CAE         4.8510   -0.9540    6.6780 c1        1 2A8     -0.166000
      5 CAF         5.3140    0.0840    1.1820 c1        1 2A8     -0.087500
      6 CAG         3.3260   -3.0300    2.5830 c1        1 2A8     -0.154500
      7 CAH         4.1430    0.1930    1.4070 cg        1 2A8     -0.195300
      8 CAI         0.5720   -1.0520    9.8980 ce        1 2A8     -0.024000
      9 CAJ         1.2460   -0.8460    7.4780 cd        1 2A8     -0.059200
     10 CAK        -1.1390   -1.2080    4.0040 ca        1 2A8     -0.209000
     11 CAL         1.1060   -0.7910    4.8960 ca        1 2A8     -0.146000
     12 CAM         2.7530   -1.9940    2.3990 ch        1 2A8     -0.163300
     13 CAN        -1.6530   -1.3310    5.3030 ca        1 2A8     -0.022000
     14 CAO         0.5870   -0.9230    6.1610 ca        1 2A8     -0.030800
     15 CA0         0.0110    0.0210   10.7130 ce        1 2A8     -0.133000
     16 NAP         0.6740   -0.6870    2.4690 nu        1 2A8     -0.597400
     17 CAQ        -1.0350   -1.2680    7.8440 c         1 2A8      0.588900
     18 CA1        -0.8230    0.9650   10.2720 c2        1 2A8     -0.192000
     19 CAR         2.7510    0.3190    1.6750 ce        1 2A8      0.316300
     20 CAS         0.2250   -0.9250    3.7810 ca        1 2A8      0.167600
     21 CAT         0.3280   -1.0360    8.4650 cc        1 2A8     -0.152200
     22 CAU        -0.8000   -1.1870    6.3740 ca        1 2A8     -0.226600
     23 CAV         2.0680   -0.7760    2.1880 cf        1 2A8      0.062300
     24 HAA1        1.2520    1.6960    1.7230 hn        1 2A8      0.419300
     25 HAA2        2.7480    2.3080    1.2630 hn        1 2A8      0.419300
     26 HAC         1.7410   -2.8460    9.8690 ha        1 2A8      0.118000
     27 HAD         1.5060   -2.0630   11.5360 ha        1 2A8      0.118000
     28 HAE         5.1180   -0.5520    7.6220 ha        1 2A8      0.165500
     29 HAJ         2.3190   -0.6670    7.5840 ha        1 2A8      0.158000
     30 HAF         3.8290   -3.9500    2.7380 ha        1 2A8      0.168500
     31 HAG         6.3520   -0.0190    0.9870 ha        1 2A8      0.173500
     32 HAH         3.5050    4.4120    1.3330 ha        1 2A8      0.001500
     33 HAM         3.6660    4.2850    0.6880 ha        1 2A8      0.001500
     34 HA01       -1.1820    1.0050    9.2350 ha        1 2A8      0.115500
     35 HA02        0.3300    0.0080   11.7700 ha        1 2A8      0.121000
     36 HAK        -1.8260   -1.3310    3.1530 ha        1 2A8      0.136000
     37 HAL         4.2840   -1.8120    4.6650 ha        1 2A8      0.165500
     38 HAO         2.1790   -0.5990    4.7400 ha        1 2A8      0.154000
     39 HA11       -2.7220   -1.5440    5.4540 ha        1 2A8      0.148000
     40 HA12       -1.2140    1.7490   10.9330 ha        1 2A8      0.115500
     41 HAP         0.1230   -1.1500    1.7710 hn        1 2A8      0.408800
     42 OAB        -2.0960   -1.4830    8.4190 o         1 2A8     -0.495100
@<TRIPOS>BOND
     1    1   19 1   
     2    1   24 1   
     3    1   25 1   
     4    2    4 3   
     5    2   37 1   
     6    3    8 2   
     7    3   26 1   
     8    3   27 1   
     9    4   28 1   
    10    5    7 3   
    11    5   31 1   
    12    6   12 3   
    13    6   30 1   
    14    7   19 1   
    15    8   15 1   
    16    8   21 1   
    17    9   14 1   
    18    9   21 2   
    19    9   29 1   
    20   10   13 ar  
    21   10   20 ar  
    22   10   36 1   
    23   11   14 ar  
    24   11   20 ar  
    25   11   38 1   
    26   12   23 1   
    27   13   22 ar  
    28   13   39 1   
    29   14   22 ar  
    30   15   18 2   
    31   15   35 1   
    32   16   20 1   
    33   16   23 1   
    34   16   41 1   
    35   17   21 1   
    36   17   22 1   
    37   17   42 2   
    38   18   34 1   
    39   18   40 1   
    40   19   23 2   
    41   32   33 1   
@<TRIPOS>SUBSTRUCTURE
     1 2A8         1 TEMP              0 ****  ****    0 ROOT
