@<TRIPOS>MOLECULE
2A8
   44    44     1     0     0
SMALL
bcc


@<TRIPOS>ATOM
      1 NAA         2.5620    0.0690   -1.9150 n4        1 2A8     -0.013000
      2 CAC         2.7340   -2.8490    5.9380 c1        1 2A8      0.238000
      3 CAD         1.9990   -2.6730   10.1410 c3        1 2A8     -0.201000
      4 CAE         2.0610   -2.6590    7.0600 c2        1 2A8     -0.437000
      5 CAF         3.8410    3.4230   -1.4020 c2        1 2A8     -0.054000
      6 CAG         3.2950   -2.0020    2.5690 c1        1 2A8     -0.061000
      7 CAH         3.3060    2.2600   -1.1920 c1        1 2A8     -0.148000
      8 CAI         0.8290   -1.7860    9.8950 c2        1 2A8     -0.171000
      9 CAJ         1.2510   -1.5220    7.3860 c2        1 2A8     -0.078000
     10 CAK        -0.1690    1.5290    4.8490 c2        1 2A8     -0.209000
     11 CAL         1.2910   -0.5080    5.0110 c3        1 2A8     -0.154000
     12 CAM         2.5770   -1.0410    2.4550 c1        1 2A8     -0.272000
     13 CAN        -0.5390    1.4210    6.2290 c2        1 2A8      0.105000
     14 CAO         0.8740   -0.5690    6.4150 c2        1 2A8      0.119000
     15 CA0        -0.0700   -1.5610   10.9250 c2        1 2A8      0.113000
     16 NAP         1.0220    0.7800    2.8800 n3        1 2A8     -0.136000
     17 CAQ        -0.2280    0.0460    8.4000 c2        1 2A8      0.279000
     18 CA1         0.0390   -2.1740   12.2460 c3        1 2A8     -0.262000
     19 CAR         2.7590    1.1070   -0.9050 c2        1 2A8     -0.190000
     20 CAS         0.6870    0.6360    4.2500 c2        1 2A8      0.044000
     21 CAT         0.6520   -1.1880    8.6370 c2        1 2A8      0.123000
     22 CAU        -0.0250    0.4060    6.9760 c2        1 2A8     -0.250000
     23 CAV         1.8220    0.0790    2.1050 c1        1 2A8     -0.017000
     24 HAA1        1.5620   -0.1540   -1.9770 hn        1 2A8      0.255333
     25 HAA2        2.8940    0.3700   -2.8380 hn        1 2A8      0.255333
     26 HAC         2.8570   -2.4060    9.4760 hc        1 2A8      0.109333
     27 HAD         1.7240   -3.7460    9.9780 hc        1 2A8      0.109333
     28 HAE         2.3530   -2.5650   11.1980 hc        1 2A8      0.109333
     29 HAJ         2.1040   -3.4890    7.8050 ha        1 2A8      0.227000
     30 HAF         3.9260   -2.8530    2.6890 ha        1 2A8      0.254000
     31 HAG         4.9280    3.6000   -1.3000 ha        1 2A8      0.186500
     32 HAH         3.2420    4.3070   -1.6910 ha        1 2A8      0.186500
     33 HAM         2.4040    0.8010    0.1160 hx        1 2A8      0.250000
     34 HA01       -0.9340   -2.1310   12.8000 hc        1 2A8      0.145000
     35 HA02       -0.9460   -0.8960   10.7720 ha        1 2A8      0.175000
     36 HAK         0.8050   -1.6130   12.8540 hc        1 2A8      0.145000
     37 HAL         2.4250   -0.4400    4.9670 hc        1 2A8      0.182500
     38 HAO         1.0340   -1.4930    4.5050 hc        1 2A8      0.182500
     39 HA11       -1.2370    2.1650    6.6570 ha        1 2A8      0.194000
     40 HA12        0.3770   -3.2430   12.1900 hc        1 2A8      0.145000
     41 HAP        -0.6110    2.3720    4.2870 ha        1 2A8      0.176000
     42 HAA3        3.0750   -0.7740   -1.6340 hn        1 2A8      0.255333
     43 HAP2        0.5710    1.5590    2.4280 hn        1 2A8      0.270000
     44 OAB        -0.9300    0.6150    9.2220 o         1 2A8     -0.182000
@<TRIPOS>BOND
     1    1   19 1   
     2    1   24 1   
     3    1   25 1   
     4    1   42 1   
     5    2    4 1   
     6    3    8 1   
     7    3   26 1   
     8    3   27 1   
     9    3   28 1   
    10    4    9 1   
    11    4   29 1   
    12    5    7 1   
    13    5   31 1   
    14    5   32 1   
    15    6   12 1   
    16    6   30 1   
    17    7   19 1   
    18    8   15 1   
    19    8   21 1   
    20    9   14 1   
    21    9   21 1   
    22   10   13 1   
    23   10   20 1   
    24   10   41 1   
    25   11   14 1   
    26   11   20 1   
    27   11   37 1   
    28   11   38 1   
    29   12   23 1   
    30   13   22 1   
    31   13   39 1   
    32   14   22 1   
    33   15   18 1   
    34   15   35 1   
    35   16   20 1   
    36   16   23 1   
    37   16   43 1   
    38   17   21 1   
    39   17   22 1   
    40   17   44 1   
    41   18   34 1   
    42   18   36 1   
    43   18   40 1   
    44   19   33 1   
@<TRIPOS>SUBSTRUCTURE
     1 2A8         1 TEMP              0 ****  ****    0 ROOT
