@<TRIPOS>MOLECULE
2A9
   21    21     1     0     0
SMALL
bcc


@<TRIPOS>ATOM
      1 O7          3.5810    1.2840   -0.0740 oh        1 2A9     -0.599800
      2 C11         3.0400    0.0070    0.2350 c3        1 2A9      0.179700
      3 C6          1.5490    0.0700    0.1900 ca        1 2A9     -0.086300
      4 C1          0.8350   -1.1020    0.4690 ca        1 2A9     -0.139000
      5 C2         -0.5620   -1.0840    0.4370 ca        1 2A9      0.110100
      6 C3         -1.2460    0.1150    0.1230 ca        1 2A9      0.044100
      7 O8         -1.2120   -2.2630    0.7190 oh        1 2A9     -0.498100
      8 C5          0.8700    1.2490   -0.1190 ca        1 2A9     -0.105000
      9 C4         -0.5250    1.2770   -0.1540 ca        1 2A9     -0.165000
     10 O6         -2.6270    0.0110    0.1210 os        1 2A9     -0.349900
     11 C10        -3.3400    1.2030   -0.1900 c3        1 2A9      0.122700
     12 H7          4.5390    1.1870   -0.0310 ho        1 2A9      0.403000
     13 H111        3.4110   -0.7500   -0.5120 h1        1 2A9      0.032700
     14 H112        3.3760   -0.3060    1.2630 h1        1 2A9      0.032700
     15 H1          1.3550   -2.0390    0.7140 ha        1 2A9      0.150000
     16 H5          1.4420    2.1650   -0.3380 ha        1 2A9      0.156000
     17 H8         -2.1660   -2.1010    0.6600 ho        1 2A9      0.436000
     18 H4         -1.0440    2.2150   -0.3990 ha        1 2A9      0.139000
     19 H101       -3.1210    2.0000    0.5610 h1        1 2A9      0.045700
     20 H102       -3.0860    1.5540   -1.2200 h1        1 2A9      0.045700
     21 H103       -4.4120    0.8870   -0.1320 h1        1 2A9      0.045700
@<TRIPOS>BOND
     1    1    2 1   
     2    1   12 1   
     3    2    3 1   
     4    2   13 1   
     5    2   14 1   
     6    3    4 ar  
     7    3    8 ar  
     8    4    5 ar  
     9    4   15 1   
    10    5    6 ar  
    11    5    7 1   
    12    6    9 ar  
    13    6   10 1   
    14    7   17 1   
    15    8    9 ar  
    16    8   16 1   
    17    9   18 1   
    18   10   11 1   
    19   11   19 1   
    20   11   20 1   
    21   11   21 1   
@<TRIPOS>SUBSTRUCTURE
     1 2A9         1 TEMP              0 ****  ****    0 ROOT
