@<TRIPOS>MOLECULE
2A9
   21    21     1     0     0
SMALL
bcc


@<TRIPOS>ATOM
      1 O7          0.7820    1.0890   -0.4210 oh        1 2A9     -0.599800
      2 C11         1.2220   -0.1900    0.0130 c3        1 2A9      0.179700
      3 C6          1.7670   -0.0880    1.3990 ca        1 2A9     -0.086300
      4 C1          2.2520   -1.2560    2.0000 ca        1 2A9     -0.139000
      5 C2          2.7700   -1.2020    3.2970 ca        1 2A9      0.110100
      6 C3          2.8010    0.0290    3.9940 ca        1 2A9      0.044100
      7 O8          3.2320   -2.3800    3.8380 oh        1 2A9     -0.498100
      8 C5          1.8000    1.1230    2.0920 ca        1 2A9     -0.105000
      9 C4          2.3160    1.1870    3.3870 ca        1 2A9     -0.165000
     10 O6          3.3360   -0.0410    5.2710 os        1 2A9     -0.349900
     11 C10         3.3810    1.1830    5.9940 c3        1 2A9      0.122700
     12 H7          0.4430    0.9670   -1.3150 ho        1 2A9      0.403000
     13 H111        2.0220   -0.5690   -0.6820 h1        1 2A9      0.032700
     14 H112        0.3570   -0.9110   -0.0030 h1        1 2A9      0.032700
     15 H1          2.2330   -2.2180    1.4690 ha        1 2A9      0.150000
     16 H5          1.4160    2.0360    1.6090 ha        1 2A9      0.156000
     17 H8          3.5580   -2.1920    4.7310 ho        1 2A9      0.436000
     18 H4          2.3340    2.1490    3.9170 ha        1 2A9      0.139000
     19 H101        4.0210    1.9300    5.4640 h1        1 2A9      0.045700
     20 H102        3.8400    0.8910    6.9720 h1        1 2A9      0.045700
     21 H103        2.3500    1.5870    6.1460 h1        1 2A9      0.045700
@<TRIPOS>BOND
     1    1    2 1   
     2    1   12 1   
     3    2    3 1   
     4    2   13 1   
     5    2   14 1   
     6    3    4 ar  
     7    3    8 ar  
     8    4    5 ar  
     9    4   15 1   
    10    5    6 ar  
    11    5    7 1   
    12    6    9 ar  
    13    6   10 1   
    14    7   17 1   
    15    8    9 ar  
    16    8   16 1   
    17    9   18 1   
    18   10   11 1   
    19   11   19 1   
    20   11   20 1   
    21   11   21 1   
@<TRIPOS>SUBSTRUCTURE
     1 2A9         1 TEMP              0 ****  ****    0 ROOT
