@<TRIPOS>MOLECULE
2A9
   21    21     1     0     0
SMALL
bcc


@<TRIPOS>ATOM
      1 O7          0.8540    1.1130   -0.4470 oh        1 2A9     -0.599800
      2 C11         1.3150   -0.1630   -0.0240 c3        1 2A9      0.179700
      3 C6          1.8150   -0.0740    1.3800 ca        1 2A9     -0.086300
      4 C1          2.3070   -1.2420    1.9750 ca        1 2A9     -0.139000
      5 C2          2.7860   -1.2000    3.2870 ca        1 2A9      0.110100
      6 C3          2.7700    0.0190    4.0060 ca        1 2A9      0.044100
      7 O8          3.2570   -2.3770    3.8220 oh        1 2A9     -0.498100
      8 C5          1.8030    1.1250    2.0930 ca        1 2A9     -0.105000
      9 C4          2.2780    1.1770    3.4040 ca        1 2A9     -0.165000
     10 O6          3.2690   -0.0610    5.2960 os        1 2A9     -0.349900
     11 C10         3.2610    1.1490    6.0430 c3        1 2A9      0.122700
     12 H7          0.5440    0.9980   -1.3530 ho        1 2A9      0.403000
     13 H111        2.1450   -0.5070   -0.7020 h1        1 2A9      0.032700
     14 H112        0.4710   -0.9060   -0.0790 h1        1 2A9      0.032700
     15 H1          2.3240   -2.1950    1.4270 ha        1 2A9      0.150000
     16 H5          1.4130    2.0380    1.6150 ha        1 2A9      0.156000
     17 H8          3.5510   -2.1970    4.7280 ho        1 2A9      0.436000
     18 H4          2.2610    2.1310    3.9510 ha        1 2A9      0.139000
     19 H101        3.8990    1.9210    5.5480 h1        1 2A9      0.045700
     20 H102        3.6960    0.8490    7.0300 h1        1 2A9      0.045700
     21 H103        2.2160    1.5260    6.1690 h1        1 2A9      0.045700
@<TRIPOS>BOND
     1    1    2 1   
     2    1   12 1   
     3    2    3 1   
     4    2   13 1   
     5    2   14 1   
     6    3    4 ar  
     7    3    8 ar  
     8    4    5 ar  
     9    4   15 1   
    10    5    6 ar  
    11    5    7 1   
    12    6    9 ar  
    13    6   10 1   
    14    7   17 1   
    15    8    9 ar  
    16    8   16 1   
    17    9   18 1   
    18   10   11 1   
    19   11   19 1   
    20   11   20 1   
    21   11   21 1   
@<TRIPOS>SUBSTRUCTURE
     1 2A9         1 TEMP              0 ****  ****    0 ROOT
