@<TRIPOS>MOLECULE
2A9
   21    19     1     0     0
SMALL
bcc


@<TRIPOS>ATOM
      1 O7         -1.3890   -1.4900   -3.1690 oh        1 2A9     -0.327000
      2 C11        -1.1060   -0.1550   -2.7690 c3        1 2A9      0.022000
      3 C6         -0.6040   -0.1510   -1.3410 c2        1 2A9     -0.079000
      4 C1          0.7670   -0.1250   -1.0830 c2        1 2A9     -0.139000
      5 C2          1.2270   -0.1070    0.2280 c1        1 2A9      0.065000
      6 C3          0.3290   -0.1150    1.2760 c1        1 2A9     -0.001000
      7 O8          2.6200   -0.1230    0.4900 oh        1 2A9     -0.252000
      8 C5         -1.5050   -0.1590   -0.2910 c1        1 2A9     -0.105000
      9 C4         -1.0430   -0.1410    1.0200 c1        1 2A9     -0.165000
     10 O6          0.8000   -0.1990    2.6030 os        1 2A9     -0.233000
     11 C10         0.8720    1.0470    3.2690 c3        1 2A9     -0.067000
     12 H7         -1.5220   -1.5130   -4.0450 ho        1 2A9      0.202000
     13 H111       -1.9450    0.4020   -2.8320 h1        1 2A9      0.072000
     14 H112       -0.4200    0.2210   -3.3540 h1        1 2A9      0.072000
     15 H1          1.4110   -0.1190   -1.8320 ha        1 2A9      0.150000
     16 H5         -2.4550   -0.1770   -0.4680 ha        1 2A9      0.156000
     17 H8          2.9540   -0.9330    0.2880 ho        1 2A9      0.235000
     18 H4         -1.6540   -0.1470    1.7350 ha        1 2A9      0.139000
     19 H101        1.1100    1.7300    2.6450 h1        1 2A9      0.085000
     20 H102        1.5420    1.0020    3.9700 h1        1 2A9      0.085000
     21 H103        0.0110    1.2540    3.6590 h1        1 2A9      0.085000
@<TRIPOS>BOND
     1    1    2 1   
     2    1   12 1   
     3    2    3 1   
     4    2   13 1   
     5    2   14 1   
     6    3    4 1   
     7    3    8 1   
     8    4    5 1   
     9    4   15 1   
    10    5    7 1   
    11    6    9 1   
    12    6   10 1   
    13    7   17 1   
    14    8   16 1   
    15    9   18 1   
    16   10   11 1   
    17   11   19 1   
    18   11   20 1   
    19   11   21 1   
@<TRIPOS>SUBSTRUCTURE
     1 2A9         1 TEMP              0 ****  ****    0 ROOT
