@<TRIPOS>MOLECULE
2AB
   24    24     1     0     0
SMALL
bcc


@<TRIPOS>ATOM
      1 C1          0.0440   -0.0690   -0.0350 c3        1 2AB      0.097800
      2 C2          1.5650    0.0670    0.0300 c3        1 2AB     -0.054100
      3 C3          1.9910    0.0450    1.4560 ca        1 2AB     -0.095300
      4 C4          2.0410   -1.1690    2.1520 ca        1 2AB     -0.136000
      5 C5          2.4790   -1.1950    3.4740 ca        1 2AB     -0.037500
      6 C6          2.8600   -0.0160    4.1200 ca        1 2AB     -0.143500
      7 N9         -0.4710   -0.1040   -1.4370 nz        1 2AB     -0.839600
      8 S10         3.3290   -0.0190    5.7750 sx        1 2AB      0.648500
      9 O12         4.8550    0.7070    5.6730 oh        1 2AB     -0.588800
     10 O11         3.7760   -1.3750    6.0760 o         1 2AB     -0.515200
     11 C7          2.8170    1.1900    3.4190 ca        1 2AB     -0.037500
     12 C8          2.3830    1.2260    2.0930 ca        1 2AB     -0.136000
     13 H11        -0.2760   -1.0240    0.4750 hx        1 2AB      0.117700
     14 H12A       -0.4440    0.8040    0.4890 hx        1 2AB      0.117700
     15 H21         2.0570   -0.7820   -0.5190 hc        1 2AB      0.075200
     16 H22         1.8910    1.0260   -0.4560 hc        1 2AB      0.075200
     17 H4          1.7590   -2.1080    1.6520 ha        1 2AB      0.136500
     18 H5          2.5500   -2.1570    4.0160 ha        1 2AB      0.166500
     19 HN91       -1.4920   -0.1970   -1.4350 hn        1 2AB      0.461133
     20 HN92       -0.2150    0.7590   -1.9280 hn        1 2AB      0.461133
     21 H12         5.5740    0.0730    5.7440 ho        1 2AB      0.462000
     22 H7          3.1500    2.1210    3.9090 ha        1 2AB      0.166500
     23 H8          2.3690    2.1840    1.5510 ha        1 2AB      0.136500
     24 H93        -0.0640   -0.8980   -1.9420 hn        1 2AB      0.461133
@<TRIPOS>BOND
     1    1    2 1   
     2    1    7 1   
     3    1   13 1   
     4    1   14 1   
     5    2    3 1   
     6    2   15 1   
     7    2   16 1   
     8    3    4 ar  
     9    3   12 ar  
    10    4    5 ar  
    11    4   17 1   
    12    5    6 ar  
    13    5   18 1   
    14    6    8 1   
    15    6   11 ar  
    16    7   19 1   
    17    7   20 1   
    18    7   24 1   
    19    8    9 1   
    20    8   10 2   
    21    9   21 1   
    22   11   12 ar  
    23   11   22 1   
    24   12   23 1   
@<TRIPOS>SUBSTRUCTURE
     1 2AB         1 TEMP              0 ****  ****    0 ROOT
