@<TRIPOS>MOLECULE
2AB
   23    21     1     0     0
SMALL
bcc


@<TRIPOS>ATOM
      1 C1          0.6980    0.0550   -2.8320 c3        1 2AB     -0.080000
      2 C2         -0.5940    0.0230   -2.0010 c3        1 2AB     -0.177000
      3 C3         -0.2430   -0.0100   -0.5210 c2        1 2AB     -0.018000
      4 C4         -0.1840    1.1880    0.2150 c2        1 2AB     -0.150000
      5 C5          0.0580    1.1520    1.5680 c1        1 2AB     -0.039000
      6 C6          0.2510   -0.0970    2.2260 c1        1 2AB     -0.620000
      7 N9          0.3690    0.1570   -4.2320 n3        1 2AB     -0.338000
      8 S10        -0.2080   -0.1410    3.9300 s4        1 2AB      1.550000
      9 O12         0.8710   -0.0620    5.0180 oh        1 2AB     -0.609000
     10 O11        -1.6290   -0.1610    4.3080 o         1 2AB     -0.807000
     11 C7          0.1940   -1.2630    1.5120 c1        1 2AB     -0.038000
     12 C8         -0.0550   -1.2280    0.1210 c1        1 2AB     -0.153000
     13 H11         1.2110   -0.7740   -2.6750 h1        1 2AB      0.098000
     14 H12A        1.2450    0.8380   -2.5630 h1        1 2AB      0.098000
     15 H21        -1.1390    0.8430   -2.1980 hc        1 2AB      0.090000
     16 H22        -1.1120   -0.7780   -2.2320 hc        1 2AB      0.090000
     17 H4         -0.3210    2.0700   -0.2470 ha        1 2AB      0.138000
     18 H5          0.0990    1.9780    2.0750 ha        1 2AB      0.158000
     19 HN91       -0.1970   -0.5060   -4.4550 hn        1 2AB      0.142500
     20 HN92       -0.0260    0.9630   -4.3960 hn        1 2AB      0.142500
     21 H12         0.4850   -0.0780    5.8170 ho        1 2AB      0.248000
     22 H7          0.3230   -2.1030    1.9560 ha        1 2AB      0.137000
     23 H8         -0.0950   -2.0670   -0.3930 ha        1 2AB      0.138000
@<TRIPOS>BOND
     1    1    2 1   
     2    1    7 1   
     3    1   13 1   
     4    1   14 1   
     5    2    3 1   
     6    2   15 1   
     7    2   16 1   
     8    3    4 1   
     9    3   12 1   
    10    4    5 1   
    11    4   17 1   
    12    5   18 1   
    13    6    8 1   
    14    6   11 1   
    15    7   19 1   
    16    7   20 1   
    17    8    9 1   
    18    8   10 1   
    19    9   21 1   
    20   11   22 1   
    21   12   23 1   
@<TRIPOS>SUBSTRUCTURE
     1 2AB         1 TEMP              0 ****  ****    0 ROOT
