@<TRIPOS>MOLECULE
2AB
   23    23     1     0     0
SMALL
bcc


@<TRIPOS>ATOM
      1 C1          3.8690   -0.3250   -0.4810 c3        1 2AB      0.162800
      2 C2          3.0510    0.2920    0.6580 c3        1 2AB     -0.050100
      3 C3          1.5960    0.2260    0.3520 ca        1 2AB     -0.030300
      4 C4          0.9190   -0.9980    0.4130 ca        1 2AB     -0.151000
      5 C5         -0.4450   -1.0580    0.1420 ca        1 2AB     -0.040000
      6 C6         -1.1570    0.0940   -0.2060 ca        1 2AB     -0.191500
      7 N9          5.2820   -0.3780   -0.1940 n3        1 2AB     -0.917800
      8 S10        -2.7980    0.0450   -0.6450 sx        1 2AB      0.633500
      9 O12        -3.5270    0.9470    0.5980 oh        1 2AB     -0.594800
     10 O11        -3.3200   -1.2650   -0.2410 o         1 2AB     -0.534200
     11 C7         -0.4780    1.3160   -0.2570 ca        1 2AB     -0.040000
     12 C8          0.8850    1.3850    0.0190 ca        1 2AB     -0.151000
     13 H11         3.5170   -1.3850   -0.6440 h1        1 2AB      0.029700
     14 H12A        3.6380    0.2510   -1.4260 h1        1 2AB      0.029700
     15 H21         3.2550   -0.2640    1.6140 hc        1 2AB      0.060200
     16 H22         3.3650    1.3580    0.8170 hc        1 2AB      0.060200
     17 H4          1.4680   -1.9130    0.6840 ha        1 2AB      0.139500
     18 H5         -0.9820   -2.0220    0.2080 ha        1 2AB      0.147000
     19 HN91        5.7840   -0.7320   -0.9830 hn        1 2AB      0.351300
     20 HN92        5.6370    0.5250    0.0470 hn        1 2AB      0.351300
     21 H12        -3.8930    0.3880    1.2870 ho        1 2AB      0.449000
     22 H7         -1.0310    2.2360   -0.5050 ha        1 2AB      0.147000
     23 H8          1.4040    2.3550   -0.0210 ha        1 2AB      0.139500
@<TRIPOS>BOND
     1    1    2 1   
     2    1    7 1   
     3    1   13 1   
     4    1   14 1   
     5    2    3 1   
     6    2   15 1   
     7    2   16 1   
     8    3    4 ar  
     9    3   12 ar  
    10    4    5 ar  
    11    4   17 1   
    12    5    6 ar  
    13    5   18 1   
    14    6    8 1   
    15    6   11 ar  
    16    7   19 1   
    17    7   20 1   
    18    8    9 1   
    19    8   10 2   
    20    9   21 1   
    21   11   12 ar  
    22   11   22 1   
    23   12   23 1   
@<TRIPOS>SUBSTRUCTURE
     1 2AB         1 TEMP              0 ****  ****    0 ROOT
