@<TRIPOS>MOLECULE
2AB
   24    24     1     0     0
SMALL
bcc


@<TRIPOS>ATOM
      1 C1          0.0460   -0.0680   -0.0370 c3        1 2AB      0.097800
      2 C2          1.5680    0.0530    0.0280 c3        1 2AB     -0.054100
      3 C3          1.9920    0.0400    1.4560 ca        1 2AB     -0.096300
      4 C4          2.0300   -1.1690    2.1620 ca        1 2AB     -0.136000
      5 C5          2.4670   -1.1880    3.4840 ca        1 2AB     -0.037500
      6 C6          2.8570   -0.0060    4.1210 ca        1 2AB     -0.143500
      7 N9         -0.4680   -0.1100   -1.4390 n4        1 2AB     -0.839600
      8 S10         3.3240    0.0010    5.7770 sx        1 2AB      0.648500
      9 O12         4.8560    0.7130    5.6710 oh        1 2AB     -0.588800
     10 O11         3.7590   -1.3560    6.0900 o         1 2AB     -0.515200
     11 C7          2.8260    1.1940    3.4090 ca        1 2AB     -0.037500
     12 C8          2.3940    1.2230    2.0830 ca        1 2AB     -0.136000
     13 H11        -0.2840   -1.0150    0.4810 hx        1 2AB      0.117700
     14 H12A       -0.4340    0.8140    0.4790 hx        1 2AB      0.117700
     15 H21         2.0520   -0.8050   -0.5120 hc        1 2AB      0.075200
     16 H22         1.9040    1.0050   -0.4650 hc        1 2AB      0.075200
     17 H4          1.7410   -2.1090    1.6690 ha        1 2AB      0.136500
     18 H5          2.5280   -2.1450    4.0350 ha        1 2AB      0.166500
     19 HN91       -0.0670   -0.9120   -1.9370 hn        1 2AB      0.461133
     20 HN92       -0.2030    0.7460   -1.9370 hn        1 2AB      0.461133
     21 H12         5.5700    0.0750    5.7470 ho        1 2AB      0.462000
     22 H7          3.1670    2.1270    3.8930 ha        1 2AB      0.166500
     23 H8          2.3890    2.1760    1.5320 ha        1 2AB      0.136500
     24 H93        -1.4890   -0.1930   -1.4370 hn        1 2AB      0.461133
@<TRIPOS>BOND
     1    1    2 1   
     2    1    7 1   
     3    1   13 1   
     4    1   14 1   
     5    2    3 1   
     6    2   15 1   
     7    2   16 1   
     8    3    4 ar  
     9    3   12 ar  
    10    4    5 ar  
    11    4   17 1   
    12    5    6 ar  
    13    5   18 1   
    14    6    8 1   
    15    6   11 ar  
    16    7   19 1   
    17    7   20 1   
    18    7   24 1   
    19    8    9 1   
    20    8   10 2   
    21    9   21 1   
    22   11   12 ar  
    23   11   22 1   
    24   12   23 1   
@<TRIPOS>SUBSTRUCTURE
     1 2AB         1 TEMP              0 ****  ****    0 ROOT
