@<TRIPOS>MOLECULE
2AB
   24    24     1     0     0
SMALL
bcc


@<TRIPOS>ATOM
      1 C1          0.0460   -0.0600   -0.0370 c3        1 2AB      0.097800
      2 C2          1.5650    0.0890    0.0310 c3        1 2AB     -0.054100
      3 C3          1.9910    0.0520    1.4580 ca        1 2AB     -0.095300
      4 C4          2.0500   -1.1710    2.1370 ca        1 2AB     -0.136000
      5 C5          2.4870   -1.2110    3.4590 ca        1 2AB     -0.037500
      6 C6          2.8580   -0.0370    4.1210 ca        1 2AB     -0.143500
      7 N9         -0.4670   -0.0810   -1.4400 n4        1 2AB     -0.839600
      8 S10         3.3250   -0.0580    5.7770 sx        1 2AB      0.648500
      9 O12         4.8460    0.6800    5.6850 oh        1 2AB     -0.588800
     10 O11         3.7800   -1.4140    6.0610 o         1 2AB     -0.515200
     11 C7          2.8050    1.1780    3.4360 ca        1 2AB     -0.037500
     12 C8          2.3720    1.2280    2.1110 ca        1 2AB     -0.136000
     13 H11        -0.2660   -1.0250    0.4600 hx        1 2AB      0.117700
     14 H12A       -0.4500    0.8010    0.4980 hx        1 2AB      0.117700
     15 H21         2.0660   -0.7480   -0.5290 hc        1 2AB      0.075200
     16 H22         1.8830    1.0580   -0.4420 hc        1 2AB      0.075200
     17 H4          1.7760   -2.1050    1.6250 ha        1 2AB      0.136500
     18 H5          2.5650   -2.1780    3.9890 ha        1 2AB      0.166500
     19 HN91       -1.4870   -0.1840   -1.4400 hn        1 2AB      0.461133
     20 HN92       -0.2190    0.7910   -1.9190 hn        1 2AB      0.461133
     21 H12         5.5700    0.0510    5.7490 ho        1 2AB      0.462000
     22 H7          3.1300    2.1060    3.9390 ha        1 2AB      0.166500
     23 H8          2.3500    2.1920    1.5810 ha        1 2AB      0.136500
     24 H93        -0.0510   -0.8640   -1.9550 hn        1 2AB      0.461133
@<TRIPOS>BOND
     1    1    2 1   
     2    1    7 1   
     3    1   13 1   
     4    1   14 1   
     5    2    3 1   
     6    2   15 1   
     7    2   16 1   
     8    3    4 ar  
     9    3   12 ar  
    10    4    5 ar  
    11    4   17 1   
    12    5    6 ar  
    13    5   18 1   
    14    6    8 1   
    15    6   11 ar  
    16    7   19 1   
    17    7   20 1   
    18    7   24 1   
    19    8    9 1   
    20    8   10 2   
    21    9   21 1   
    22   11   12 ar  
    23   11   22 1   
    24   12   23 1   
@<TRIPOS>SUBSTRUCTURE
     1 2AB         1 TEMP              0 ****  ****    0 ROOT
