@<TRIPOS>MOLECULE
2AC
   18    18     1     0     0
SMALL
bcc


@<TRIPOS>ATOM
      1 N          -0.0770   -0.0250   -0.1450 nv        1 2AC     -0.802200
      2 O           1.2340   -0.3070    2.3030 oh        1 2AC     -0.513100
      3 C1          1.3220   -0.0200   -0.0710 ca        1 2AC      0.119600
      4 C2          2.0080   -0.2330    1.1590 ca        1 2AC      0.058100
      5 C3          3.3990   -0.3400    1.2000 ca        1 2AC     -0.172000
      6 C4          4.1430   -0.2210    0.0300 ca        1 2AC     -0.135000
      7 C5          3.5000    0.0080   -1.1890 ca        1 2AC     -0.072300
      8 C6          2.1070    0.1110   -1.2350 ca        1 2AC     -0.162000
      9 C8          4.2850    0.1300   -2.4410 c3        1 2AC     -0.050800
     10 HN1        -0.5210    0.0960    0.7410 hn        1 2AC      0.389800
     11 HN2        -0.4390    0.5870   -0.8440 hn        1 2AC      0.389800
     12 HO          1.8150   -0.5620    3.0330 ho        1 2AC      0.421000
     13 H3          3.9050   -0.5140    2.1610 ha        1 2AC      0.131000
     14 H4          5.2380   -0.3050    0.0680 ha        1 2AC      0.133000
     15 H6          1.6160    0.2880   -2.2040 ha        1 2AC      0.135000
     16 H81         4.2570   -0.8380   -3.0030 hc        1 2AC      0.043033
     17 H82         5.3520    0.3790   -2.2240 hc        1 2AC      0.043033
     18 H83         3.8620    0.9280   -3.0990 hc        1 2AC      0.043033
@<TRIPOS>BOND
     1    1    3 1   
     2    1   10 1   
     3    1   11 1   
     4    2    4 1   
     5    2   12 1   
     6    3    4 ar  
     7    3    8 ar  
     8    4    5 ar  
     9    5    6 ar  
    10    5   13 1   
    11    6    7 ar  
    12    6   14 1   
    13    7    8 ar  
    14    7    9 1   
    15    8   15 1   
    16    9   16 1   
    17    9   17 1   
    18    9   18 1   
@<TRIPOS>SUBSTRUCTURE
     1 2AC         1 TEMP              0 ****  ****    0 ROOT
