@<TRIPOS>MOLECULE
2AC
   18    18     1     0     0
SMALL
bcc


@<TRIPOS>ATOM
      1 N          -0.0680    0.0950   -0.0800 nh        1 2AC     -0.802200
      2 O           1.3000   -0.0300    2.3500 oh        1 2AC     -0.513100
      3 C1          1.3290   -0.0150   -0.0430 ca        1 2AC      0.119600
      4 C2          2.0480   -0.0100    1.1870 ca        1 2AC      0.058100
      5 C3          3.4440   -0.0060    1.2050 ca        1 2AC     -0.172000
      6 C4          4.1570   -0.0250    0.0100 ca        1 2AC     -0.135000
      7 C5          3.4800   -0.0510   -1.2110 ca        1 2AC     -0.072300
      8 C6          2.0830   -0.0500   -1.2340 ca        1 2AC     -0.162000
      9 C8          4.2320   -0.0650   -2.4880 c3        1 2AC     -0.050800
     10 HN1        -0.5040   -0.1070    0.7950 hn        1 2AC      0.389800
     11 HN2        -0.4840   -0.3950   -0.8420 hn        1 2AC      0.389800
     12 HO          1.9100    0.0890    3.0910 ho        1 2AC      0.421000
     13 H3          3.9770    0.0080    2.1670 ha        1 2AC      0.131000
     14 H4          5.2570   -0.0220    0.0310 ha        1 2AC      0.133000
     15 H6          1.5650   -0.0670   -2.2050 ha        1 2AC      0.135000
     16 H81         4.2480    0.9620   -2.9330 hc        1 2AC      0.043033
     17 H82         5.2880   -0.3950   -2.3300 hc        1 2AC      0.043033
     18 H83         3.7520   -0.7560   -3.2240 hc        1 2AC      0.043033
@<TRIPOS>BOND
     1    1    3 1   
     2    1   10 1   
     3    1   11 1   
     4    2    4 1   
     5    2   12 1   
     6    3    4 ar  
     7    3    8 ar  
     8    4    5 ar  
     9    5    6 ar  
    10    5   13 1   
    11    6    7 ar  
    12    6   14 1   
    13    7    8 ar  
    14    7    9 1   
    15    8   15 1   
    16    9   16 1   
    17    9   17 1   
    18    9   18 1   
@<TRIPOS>SUBSTRUCTURE
     1 2AC         1 TEMP              0 ****  ****    0 ROOT
