@<TRIPOS>MOLECULE
2AC
   18    18     1     0     0
SMALL
bcc


@<TRIPOS>ATOM
      1 N          -1.7840   -0.2020   -1.6720 nh        1 2AC     -0.809200
      2 O           0.9510    0.0160   -2.4300 oh        1 2AC     -0.518100
      3 C1         -0.7740   -0.0750   -0.7080 ca        1 2AC      0.098600
      4 C2          0.5940   -0.0520   -1.0930 ca        1 2AC      0.035100
      5 C3          1.6110   -0.0070   -0.1370 ca        1 2AC     -0.104000
      6 C4          1.2900    0.0120    1.2160 ca        1 2AC     -0.155000
      7 C5         -0.0480   -0.0210    1.6240 ca        1 2AC     -0.053300
      8 C6         -1.0680   -0.0610    0.6720 ca        1 2AC     -0.176000
      9 C8         -0.3870    0.0080    3.0670 c3        1 2AC     -0.054800
     10 HN1        -1.5550    0.2490   -2.5340 hn        1 2AC      0.387300
     11 HN2        -2.6880    0.0550   -1.3370 hn        1 2AC      0.387300
     12 HO          0.6660   -0.8190   -2.8330 ho        1 2AC      0.415000
     13 H3          2.6590    0.0210   -0.4710 ha        1 2AC      0.146000
     14 H4          2.0910    0.0490    1.9680 ha        1 2AC      0.134000
     15 H6         -2.1160   -0.0840    1.0080 ha        1 2AC      0.133000
     16 H81        -0.5120    1.0670    3.4070 hc        1 2AC      0.044700
     17 H82        -1.3410   -0.5390    3.2660 hc        1 2AC      0.044700
     18 H83         0.4240   -0.4620    3.6770 hc        1 2AC      0.044700
@<TRIPOS>BOND
     1    1    3 1   
     2    1   10 1   
     3    1   11 1   
     4    2    4 1   
     5    2   12 1   
     6    3    4 ar  
     7    3    8 ar  
     8    4    5 ar  
     9    5    6 ar  
    10    5   13 1   
    11    6    7 ar  
    12    6   14 1   
    13    7    8 ar  
    14    7    9 1   
    15    8   15 1   
    16    9   16 1   
    17    9   17 1   
    18    9   18 1   
@<TRIPOS>SUBSTRUCTURE
     1 2AC         1 TEMP              0 ****  ****    0 ROOT
