@<TRIPOS>MOLECULE
2AC
   19    19     1     0     0
SMALL
bcc


@<TRIPOS>ATOM
      1 N          -0.0670    0.1580    0.0150 n4        1 2AC     -0.686000
      2 O           1.3310   -0.3200    2.3450 oh        1 2AC     -0.520100
      3 C1          1.3870    0.0320    0.0000 ca        1 2AC     -0.112400
      4 C2          2.0840   -0.2180    1.2040 ca        1 2AC      0.165100
      5 C3          3.4820   -0.3460    1.1840 ca        1 2AC     -0.179000
      6 C4          4.1670   -0.2270   -0.0160 ca        1 2AC     -0.036000
      7 C5          3.4820    0.0230   -1.2210 ca        1 2AC     -0.063300
      8 C6          2.0960    0.1520   -1.2120 ca        1 2AC     -0.083000
      9 C8          4.2450    0.1460   -2.4850 c3        1 2AC     -0.070800
     10 HN1        -0.3710    0.4730    0.9460 hn        1 2AC      0.466133
     11 HN2        -0.4910   -0.7560   -0.1810 hn        1 2AC      0.466133
     12 HO          1.9220   -0.4680    3.1030 ho        1 2AC      0.472000
     13 H3          4.0240   -0.5400    2.1240 ha        1 2AC      0.174000
     14 H4          5.2670   -0.3290   -0.0330 ha        1 2AC      0.175000
     15 H6          1.5630    0.3500   -2.1570 ha        1 2AC      0.159000
     16 H81         4.9820    0.9850   -2.4090 hc        1 2AC      0.069700
     17 H82         3.5730    0.3440   -3.3550 hc        1 2AC      0.069700
     18 H83         4.8120   -0.7990   -2.6850 hc        1 2AC      0.069700
     19 HN3        -0.3670    0.8340   -0.6940 hn        1 2AC      0.466133
@<TRIPOS>BOND
     1    1    3 1   
     2    1   10 1   
     3    1   11 1   
     4    1   19 1   
     5    2    4 1   
     6    2   12 1   
     7    3    4 ar  
     8    3    8 ar  
     9    4    5 ar  
    10    5    6 ar  
    11    5   13 1   
    12    6    7 ar  
    13    6   14 1   
    14    7    8 ar  
    15    7    9 1   
    16    8   15 1   
    17    9   16 1   
    18    9   17 1   
    19    9   18 1   
@<TRIPOS>SUBSTRUCTURE
     1 2AC         1 TEMP              0 ****  ****    0 ROOT
