@<TRIPOS>MOLECULE
2AC
   18    16     1     0     0
SMALL
bcc


@<TRIPOS>ATOM
      1 N          -2.6320   -0.0280    0.3070 n3        1 2AC     -0.311000
      2 O          -1.2240   -0.0440    2.7250 oh        1 2AC     -0.267000
      3 C1         -1.2130   -0.0280    0.3070 c2        1 2AC      0.038000
      4 C2         -0.5200   -0.0280    1.5070 c2        1 2AC      0.013000
      5 C3          0.8660   -0.0280    1.5070 c1        1 2AC     -0.172000
      6 C4          1.5590   -0.0280    0.3070 c1        1 2AC     -0.135000
      7 C5          0.8660   -0.0280   -0.8930 c1        1 2AC     -0.065000
      8 C6         -0.5200   -0.0280   -0.8930 c1        1 2AC     -0.162000
      9 C8          1.6220   -0.0400   -2.2030 c3        1 2AC     -0.176000
     10 HN1        -3.0880    0.7560    0.2120 hn        1 2AC      0.185000
     11 HN2        -3.0880   -0.8150    0.3670 hn        1 2AC      0.185000
     12 HO         -0.8650    0.5480    3.2820 ho        1 2AC      0.220000
     13 H3          1.3540   -0.0280    2.3530 ha        1 2AC      0.131000
     14 H4          2.5350   -0.0280    0.3070 ha        1 2AC      0.133000
     15 H6         -1.0080   -0.0280   -1.7390 ha        1 2AC      0.135000
     16 H81         1.5710   -0.9300   -2.6000 hc        1 2AC      0.082333
     17 H82         2.5570    0.1900   -2.0410 hc        1 2AC      0.082333
     18 H83         1.2280    0.6120   -2.8130 hc        1 2AC      0.082333
@<TRIPOS>BOND
     1    1    3 1   
     2    1   10 1   
     3    1   11 1   
     4    2    4 1   
     5    2   12 1   
     6    3    4 1   
     7    3    8 1   
     8    4    5 1   
     9    5   13 1   
    10    6    7 1   
    11    6   14 1   
    12    7    9 1   
    13    8   15 1   
    14    9   16 1   
    15    9   17 1   
    16    9   18 1   
@<TRIPOS>SUBSTRUCTURE
     1 2AC         1 TEMP              0 ****  ****    0 ROOT
