@<TRIPOS>MOLECULE
2AD
   33    31     1     0     0
SMALL
bcc


@<TRIPOS>ATOM
      1 O5'        -2.5970    2.2800   -2.9660 oh        1 2AD     -0.588800
      2 C5'        -1.1880    2.1640   -2.9750 c3        1 2AD      0.120400
      3 C4'        -0.6720    2.1370   -1.5480 c3        1 2AD      0.085100
      4 O4'        -1.0180    1.0310   -0.9620 os        1 2AD     -0.417600
      5 C3'         0.8800    2.1290   -1.5410 c3        1 2AD      0.071100
      6 O3'         1.3530    3.3080   -1.0840 oh        1 2AD     -0.582800
      7 C2'         1.2810    0.9900   -0.5890 c3        1 2AD      0.109500
      8 C1'         0.1800    0.6600    0.0270 c3        1 2AD      0.252800
      9 N9          0.1730   -0.7450    0.3020 n3        1 2AD     -0.130400
     10 C8          0.1470   -1.7510   -0.6020 c1        1 2AD      0.159400
     11 N7         -0.1220   -2.9060    0.0600 ne        1 2AD     -0.379400
     12 C5         -0.2630   -2.6130    1.3750 cg        1 2AD     -0.196000
     13 C6         -0.6070   -3.3970    2.4720 c1        1 2AD      0.626600
     14 N6         -0.7740   -4.8130    2.6510 n3        1 2AD     -0.822400
     15 N1         -0.7580   -2.8350    3.6740 n1        1 2AD     -0.593800
     16 C2         -0.5730   -1.4780    3.8310 c1        1 2AD      0.412300
     17 N3         -0.2350   -0.7050    2.7550 n1        1 2AD     -0.533800
     18 C4         -0.0810   -1.2760    1.5280 c1        1 2AD      0.030700
     19 N           2.2960    1.4710    0.3850 n3        1 2AD     -0.880800
     20 H5'        -2.8760    2.5370   -3.7610 ho        1 2AD      0.417000
     21 H5'1       -0.8080    2.9170   -3.4390 h1        1 2AD      0.050700
     22 H5'2       -0.9200    1.3030   -3.4480 h1        1 2AD      0.050700
     23 H4'        -1.0090    2.9020   -1.0510 h1        1 2AD      0.107700
     24 H3'         1.2080    1.9580   -2.4070 h1        1 2AD      0.048700
     25 HA          1.7770    3.7430   -1.7530 ho        1 2AD      0.408000
     26 H2'         1.6160    0.2550   -1.0770 h1        1 2AD      0.084700
     27 H1'         0.0930    1.1780    0.8770 h2        1 2AD      0.141700
     28 H8          0.2830   -1.6630   -1.5510 DU        1 2AD      0.194000
     29 H6N1       -1.0130   -5.1400    3.4560 hn        1 2AD      0.449800
     30 H6N2       -0.7030   -5.3780    1.9290 hn        1 2AD      0.449800
     31 H2         -0.6880   -1.0540    4.7420 ha        1 2AD      0.133500
     32 HN1         2.7950    0.7500    0.6940 hn        1 2AD      0.361300
     33 HN2         2.8230    2.0420   -0.0050 hn        1 2AD      0.361300
@<TRIPOS>BOND
     1    1    2 1   
     2    1   20 1   
     3    2    3 1   
     4    2   21 1   
     5    2   22 1   
     6    3    4 1   
     7    3    5 1   
     8    3   23 1   
     9    4    8 1   
    10    5    6 1   
    11    5    7 1   
    12    5   24 1   
    13    6   25 1   
    14    7    8 1   
    15    7   19 1   
    16    7   26 1   
    17    8    9 1   
    18    8   27 1   
    19    9   10 2   
    20    9   18 1   
    21   10   11 2   
    22   11   12 1   
    23   12   18 3   
    24   13   14 1   
    25   13   15 3   
    26   14   29 1   
    27   14   30 1   
    28   16   17 3   
    29   16   31 1   
    30   19   32 1   
    31   19   33 1   
@<TRIPOS>SUBSTRUCTURE
     1 2AD         1 TEMP              0 ****  ****    0 ROOT
