@<TRIPOS>MOLECULE
2AD
   33    35     1     0     0
SMALL
bcc


@<TRIPOS>ATOM
      1 O5'        -2.1000    1.5840   -2.9090 oh        1 2AD     -0.589800
      2 C5'        -1.5000    0.3100   -2.8580 c3        1 2AD      0.118400
      3 C4'         0.0240    0.4180   -2.8920 c3        1 2AD      0.048100
      4 O4'         0.4740    1.0790   -1.7040 os        1 2AD     -0.413600
      5 C3'         0.7150   -0.9540   -2.9650 c3        1 2AD      0.071100
      6 O3'         1.4280   -1.1280   -4.1730 oh        1 2AD     -0.591800
      7 C2'         1.7160   -0.9860   -1.7660 c3        1 2AD      0.153500
      8 C1'         1.1840    0.1750   -0.8430 c3        1 2AD      0.246800
      9 N9          0.3510   -0.2970    0.2350 na        1 2AD     -0.287000
     10 C8         -0.6330   -1.3220    0.2080 cc        1 2AD      0.393700
     11 N7         -1.3300   -1.4340    1.3450 nd        1 2AD     -0.534100
     12 C5         -0.8240   -0.4290    2.1840 ca        1 2AD     -0.240200
     13 C6         -1.1420   -0.0280    3.5250 ca        1 2AD      0.767200
     14 N6         -2.1140   -0.6850    4.2300 nh        1 2AD     -0.961500
     15 N1         -0.4490    1.0220    4.0840 nb        1 2AD     -0.795000
     16 C2          0.5070    1.6180    3.3250 ca        1 2AD      0.691900
     17 N3          0.9150    1.3500    2.0610 nb        1 2AD     -0.733000
     18 C4          0.2300    0.3110    1.4980 ca        1 2AD      0.476800
     19 N           3.1140   -0.8000   -2.0590 n3        1 2AD     -0.879800
     20 H5'        -1.7500    2.0930   -2.1650 ho        1 2AD      0.419000
     21 H5'1       -1.8700   -0.2250   -3.7730 h1        1 2AD      0.050200
     22 H5'2       -1.8280   -0.2400   -1.9340 h1        1 2AD      0.050200
     23 H4'         0.3430    1.0860   -3.7400 h1        1 2AD      0.093700
     24 H3'        -0.0370   -1.7830   -2.8530 h1        1 2AD      0.047700
     25 HA          0.7850   -1.0590   -4.8890 ho        1 2AD      0.417000
     26 H2'         1.6190   -1.9840   -1.2520 h1        1 2AD      0.086700
     27 H1'         2.0120    0.8020   -0.3900 h2        1 2AD      0.142700
     28 H8         -0.7610   -1.9590   -0.6750 h5        1 2AD      0.065800
     29 H6N1       -2.3460   -0.4090    5.1520 hn        1 2AD      0.450800
     30 H6N2       -2.6040   -1.4260    3.7960 hn        1 2AD      0.450800
     31 H2          1.0370    2.4590    3.8230 h5        1 2AD      0.054100
     32 HN1         3.4350   -1.5390   -2.6560 hn        1 2AD      0.366300
     33 HN2         3.2660    0.0760   -2.5220 hn        1 2AD      0.366300
@<TRIPOS>BOND
     1    1    2 1   
     2    1   20 1   
     3    2    3 1   
     4    2   21 1   
     5    2   22 1   
     6    3    4 1   
     7    3    5 1   
     8    3   23 1   
     9    4    8 1   
    10    5    6 1   
    11    5    7 1   
    12    5   24 1   
    13    6   25 1   
    14    7    8 1   
    15    7   19 1   
    16    7   26 1   
    17    8    9 1   
    18    8   27 1   
    19    9   10 1   
    20    9   18 1   
    21   10   11 2   
    22   10   28 1   
    23   11   12 1   
    24   12   13 ar  
    25   12   18 ar  
    26   13   14 1   
    27   13   15 ar  
    28   14   29 1   
    29   14   30 1   
    30   15   16 ar  
    31   16   17 ar  
    32   16   31 1   
    33   17   18 ar  
    34   19   32 1   
    35   19   33 1   
@<TRIPOS>SUBSTRUCTURE
     1 2AD         1 TEMP              0 ****  ****    0 ROOT
