@<TRIPOS>MOLECULE
2AE
   19    19     1     0     0
SMALL
bcc


@<TRIPOS>ATOM
      1 C1          0.0260   -0.0320   -0.0550 ca        1 2AE     -0.314600
      2 C6          1.4620    0.0210   -0.0420 ca        1 2AE      0.321600
      3 C5          2.1210    0.0580    1.2410 ca        1 2AE     -0.217000
      4 C4          1.4080    0.0440    2.4080 ca        1 2AE     -0.003000
      5 C3         -0.0090   -0.0080    2.3860 ca        1 2AE     -0.159000
      6 C2         -0.6690   -0.0450    1.1890 ca        1 2AE     -0.070000
      7 C          -0.6710   -0.0710   -1.3070 c         1 2AE      0.581700
      8 O1         -0.2650   -0.0690   -2.4700 o         1 2AE     -0.499100
      9 N          -2.1970   -0.1260   -1.2610 nz        1 2AE     -0.756400
     10 N2          2.2200    0.0360   -1.1630 nv        1 2AE     -0.821200
     11 H2         -1.7690   -0.0850    1.2150 ha        1 2AE      0.114000
     12 H3         -0.5610   -0.0180    3.3400 ha        1 2AE      0.167000
     13 H4          1.9290    0.0740    3.3810 ha        1 2AE      0.170000
     14 H5          3.2230    0.0990    1.2700 ha        1 2AE      0.166000
     15 H21N        3.2100    0.0740   -1.0860 hn        1 2AE      0.464800
     16 H22N        1.8220    0.0120   -2.0730 hn        1 2AE      0.464800
     17 HN1        -2.5610   -0.1490   -2.2220 hn        1 2AE      0.463467
     18 HN2        -2.5620    0.7000   -0.7800 hn        1 2AE      0.463467
     19 HN3        -2.5020   -0.9650   -0.7630 hn        1 2AE      0.463467
@<TRIPOS>BOND
     1    1    2 ar  
     2    1    6 ar  
     3    1    7 1   
     4    2    3 ar  
     5    2   10 1   
     6    3    4 ar  
     7    3   14 1   
     8    4    5 ar  
     9    4   13 1   
    10    5    6 ar  
    11    5   12 1   
    12    6   11 1   
    13    7    8 2   
    14    7    9 1   
    15    9   17 1   
    16    9   18 1   
    17    9   19 1   
    18   10   15 1   
    19   10   16 1   
@<TRIPOS>SUBSTRUCTURE
     1 2AE         1 TEMP              0 ****  ****    0 ROOT
