@<TRIPOS>MOLECULE
2AE
   20    20     1     0     0
SMALL
bcc


@<TRIPOS>ATOM
      1 C1          0.0130   -0.0260   -0.0070 ca        1 2AE     -0.181600
      2 C6          1.4420    0.0010    0.0220 ca        1 2AE      0.020600
      3 C5          2.1220    0.0160    1.2440 ca        1 2AE     -0.086000
      4 C4          1.4070    0.0050    2.4500 ca        1 2AE     -0.014000
      5 C3          0.0160   -0.0200    2.4330 ca        1 2AE     -0.070000
      6 C2         -0.6710   -0.0360    1.2150 ca        1 2AE     -0.052000
      7 C          -0.6960   -0.0420   -1.2890 c         1 2AE      0.569700
      8 O1         -0.1910   -0.0350   -2.4100 o         1 2AE     -0.450100
      9 N          -2.1990   -0.0700   -1.2970 n4        1 2AE     -0.743400
     10 N2          2.2350    0.0130   -1.2100 n4        1 2AE     -0.716000
     11 H2         -1.7740   -0.0560    1.2630 ha        1 2AE      0.160000
     12 H3         -0.5530   -0.0290    3.3850 ha        1 2AE      0.211000
     13 H4          1.9590    0.0180    3.4120 ha        1 2AE      0.216000
     14 H5          3.2290    0.0370    1.2930 ha        1 2AE      0.197000
     15 H21N        2.0300   -0.8280   -1.7720 hn        1 2AE      0.486467
     16 H22N        1.9980    0.8420   -1.7760 hn        1 2AE      0.486467
     17 HN1        -2.5370   -0.0780   -2.2760 hn        1 2AE      0.493467
     18 HN2        -2.5460   -0.9130   -0.8210 hn        1 2AE      0.493467
     19 HN3        -2.5770    0.7620   -0.8250 hn        1 2AE      0.493467
     20 H23         3.2410    0.0320   -0.9880 hn        1 2AE      0.486467
@<TRIPOS>BOND
     1    1    2 ar  
     2    1    6 ar  
     3    1    7 1   
     4    2    3 ar  
     5    2   10 1   
     6    3    4 ar  
     7    3   14 1   
     8    4    5 ar  
     9    4   13 1   
    10    5    6 ar  
    11    5   12 1   
    12    6   11 1   
    13    7    8 2   
    14    7    9 1   
    15    9   17 1   
    16    9   18 1   
    17    9   19 1   
    18   10   15 1   
    19   10   16 1   
    20   10   20 1   
@<TRIPOS>SUBSTRUCTURE
     1 2AE         1 TEMP              0 ****  ****    0 ROOT
