@<TRIPOS>MOLECULE
2AE
   19    19     1     0     0
SMALL
bcc


@<TRIPOS>ATOM
      1 C1          0.0240   -0.0310   -0.0560 ca        1 2AE     -0.314600
      2 C6          1.4600    0.0240   -0.0450 ca        1 2AE      0.321600
      3 C5          2.1220    0.0580    1.2370 ca        1 2AE     -0.217000
      4 C4          1.4110    0.0400    2.4050 ca        1 2AE     -0.003000
      5 C3         -0.0060   -0.0150    2.3860 ca        1 2AE     -0.159000
      6 C2         -0.6680   -0.0490    1.1900 ca        1 2AE     -0.070000
      7 C          -0.6750   -0.0670   -1.3060 c         1 2AE      0.581700
      8 O1         -0.2710   -0.0610   -2.4700 o         1 2AE     -0.499100
      9 N          -2.2010   -0.1230   -1.2580 n4        1 2AE     -0.756400
     10 N2          2.2160    0.0440   -1.1670 nh        1 2AE     -0.821200
     11 H2         -1.7680   -0.0910    1.2180 ha        1 2AE      0.114000
     12 H3         -0.5560   -0.0290    3.3400 ha        1 2AE      0.167000
     13 H4          1.9340    0.0670    3.3770 ha        1 2AE      0.170000
     14 H5          3.2240    0.1010    1.2640 ha        1 2AE      0.166000
     15 H21N        3.2060    0.0830   -1.0930 hn        1 2AE      0.464800
     16 H22N        1.8160    0.0220   -2.0770 hn        1 2AE      0.464800
     17 HN1        -2.5040   -0.9650   -0.7620 hn        1 2AE      0.463467
     18 HN2        -2.5660    0.7010   -0.7730 hn        1 2AE      0.463467
     19 HN3        -2.5670   -0.1430   -2.2180 hn        1 2AE      0.463467
@<TRIPOS>BOND
     1    1    2 ar  
     2    1    6 ar  
     3    1    7 1   
     4    2    3 ar  
     5    2   10 1   
     6    3    4 ar  
     7    3   14 1   
     8    4    5 ar  
     9    4   13 1   
    10    5    6 ar  
    11    5   12 1   
    12    6   11 1   
    13    7    8 2   
    14    7    9 1   
    15    9   17 1   
    16    9   18 1   
    17    9   19 1   
    18   10   15 1   
    19   10   16 1   
@<TRIPOS>SUBSTRUCTURE
     1 2AE         1 TEMP              0 ****  ****    0 ROOT
