@<TRIPOS>MOLECULE
2AE
   18    15     1     0     0
SMALL
bcc


@<TRIPOS>ATOM
      1 C1         -0.2970   -0.0010   -0.2220 cg        1 2AE     -0.168200
      2 C6          1.0890   -0.0010   -0.2220 c1        1 2AE      0.188800
      3 C5          1.7820   -0.0010    0.9780 c1        1 2AE     -0.154500
      4 C4          1.0890   -0.0010    2.1780 c1        1 2AE     -0.071500
      5 C3         -0.2970   -0.0010    2.1790 c1        1 2AE     -0.071500
      6 C2         -0.9900   -0.0010    0.9780 c1        1 2AE     -0.005500
      7 C          -1.0540   -0.0380   -1.5320 c         1 2AE      0.634300
      8 O1         -0.4460   -0.0670   -2.5840 o         1 2AE     -0.640100
      9 N          -2.4720   -0.0210   -1.5330 n         1 2AE     -0.669000
     10 N2          1.7980    0.0330   -1.4510 n3        1 2AE     -0.807400
     11 H2         -1.9660   -0.0010    0.9780 ha        1 2AE      0.073500
     12 H3         -0.7850   -0.0010    3.0240 ha        1 2AE      0.076000
     13 H4          1.5770   -0.0010    3.0240 ha        1 2AE      0.076000
     14 H5          2.7580   -0.0010    0.9780 ha        1 2AE      0.077500
     15 H21N        2.5830   -0.4230   -1.5360 hn        1 2AE      0.417300
     16 H22N        1.4880    0.5410   -2.1420 hn        1 2AE      0.417300
     17 HN1        -2.9350   -0.6400   -2.0170 hn        1 2AE      0.313000
     18 HN2        -2.9200    0.6290   -1.0760 hn        1 2AE      0.313000
@<TRIPOS>BOND
     1    1    6 3   
     2    1    7 1   
     3    2    3 3   
     4    2   10 1   
     5    3   14 1   
     6    4    5 3   
     7    4   13 1   
     8    5   12 1   
     9    6   11 1   
    10    7    8 2   
    11    7    9 1   
    12    9   17 1   
    13    9   18 1   
    14   10   15 1   
    15   10   16 1   
@<TRIPOS>SUBSTRUCTURE
     1 2AE         1 TEMP              0 ****  ****    0 ROOT
