@<TRIPOS>MOLECULE
2AE
   18    18     1     0     0
SMALL
bcc


@<TRIPOS>ATOM
      1 C1         -0.1760   -0.2800    0.1330 ca        1 2AE     -0.219600
      2 C6          0.5030    0.9500   -0.0810 ca        1 2AE      0.214600
      3 C5          1.9230    0.9220   -0.1620 ca        1 2AE     -0.212000
      4 C4          2.6160   -0.2700   -0.0390 ca        1 2AE     -0.066000
      5 C3          1.9370   -1.4720    0.1750 ca        1 2AE     -0.192000
      6 C2          0.5500   -1.4680    0.2600 ca        1 2AE     -0.063000
      7 C          -1.6580   -0.3020    0.2590 c         1 2AE      0.685700
      8 O1         -2.2960    0.5550    0.9120 o         1 2AE     -0.640100
      9 N          -2.3440   -1.3130   -0.3690 n         1 2AE     -0.669000
     10 N2         -0.1820    2.1370   -0.2910 nh        1 2AE     -0.833200
     11 H2          0.0200   -2.4150    0.4480 ha        1 2AE      0.131000
     12 H3          2.4960   -2.4120    0.2810 ha        1 2AE      0.135000
     13 H4          3.7150   -0.2700   -0.1060 ha        1 2AE      0.132000
     14 H5          2.4760    1.8580   -0.3270 ha        1 2AE      0.135000
     15 H21N       -1.1170    2.1730    0.0540 hn        1 2AE      0.417300
     16 H22N        0.3470    2.9660   -0.1490 hn        1 2AE      0.417300
     17 HN1        -1.8760   -1.9640   -0.9440 hn        1 2AE      0.313000
     18 HN2        -3.3310   -1.3390   -0.3150 hn        1 2AE      0.313000
@<TRIPOS>BOND
     1    1    2 ar  
     2    1    6 ar  
     3    1    7 1   
     4    2    3 ar  
     5    2   10 1   
     6    3    4 ar  
     7    3   14 1   
     8    4    5 ar  
     9    4   13 1   
    10    5    6 ar  
    11    5   12 1   
    12    6   11 1   
    13    7    8 2   
    14    7    9 1   
    15    9   17 1   
    16    9   18 1   
    17   10   15 1   
    18   10   16 1   
@<TRIPOS>SUBSTRUCTURE
     1 2AE         1 TEMP              0 ****  ****    0 ROOT
