@<TRIPOS>MOLECULE
2AF
   15    15     1     0     0
SMALL
bcc


@<TRIPOS>ATOM
      1 N          -0.0360   -0.1650   -0.0430 nh        1 2AF     -0.802200
      2 O           1.3590   -0.0980    2.3730 oh        1 2AF     -0.513100
      3 C1          1.3570   -0.0250   -0.0180 ca        1 2AF      0.116600
      4 C2          2.0930   -0.0600    1.2020 ca        1 2AF      0.061100
      5 C3          3.4890   -0.0350    1.2070 ca        1 2AF     -0.175000
      6 C4          4.1880    0.0410    0.0040 ca        1 2AF     -0.135000
      7 C5          3.4900    0.0960   -1.1990 ca        1 2AF     -0.125000
      8 C6          2.0990    0.0670   -1.2160 ca        1 2AF     -0.161000
      9 HN1        -0.4670   -0.0060    0.8440 hn        1 2AF      0.390800
     10 HN2        -0.4720    0.3420   -0.7820 hn        1 2AF      0.390800
     11 HO          1.9800   -0.2250    3.1040 ho        1 2AF      0.422000
     12 H3          4.0320   -0.0730    2.1620 ha        1 2AF      0.131000
     13 H4          5.2870    0.0590    0.0100 ha        1 2AF      0.133000
     14 H5          4.0400    0.1620   -2.1500 ha        1 2AF      0.132000
     15 H6          1.5690    0.1070   -2.1800 ha        1 2AF      0.135000
@<TRIPOS>BOND
     1    1    3 1   
     2    1    9 1   
     3    1   10 1   
     4    2    4 1   
     5    2   11 1   
     6    3    4 ar  
     7    3    8 ar  
     8    4    5 ar  
     9    5    6 ar  
    10    5   12 1   
    11    6    7 ar  
    12    6   13 1   
    13    7    8 ar  
    14    7   14 1   
    15    8   15 1   
@<TRIPOS>SUBSTRUCTURE
     1 2AF         1 TEMP              0 ****  ****    0 ROOT
