@<TRIPOS>MOLECULE
2AF
   15    15     1     0     0
SMALL
bcc


@<TRIPOS>ATOM
      1 N          -0.0600   -0.1450   -0.0940 nv        1 2AF     -0.802200
      2 O           1.2930   -0.0080    2.3420 oh        1 2AF     -0.513100
      3 C1          1.3320    0.0040   -0.0500 ca        1 2AF      0.116600
      4 C2          2.0470    0.0060    1.1830 ca        1 2AF      0.061100
      5 C3          3.4420    0.0400    1.2120 ca        1 2AF     -0.175000
      6 C4          4.1610    0.0910    0.0190 ca        1 2AF     -0.135000
      7 C5          3.4830    0.1110   -1.1970 ca        1 2AF     -0.125000
      8 C6          2.0930    0.0720   -1.2370 ca        1 2AF     -0.161000
      9 HN1        -0.5070    0.0330    0.7800 hn        1 2AF      0.390800
     10 HN2        -0.4870    0.3390   -0.8540 hn        1 2AF      0.390800
     11 HO          1.9020   -0.1120    3.0860 ho        1 2AF      0.422000
     12 H3          3.9690    0.0300    2.1770 ha        1 2AF      0.131000
     13 H4          5.2600    0.1170    0.0430 ha        1 2AF      0.133000
     14 H5          4.0490    0.1570   -2.1390 ha        1 2AF      0.132000
     15 H6          1.5800    0.0840   -2.2110 ha        1 2AF      0.135000
@<TRIPOS>BOND
     1    1    3 1   
     2    1    9 1   
     3    1   10 1   
     4    2    4 1   
     5    2   11 1   
     6    3    4 ar  
     7    3    8 ar  
     8    4    5 ar  
     9    5    6 ar  
    10    5   12 1   
    11    6    7 ar  
    12    6   13 1   
    13    7    8 ar  
    14    7   14 1   
    15    8   15 1   
@<TRIPOS>SUBSTRUCTURE
     1 2AF         1 TEMP              0 ****  ****    0 ROOT
