@<TRIPOS>MOLECULE
2AF
   15    13     1     0     0
SMALL
bcc


@<TRIPOS>ATOM
      1 N          -2.2710   -0.0030   -0.2300 n3        1 2AF     -0.311000
      2 O          -0.8630    0.0090    2.1880 oh        1 2AF     -0.267000
      3 C1         -0.8530   -0.0030   -0.2300 c2        1 2AF      0.035000
      4 C2         -0.1600   -0.0030    0.9700 c2        1 2AF      0.016000
      5 C3          1.2260   -0.0030    0.9700 c1        1 2AF     -0.175000
      6 C4          1.9190   -0.0030   -0.2300 c1        1 2AF     -0.130000
      7 C5          1.2260   -0.0030   -1.4310 c1        1 2AF     -0.130000
      8 C6         -0.1600   -0.0030   -1.4310 c1        1 2AF     -0.161000
      9 HN1        -2.7270   -0.7860   -0.3340 hn        1 2AF      0.186000
     10 HN2        -2.7270    0.7820   -0.1370 hn        1 2AF      0.186000
     11 HO         -0.2870    0.0260    2.8630 ho        1 2AF      0.221000
     12 H3          1.7140   -0.0030    1.8150 ha        1 2AF      0.131000
     13 H4          2.8950   -0.0030   -0.2300 ha        1 2AF      0.132500
     14 H5          1.7140   -0.0030   -2.2760 ha        1 2AF      0.132500
     15 H6         -0.6480   -0.0030   -2.2760 ha        1 2AF      0.135000
@<TRIPOS>BOND
     1    1    3 1   
     2    1    9 1   
     3    1   10 1   
     4    2    4 1   
     5    2   11 1   
     6    3    4 1   
     7    3    8 1   
     8    4    5 1   
     9    5   12 1   
    10    6    7 1   
    11    6   13 1   
    12    7   14 1   
    13    8   15 1   
@<TRIPOS>SUBSTRUCTURE
     1 2AF         1 TEMP              0 ****  ****    0 ROOT
