@<TRIPOS>MOLECULE
2AF
   15    15     1     0     0
SMALL
bcc


@<TRIPOS>ATOM
      1 N           1.3720   -0.2090    1.7570 nh        1 2AF     -0.810200
      2 O          -1.4650    0.0010    1.6530 oh        1 2AF     -0.518100
      3 C1          0.7010   -0.0730    0.5330 ca        1 2AF      0.094600
      4 C2         -0.7200   -0.0540    0.4860 ca        1 2AF      0.040100
      5 C3         -1.4040    0.0010   -0.7300 ca        1 2AF     -0.107000
      6 C4         -0.6880    0.0340   -1.9250 ca        1 2AF     -0.154000
      7 C5          0.7050    0.0040   -1.9010 ca        1 2AF     -0.107000
      8 C6          1.3970   -0.0450   -0.6950 ca        1 2AF     -0.174000
      9 HN1         2.3350    0.0460    1.7120 hn        1 2AF      0.387300
     10 HN2         0.8950    0.2380    2.5130 hn        1 2AF      0.387300
     11 HO         -1.3010   -0.8320    2.1230 ho        1 2AF      0.416000
     12 H3         -2.5030    0.0260   -0.7260 ha        1 2AF      0.146000
     13 H4         -1.2240    0.0800   -2.8830 ha        1 2AF      0.135000
     14 H5          1.2690    0.0250   -2.8450 ha        1 2AF      0.132000
     15 H6          2.4970   -0.0650   -0.7020 ha        1 2AF      0.133000
@<TRIPOS>BOND
     1    1    3 1   
     2    1    9 1   
     3    1   10 1   
     4    2    4 1   
     5    2   11 1   
     6    3    4 ar  
     7    3    8 ar  
     8    4    5 ar  
     9    5    6 ar  
    10    5   12 1   
    11    6    7 ar  
    12    6   13 1   
    13    7    8 ar  
    14    7   14 1   
    15    8   15 1   
@<TRIPOS>SUBSTRUCTURE
     1 2AF         1 TEMP              0 ****  ****    0 ROOT
