@<TRIPOS>MOLECULE
2AF
   16    16     1     0     0
SMALL
bcc


@<TRIPOS>ATOM
      1 N          -0.0560    0.0370   -0.0840 n4        1 2AF     -0.685000
      2 O           1.3040    0.0950    2.3140 oh        1 2AF     -0.519100
      3 C1          1.4030    0.0350   -0.0540 ca        1 2AF     -0.120400
      4 C2          2.0830    0.0700    1.1860 ca        1 2AF      0.173100
      5 C3          3.4860    0.0760    1.2140 ca        1 2AF     -0.185000
      6 C4          4.1980    0.0480    0.0220 ca        1 2AF     -0.026000
      7 C5          3.5260    0.0120   -1.2080 ca        1 2AF     -0.130000
      8 C6          2.1390    0.0050   -1.2550 ca        1 2AF     -0.070000
      9 HN1        -0.4140   -0.3800    0.7870 hn        1 2AF      0.466800
     10 HN2        -0.3950    1.0040   -0.1510 hn        1 2AF      0.466800
     11 HO          1.8800    0.0950    3.0980 ho        1 2AF      0.473000
     12 H3          4.0120    0.1020    2.1830 ha        1 2AF      0.175000
     13 H4          5.3020    0.0530    0.0420 ha        1 2AF      0.177000
     14 H5          4.1040   -0.0120   -2.1470 ha        1 2AF      0.178000
     15 H6          1.6260   -0.0250   -2.2310 ha        1 2AF      0.160000
     16 HN3        -0.3920   -0.5010   -0.8880 hn        1 2AF      0.466800
@<TRIPOS>BOND
     1    1    3 1   
     2    1    9 1   
     3    1   10 1   
     4    1   16 1   
     5    2    4 1   
     6    2   11 1   
     7    3    4 ar  
     8    3    8 ar  
     9    4    5 ar  
    10    5    6 ar  
    11    5   12 1   
    12    6    7 ar  
    13    6   13 1   
    14    7    8 ar  
    15    7   14 1   
    16    8   15 1   
@<TRIPOS>SUBSTRUCTURE
     1 2AF         1 TEMP              0 ****  ****    0 ROOT
