@<TRIPOS>MOLECULE
2AG
   16    15     1     0     0
SMALL
bcc


@<TRIPOS>ATOM
      1 C1A        -3.3950    0.3800    0.4760 c2        1 2AG     -0.293000
      2 C1E        -2.2730    0.3360   -0.2400 c2        1 2AG     -0.107200
      3 CB         -0.9130    0.4470    0.3350 c3        1 2AG     -0.052200
      4 CA          0.1620   -0.2170   -0.5280 c3        1 2AG      0.021500
      5 C           1.5600    0.1870    0.0490 c         1 2AG      0.887600
      6 O           2.4060   -0.7300    0.2550 o         1 2AG     -0.843800
      7 OXT         1.7710    1.4130    0.2570 o         1 2AG     -0.843800
      8 N          -0.0350   -1.6510   -0.6940 n3        1 2AG     -0.892800
      9 H1A        -4.3890    0.3060    0.0180 ha        1 2AG      0.091500
     10 H1AA       -3.3970    0.4870    1.5680 ha        1 2AG      0.091500
     11 H1E        -2.3090    0.2140   -1.3370 ha        1 2AG      0.115000
     12 HB2        -0.6310    1.5350    0.4200 hc        1 2AG      0.060700
     13 HB3        -0.8890    0.0190    1.3720 hc        1 2AG      0.060700
     14 HA          0.1090    0.2300   -1.5640 h1        1 2AG      0.039700
     15 H           0.8410   -2.0360   -1.0100 hn        1 2AG      0.330800
     16 H2         -0.2120   -2.0580    0.2070 hn        1 2AG      0.330800
@<TRIPOS>BOND
     1    1    2 2   
     2    1    9 1   
     3    1   10 1   
     4    2    3 1   
     5    2   11 1   
     6    3    4 1   
     7    3   12 1   
     8    3   13 1   
     9    4    5 1   
    10    4    8 1   
    11    4   14 1   
    12    5    6 1   
    13    5    7 1   
    14    8   15 1   
    15    8   16 1   
@<TRIPOS>SUBSTRUCTURE
     1 2AG         1 TEMP              0 ****  ****    0 ROOT
