@<TRIPOS>MOLECULE
2AI
   11     7     1     0     0
SMALL
bcc


@<TRIPOS>ATOM
      1 CG         -0.5060    0.0000   -1.4500 cg        1 2AI     -0.117500
      2 CD2         0.8630    0.0000   -1.4500 ch        1 2AI     -0.117500
      3 NE2         1.2750    0.0000   -0.1790 nf        1 2AI     -0.440400
      4 CE1         0.1790    0.0000    0.6170 c1        1 2AI      0.426800
      5 ND1        -0.9180    0.0000   -0.1790 ne        1 2AI     -0.440400
      6 NT          0.1790   -0.0000    2.0360 n2        1 2AI     -0.684600
      7 HG         -1.0800    0.0000   -2.2400 DU        1 2AI      0.205000
      8 HD2         1.4370    0.0000   -2.2400 DU        1 2AI      0.205000
      9 HND1       -1.7850    0.0000    0.1030 DU        1 2AI      0.205000
     10 HNT         0.9680   -0.0000    2.4920 hn        1 2AI      0.379800
     11 HNTA       -0.6110   -0.0000    2.4920 hn        1 2AI      0.379800
@<TRIPOS>BOND
     1    1    2 3   
     2    1    5 1   
     3    2    3 1   
     4    3    4 2   
     5    4    5 2   
     6    6   10 1   
     7    6   11 1   
@<TRIPOS>SUBSTRUCTURE
     1 2AI         1 TEMP              0 ****  ****    0 ROOT
