@<TRIPOS>MOLECULE
2AI
   12    12     1     0     0
SMALL
bcc


@<TRIPOS>ATOM
      1 CG         -0.0430    0.0360   -0.0260 cc        1 2AI     -0.149600
      2 CD2         1.3800   -0.0230   -0.0400 cd        1 2AI      0.325200
      3 NE2         1.8710   -0.0440    1.2430 nd        1 2AI     -0.561000
      4 CE1         0.7580    0.0020    2.0560 cc        1 2AI      0.336400
      5 ND1        -0.4370    0.0520    1.2980 na        1 2AI     -0.266900
      6 NT          0.8150    0.0000    3.5090 n4        1 2AI     -0.771300
      7 HG         -0.7600    0.0650   -0.8530 h4        1 2AI      0.225000
      8 HD2         2.0440   -0.0510   -0.9100 h4        1 2AI      0.092100
      9 HND1       -1.3650    0.0900    1.6410 hn        1 2AI      0.332700
     10 HNT         0.3930    0.8610    3.8790 hn        1 2AI      0.478800
     11 HNTA        0.3230   -0.8220    3.8790 hn        1 2AI      0.478800
     12 HT3         1.8070   -0.0410    3.7950 hn        1 2AI      0.478800
@<TRIPOS>BOND
     1    1    2 2   
     2    1    5 1   
     3    1    7 1   
     4    2    3 1   
     5    2    8 1   
     6    3    4 2   
     7    4    5 1   
     8    4    6 1   
     9    5    9 1   
    10    6   10 1   
    11    6   11 1   
    12    6   12 1   
@<TRIPOS>SUBSTRUCTURE
     1 2AI         1 TEMP              0 ****  ****    0 ROOT
