@<TRIPOS>MOLECULE
2AI
   11    11     1     0     0
SMALL
bcc


@<TRIPOS>ATOM
      1 CG         -0.0410   -0.0730   -0.0290 cc        1 2AI     -0.259600
      2 CD2         1.3490    0.1630    0.0200 cd        1 2AI      0.296200
      3 NE2         1.7840    0.2170    1.3340 nd        1 2AI     -0.685000
      4 CE1         0.6690    0.0140    2.1080 cc        1 2AI      0.530400
      5 ND1        -0.4710   -0.1680    1.2880 na        1 2AI     -0.290900
      6 NT          0.5580   -0.0280    3.5270 nh        1 2AI     -0.877500
      7 HG         -0.7190   -0.1750   -0.8730 h4        1 2AI      0.178000
      8 HD2         2.0380    0.2940   -0.8130 h4        1 2AI      0.042100
      9 HND1       -1.3910   -0.3300    1.6010 hn        1 2AI      0.307700
     10 HNT         1.1390   -0.7640    3.8850 hn        1 2AI      0.379800
     11 HNTA        0.8530    0.8510    3.9110 hn        1 2AI      0.379800
@<TRIPOS>BOND
     1    1    2 2   
     2    1    5 1   
     3    1    7 1   
     4    2    3 1   
     5    2    8 1   
     6    3    4 2   
     7    4    5 1   
     8    4    6 1   
     9    5    9 1   
    10    6   10 1   
    11    6   11 1   
@<TRIPOS>SUBSTRUCTURE
     1 2AI         1 TEMP              0 ****  ****    0 ROOT
