@<TRIPOS>MOLECULE
2AI
   11    11     1     0     0
SMALL
bcc


@<TRIPOS>ATOM
      1 CG         -1.4750    0.6500    0.1020 cc        1 2AI     -0.259600
      2 CD2        -1.3690   -0.7250   -0.1920 cd        1 2AI      0.296200
      3 NE2        -0.0370   -1.1010   -0.2690 nd        1 2AI     -0.685000
      4 CE1         0.6900    0.0370   -0.0230 cc        1 2AI      0.530400
      5 ND1        -0.1780    1.1320    0.2090 na        1 2AI     -0.290900
      6 NT          2.1030    0.2070    0.0170 nh        1 2AI     -0.877500
      7 HG         -2.3470    1.2870    0.2370 h4        1 2AI      0.178000
      8 HD2        -2.1720   -1.4430   -0.3490 h4        1 2AI      0.042100
      9 HND1        0.0980    2.0570    0.4090 hn        1 2AI      0.307700
     10 HNT         2.4900   -0.3840    0.7300 hn        1 2AI      0.379800
     11 HNTA        2.4940   -0.0400   -0.8740 hn        1 2AI      0.379800
@<TRIPOS>BOND
     1    1    2 2   
     2    1    5 1   
     3    1    7 1   
     4    2    3 1   
     5    2    8 1   
     6    3    4 2   
     7    4    5 1   
     8    4    6 1   
     9    5    9 1   
    10    6   10 1   
    11    6   11 1   
@<TRIPOS>SUBSTRUCTURE
     1 2AI         1 TEMP              0 ****  ****    0 ROOT
