@<TRIPOS>MOLECULE
2AK
   19    20     1     0     0
SMALL
bcc


@<TRIPOS>ATOM
      1 Br1        -0.0220   -0.0850    0.0060 br        1 2AK     -0.068100
      2 C5          1.8430   -0.0450   -0.0050 ca        1 2AK     -0.087900
      3 C4          2.5650   -0.0380    1.2000 ca        1 2AK     -0.037000
      4 C3          3.9590   -0.0090    1.2270 ca        1 2AK     -0.126300
      5 C12         4.6880    0.0050    2.5160 c3        1 2AK     -0.051800
      6 C2          4.6890    0.0150    0.0220 ca        1 2AK     -0.005000
      7 C6          2.5630   -0.0210   -1.2010 ca        1 2AK      0.125600
      8 N7          2.0970   -0.0210   -2.5210 ns        1 2AK     -0.479100
      9 C8          3.1860    0.0080   -3.4200 c         1 2AK      0.604500
     10 O11         3.0770    0.0140   -4.6440 o         1 2AK     -0.534500
     11 C9          4.4830    0.0290   -2.5680 c         1 2AK      0.529700
     12 C1          4.0030    0.0090   -1.1730 ca        1 2AK     -0.240600
     13 O10         5.6170    0.0560   -3.0180 o         1 2AK     -0.443100
     14 H1          2.0110   -0.0580    2.1540 ha        1 2AK      0.153000
     15 H2          5.1660    1.0050    2.6770 hc        1 2AK      0.050033
     16 H3          4.0020   -0.1980    3.3740 hc        1 2AK      0.050033
     17 H4          5.4940   -0.7710    2.5180 hc        1 2AK      0.050033
     18 H5          5.7900    0.0370    0.0380 ha        1 2AK      0.157000
     19 H6          1.1430   -0.0400   -2.7770 hn        1 2AK      0.354500
@<TRIPOS>BOND
     1    1    2 1   
     2    2    3 ar  
     3    2    7 ar  
     4    3    4 ar  
     5    3   14 1   
     6    4    5 1   
     7    4    6 ar  
     8    5   15 1   
     9    5   16 1   
    10    5   17 1   
    11    6   12 ar  
    12    6   18 1   
    13    7    8 1   
    14    7   12 ar  
    15    8    9 1   
    16    8   19 1   
    17    9   10 2   
    18    9   11 1   
    19   11   12 1   
    20   11   13 2   
@<TRIPOS>SUBSTRUCTURE
     1 2AK         1 TEMP              0 ****  ****    0 ROOT
