@<TRIPOS>MOLECULE
2AK
   19    20     1     0     0
SMALL
bcc


@<TRIPOS>ATOM
      1 BR1        -0.0220   -0.0740    0.0060 br        1 2AK     -0.068100
      2 C5          1.8440   -0.0400   -0.0060 ca        1 2AK     -0.087900
      3 C4          2.5650   -0.0360    1.2000 ca        1 2AK     -0.037000
      4 C3          3.9590   -0.0110    1.2270 ca        1 2AK     -0.126300
      5 C12         4.6870    0.0020    2.5170 c3        1 2AK     -0.051800
      6 C2          4.6890    0.0100    0.0220 ca        1 2AK     -0.005000
      7 C6          2.5640   -0.0180   -1.2010 ca        1 2AK      0.125600
      8 N7          2.0980   -0.0160   -2.5220 n         1 2AK     -0.479100
      9 C8          3.1870    0.0090   -3.4200 c         1 2AK      0.604500
     10 O11         3.0780    0.0160   -4.6440 o         1 2AK     -0.534500
     11 C9          4.4840    0.0260   -2.5680 c         1 2AK      0.529700
     12 C1          4.0040    0.0070   -1.1730 ca        1 2AK     -0.240600
     13 O10         5.6180    0.0490   -3.0170 o         1 2AK     -0.443100
     14 H1          2.0110   -0.0540    2.1540 ha        1 2AK      0.153000
     15 H2          5.5220   -0.7420    2.5030 hc        1 2AK      0.050033
     16 H3          4.0080   -0.2460    3.3690 hc        1 2AK      0.050033
     17 H4          5.1250    1.0160    2.7000 hc        1 2AK      0.050033
     18 H5          5.7900    0.0290    0.0380 ha        1 2AK      0.157000
     19 H6          1.1430   -0.0320   -2.7780 hn        1 2AK      0.354500
@<TRIPOS>BOND
     1    1    2 1   
     2    2    3 ar  
     3    2    7 ar  
     4    3    4 ar  
     5    3   14 1   
     6    4    5 1   
     7    4    6 ar  
     8    5   15 1   
     9    5   16 1   
    10    5   17 1   
    11    6   12 ar  
    12    6   18 1   
    13    7    8 1   
    14    7   12 ar  
    15    8    9 1   
    16    8   19 1   
    17    9   10 2   
    18    9   11 1   
    19   11   12 1   
    20   11   13 2   
@<TRIPOS>SUBSTRUCTURE
     1 2AK         1 TEMP              0 ****  ****    0 ROOT
