@<TRIPOS>MOLECULE
2AK
   19    20     1     0     0
SMALL
bcc


@<TRIPOS>ATOM
      1 BR1        -0.0220   -0.1000    0.0080 br        1 2AK     -0.068100
      2 C5          1.8440   -0.0520   -0.0050 ca        1 2AK     -0.088900
      3 C4          2.5660   -0.0440    1.2010 ca        1 2AK     -0.037000
      4 C3          3.9590   -0.0090    1.2270 ca        1 2AK     -0.126300
      5 C12         4.6900    0.0040    2.5160 c3        1 2AK     -0.051800
      6 C2          4.6880    0.0200    0.0220 ca        1 2AK     -0.005000
      7 C6          2.5630   -0.0220   -1.2000 ca        1 2AK      0.125600
      8 N7          2.0960   -0.0220   -2.5210 n         1 2AK     -0.479100
      9 C8          3.1840    0.0130   -3.4200 c         1 2AK      0.604500
     10 O11         3.0750    0.0210   -4.6440 o         1 2AK     -0.534500
     11 C9          4.4820    0.0380   -2.5680 c         1 2AK      0.529700
     12 C1          4.0030    0.0140   -1.1730 ca        1 2AK     -0.240600
     13 O10         5.6160    0.0700   -3.0180 o         1 2AK     -0.443100
     14 H1          2.0110   -0.0670    2.1550 ha        1 2AK      0.153000
     15 H2          5.2050    0.9880    2.6560 hc        1 2AK      0.050033
     16 H3          3.9980   -0.1560    3.3780 hc        1 2AK      0.050033
     17 H4          5.4660   -0.8010    2.5320 hc        1 2AK      0.050033
     18 H5          5.7900    0.0470    0.0380 ha        1 2AK      0.157000
     19 H6          1.1420   -0.0450   -2.7760 hn        1 2AK      0.354500
@<TRIPOS>BOND
     1    1    2 1   
     2    2    3 ar  
     3    2    7 ar  
     4    3    4 ar  
     5    3   14 1   
     6    4    5 1   
     7    4    6 ar  
     8    5   15 1   
     9    5   16 1   
    10    5   17 1   
    11    6   12 ar  
    12    6   18 1   
    13    7    8 1   
    14    7   12 ar  
    15    8    9 1   
    16    8   19 1   
    17    9   10 2   
    18    9   11 1   
    19   11   12 1   
    20   11   13 2   
@<TRIPOS>SUBSTRUCTURE
     1 2AK         1 TEMP              0 ****  ****    0 ROOT
