@<TRIPOS>MOLECULE
2AL
   17    17     1     0     0
SMALL
bcc


@<TRIPOS>ATOM
      1 C4          0.0140   -0.0190   -0.2590 cc        1 2AL      0.368200
      2 C5          1.5660   -0.1780    0.1060 c         1 2AL      0.646200
      3 O5          2.3470   -0.7660   -0.6140 o         1 2AL     -0.431500
      4 N7          1.6360    0.4820    1.3230 ns        1 2AL     -0.557500
      5 C8          0.3610    0.9900    1.7210 c         1 2AL      0.841900
      6 O8          0.0630    1.6110    2.7210 o         1 2AL     -0.347500
      7 N9         -0.6510    0.6250    0.6490 nd        1 2AL     -0.566100
      8 N3         -0.5110   -0.5760   -1.5040 ny        1 2AL     -0.588800
      9 C2         -1.9860   -0.8610   -1.5320 c         1 2AL      0.492100
     10 N1         -2.9420    0.1830   -1.0750 nz        1 2AL     -0.712400
     11 O2         -2.3880   -1.9420   -1.9230 o         1 2AL     -0.243100
     12 HN7         2.4730    0.5890    1.8670 hn        1 2AL      0.438500
     13 HN3        -0.2540    0.0620   -2.2880 hn        1 2AL      0.539800
     14 HN11       -3.8680   -0.0090   -1.5180 hn        1 2AL      0.526467
     15 HN12       -2.6480    1.1420   -1.3170 hn        1 2AL      0.526467
     16 H32        -0.0120   -1.4890   -1.6680 hn        1 2AL      0.539800
     17 H13        -3.0660    0.1260   -0.0400 hn        1 2AL      0.526467
@<TRIPOS>BOND
     1    1    2 1   
     2    1    7 2   
     3    1    8 1   
     4    2    3 2   
     5    2    4 1   
     6    4    5 1   
     7    4   12 1   
     8    5    6 2   
     9    5    7 1   
    10    8    9 1   
    11    8   13 1   
    12    8   16 1   
    13    9   10 1   
    14    9   11 2   
    15   10   14 1   
    16   10   15 1   
    17   10   17 1   
@<TRIPOS>SUBSTRUCTURE
     1 2AL         1 TEMP              0 ****  ****    0 ROOT
