@<TRIPOS>MOLECULE
2AL
   15    14     1     0     0
SMALL
bcc


@<TRIPOS>ATOM
      1 C4          0.3200   -0.3770    0.3990 c1        1 2AL      0.329400
      2 C5          1.6930   -0.6080    0.6920 c1        1 2AL      0.529500
      3 O5          2.5710   -0.8140   -0.1220 o         1 2AL     -0.525500
      4 N7          1.8770    0.0010    2.0650 n         1 2AL     -0.565500
      5 C8          0.4700    0.5550    2.4260 c         1 2AL      0.783500
      6 O8          0.0600    0.7880    3.5450 o         1 2AL     -0.488100
      7 N9         -0.3100    0.2350    1.3200 ne        1 2AL     -0.516800
      8 N3         -0.1100   -0.2680   -0.9480 n         1 2AL     -0.458500
      9 C2         -1.4560    0.0760   -1.2370 c         1 2AL      0.766100
     10 N1         -1.9060    0.1060   -2.5820 n         1 2AL     -0.654000
     11 O2         -2.2390    0.2760   -0.3310 o         1 2AL     -0.553100
     12 HN7         2.6680    0.2670    2.4310 hn        1 2AL      0.365500
     13 HN3         0.4730   -0.4380   -1.6280 hn        1 2AL      0.351500
     14 HN11       -2.7680    0.3440   -2.7710 hn        1 2AL      0.319000
     15 HN12       -1.3430   -0.1430   -3.2580 hn        1 2AL      0.319000
@<TRIPOS>BOND
     1    1    7 2   
     2    1    8 2   
     3    2    3 2   
     4    2    4 2   
     5    4    5 1   
     6    4   12 1   
     7    5    6 2   
     8    5    7 1   
     9    8    9 1   
    10    8   13 1   
    11    9   10 1   
    12    9   11 2   
    13   10   14 1   
    14   10   15 1   
@<TRIPOS>SUBSTRUCTURE
     1 2AL         1 TEMP              0 ****  ****    0 ROOT
