@<TRIPOS>MOLECULE
2AL
   17    17     1     0     0
SMALL
bcc


@<TRIPOS>ATOM
      1 C4          0.0110   -0.0530   -0.2460 cc        1 2AL      0.368200
      2 C5          1.5430   -0.3130    0.1470 c         1 2AL      0.646200
      3 O5          2.3110   -0.9000   -0.5870 o         1 2AL     -0.431500
      4 N7          1.6130    0.2730    1.4000 n         1 2AL     -0.557500
      5 C8          0.3550    0.8240    1.7960 c         1 2AL      0.841900
      6 O8          0.0620    1.4030    2.8230 o         1 2AL     -0.347500
      7 N9         -0.6450    0.5730    0.6810 nd        1 2AL     -0.566100
      8 N3         -0.5080   -0.5110   -1.5330 n4        1 2AL     -0.588800
      9 C2         -1.9940   -0.7170   -1.6130 c         1 2AL      0.492100
     10 N1         -2.9090    0.3480   -1.1190 n4        1 2AL     -0.712400
     11 O2         -2.4400   -1.7520   -2.0750 o         1 2AL     -0.243100
     12 HN7         2.4390    0.3060    1.9700 hn        1 2AL      0.438500
     13 HN3        -0.1990    0.1550   -2.2730 hn        1 2AL      0.539800
     14 HN11       -3.8310    0.2300   -1.5950 hn        1 2AL      0.526467
     15 HN12       -2.5600    1.3030   -1.2990 hn        1 2AL      0.526467
     16 H32        -0.0520   -1.4390   -1.7370 hn        1 2AL      0.539800
     17 H13        -3.0620    0.2400   -0.0930 hn        1 2AL      0.526467
@<TRIPOS>BOND
     1    1    2 1   
     2    1    7 2   
     3    1    8 1   
     4    2    3 2   
     5    2    4 1   
     6    4    5 1   
     7    4   12 1   
     8    5    6 2   
     9    5    7 1   
    10    8    9 1   
    11    8   13 1   
    12    8   16 1   
    13    9   10 1   
    14    9   11 2   
    15   10   14 1   
    16   10   15 1   
    17   10   17 1   
@<TRIPOS>SUBSTRUCTURE
     1 2AL         1 TEMP              0 ****  ****    0 ROOT
