@<TRIPOS>MOLECULE
2AL
   15    15     1     0     0
SMALL
bcc


@<TRIPOS>ATOM
      1 C4         -0.0230   -0.1490   -0.0090 cc        1 2AL      0.472900
      2 C5         -1.1850   -1.2070   -0.1030 c         1 2AL      0.569200
      3 O5         -1.0560   -2.4240   -0.2370 o         1 2AL     -0.567500
      4 N7         -2.3360   -0.4400    0.0040 n         1 2AL     -0.632500
      5 C8         -1.9600    0.9510    0.1540 c         1 2AL      0.819900
      6 O8         -2.7920    1.8490    0.2740 o         1 2AL     -0.524500
      7 N9         -0.5030    1.0820    0.1420 nd        1 2AL     -0.584100
      8 N3          1.2660   -0.6120   -0.0490 n         1 2AL     -0.465400
      9 C2          2.4150    0.2280   -0.1770 c         1 2AL      0.766100
     10 N1          3.6590   -0.3550    0.0550 n         1 2AL     -0.654000
     11 O2          2.3210    1.4150   -0.5400 o         1 2AL     -0.553100
     12 HN7        -3.2640   -0.7750   -0.0250 hn        1 2AL      0.365500
     13 HN3         1.3640   -1.6020   -0.1420 hn        1 2AL      0.351500
     14 HN11        4.4240    0.2790    0.0760 hn        1 2AL      0.319000
     15 HN12        3.7400   -1.1830    0.5900 hn        1 2AL      0.319000
@<TRIPOS>BOND
     1    1    2 1   
     2    1    7 2   
     3    1    8 1   
     4    2    3 2   
     5    2    4 1   
     6    4    5 1   
     7    4   12 1   
     8    5    6 2   
     9    5    7 1   
    10    8    9 1   
    11    8   13 1   
    12    9   10 1   
    13    9   11 2   
    14   10   14 1   
    15   10   15 1   
@<TRIPOS>SUBSTRUCTURE
     1 2AL         1 TEMP              0 ****  ****    0 ROOT
