@<TRIPOS>MOLECULE
2AM
   35    37     1     0     0
SMALL
bcc


@<TRIPOS>ATOM
      1 P           1.0180    0.7000    0.7230 p5        1 2AM      1.431800
      2 O1P         1.8710   -0.3440    0.1190 o         1 2AM     -0.836500
      3 O2P         1.3770    1.5760    1.8530 o         1 2AM     -0.836500
      4 O3P        -0.3900   -0.0630    1.0220 oh        1 2AM     -0.780400
      5 C5'         0.1530    2.7390   -5.0030 c3        1 2AM      0.095400
      6 O5'        -0.9350    3.3480   -5.6800 oh        1 2AM     -0.635800
      7 C4'         0.0440    2.9550   -3.4940 c3        1 2AM      0.079100
      8 O4'        -1.2010    2.4330   -3.0260 os        1 2AM     -0.443600
      9 C3'         1.1830    2.2510   -2.7290 c3        1 2AM      0.121100
     10 O3'         1.9770    3.1990   -2.0490 oh        1 2AM     -0.621800
     11 C2'         0.4870    1.2210   -1.8000 c3        1 2AM      0.150100
     12 O2'         0.4860    1.6990   -0.4940 os        1 2AM     -0.581200
     13 C1'        -0.9900    1.1750   -2.3360 c3        1 2AM      0.237800
     14 N9         -1.2620    0.0670   -3.2070 nh        1 2AM     -0.268200
     15 C8         -0.4690   -0.3750   -4.3120 c1        1 2AM      0.064400
     16 N7         -1.0920   -1.3520   -5.0050 ne        1 2AM     -0.678800
     17 C5         -2.3240   -1.5680   -4.3900 ca        1 2AM     -0.123200
     18 C6         -3.4000   -2.4600   -4.6360 ca        1 2AM      0.570200
     19 N6         -3.3660   -3.3110   -5.7740 nh        1 2AM     -0.897500
     20 N1         -4.4980   -2.4600   -3.8110 nb        1 2AM     -0.781000
     21 C2         -4.5040   -1.5600   -2.7970 ca        1 2AM      0.576900
     22 N3         -3.5700   -0.6410   -2.4380 nb        1 2AM     -0.716000
     23 C4         -2.4720   -0.6510   -3.2340 ca        1 2AM      0.382800
     24 H5'1        1.0670    3.2490   -5.4010 h1        1 2AM      0.067200
     25 H5'2        0.1830    1.6340   -5.2290 h1        1 2AM      0.067200
     26 HO5'       -1.7340    2.9590   -5.3000 ho        1 2AM      0.415000
     27 H3'         1.8830    1.7270   -3.4330 h1        1 2AM      0.082700
     28 H2'         0.9950    0.2180   -1.8550 h1        1 2AM      0.110700
     29 H1'        -1.7300    1.1980   -1.4850 h2        1 2AM      0.103700
     30 H8         -0.5410   -0.7940    0.4330 ho        1 2AM      0.430000
     31 HN61       -3.7700   -4.2070   -5.5900 hn        1 2AM      0.364800
     32 HN62       -2.4270   -3.4060   -6.1070 hn        1 2AM      0.364800
     33 H2         -5.4090   -1.5810   -2.1600 h5        1 2AM      0.007100
     34 H4'         0.0130    4.0530   -3.2590 h1        1 2AM      0.050700
     35 HO3'        1.5220    3.4230   -1.2240 ho        1 2AM      0.426000
@<TRIPOS>BOND
     1    1    2 1   
     2    1    3 1   
     3    1    4 1   
     4    1   12 1   
     5    4   30 1   
     6    5    6 1   
     7    5    7 1   
     8    5   24 1   
     9    5   25 1   
    10    6   26 1   
    11    7    8 1   
    12    7    9 1   
    13    7   34 1   
    14    8   13 1   
    15    9   10 1   
    16    9   11 1   
    17    9   27 1   
    18   10   35 1   
    19   11   12 1   
    20   11   13 1   
    21   11   28 1   
    22   13   14 1   
    23   13   29 1   
    24   14   15 2   
    25   14   23 1   
    26   15   16 2   
    27   16   17 1   
    28   17   18 ar  
    29   17   23 ar  
    30   18   19 1   
    31   18   20 ar  
    32   19   31 1   
    33   19   32 1   
    34   20   21 ar  
    35   21   22 ar  
    36   21   33 1   
    37   22   23 ar  
@<TRIPOS>SUBSTRUCTURE
     1 2AM         1 TEMP              0 ****  ****    0 ROOT
