@<TRIPOS>MOLECULE
2AM
   35    37     1     0     0
SMALL
bcc


@<TRIPOS>ATOM
      1 P           1.1110    0.6830    0.6730 p5        1 2AM      1.431800
      2 O1P         1.9580   -0.3470    0.0360 o         1 2AM     -0.836500
      3 O2P         1.4920    1.5520    1.8020 o         1 2AM     -0.836500
      4 O3P        -0.2810   -0.0960    1.0020 oh        1 2AM     -0.780400
      5 C5'         0.0750    2.7710   -5.0060 c3        1 2AM      0.095400
      6 O5'        -1.0360    3.3760   -5.6470 oh        1 2AM     -0.635800
      7 C4'         0.0040    2.9700   -3.4930 c3        1 2AM      0.079100
      8 O4'        -1.2220    2.4300   -2.9980 os        1 2AM     -0.443600
      9 C3'         1.1710    2.2700   -2.7660 c3        1 2AM      0.121100
     10 O3'         1.9740    3.2180   -2.0980 oh        1 2AM     -0.621800
     11 C2'         0.5100    1.2240   -1.8290 c3        1 2AM      0.150100
     12 O2'         0.5380    1.6880   -0.5200 os        1 2AM     -0.581200
     13 C1'        -0.9800    1.1680   -2.3270 c3        1 2AM      0.237800
     14 N9         -1.2640    0.0660   -3.2020 nh        1 2AM     -0.268200
     15 C8         -0.4960   -0.3560   -4.3330 c1        1 2AM      0.064400
     16 N7         -1.1280   -1.3330   -5.0200 ne        1 2AM     -0.678800
     17 C5         -2.3410   -1.5680   -4.3740 ca        1 2AM     -0.123200
     18 C6         -3.4130   -2.4680   -4.6010 ca        1 2AM      0.570200
     19 N6         -3.4020   -3.3070   -5.7480 nv        1 2AM     -0.897500
     20 N1         -4.4890   -2.4890   -3.7470 nb        1 2AM     -0.781000
     21 C2         -4.4780   -1.5990   -2.7240 ca        1 2AM      0.576900
     22 N3         -3.5430   -0.6740   -2.3790 nb        1 2AM     -0.716000
     23 C4         -2.4670   -0.6650   -3.2050 ca        1 2AM      0.382800
     24 H5'1        0.1090    1.6690   -5.2460 h1        1 2AM      0.067200
     25 H5'2        0.9730    3.2950   -5.4230 h1        1 2AM      0.067200
     26 HO5'       -1.8210    2.9760   -5.2500 ho        1 2AM      0.415000
     27 H3'         1.8560    1.7600   -3.4940 h1        1 2AM      0.082700
     28 H2'         1.0260    0.2260   -1.9090 h1        1 2AM      0.110700
     29 H1'        -1.6980    1.1740   -1.4560 h2        1 2AM      0.102700
     30 H8         -0.4420   -0.8220    0.4100 ho        1 2AM      0.430000
     31 HN61       -3.7910   -4.2090   -5.5630 hn        1 2AM      0.364800
     32 HN62       -2.4710   -3.3890   -6.1070 hn        1 2AM      0.364800
     33 H2         -5.3650   -1.6370   -2.0630 h5        1 2AM      0.007100
     34 H4'        -0.0310    4.0660   -3.2450 h1        1 2AM      0.050700
     35 HO3'        1.5390    3.4290   -1.2590 ho        1 2AM      0.426000
@<TRIPOS>BOND
     1    1    2 1   
     2    1    3 1   
     3    1    4 1   
     4    1   12 1   
     5    4   30 1   
     6    5    6 1   
     7    5    7 1   
     8    5   24 1   
     9    5   25 1   
    10    6   26 1   
    11    7    8 1   
    12    7    9 1   
    13    7   34 1   
    14    8   13 1   
    15    9   10 1   
    16    9   11 1   
    17    9   27 1   
    18   10   35 1   
    19   11   12 1   
    20   11   13 1   
    21   11   28 1   
    22   13   14 1   
    23   13   29 1   
    24   14   15 2   
    25   14   23 1   
    26   15   16 2   
    27   16   17 1   
    28   17   18 ar  
    29   17   23 ar  
    30   18   19 1   
    31   18   20 ar  
    32   19   31 1   
    33   19   32 1   
    34   20   21 ar  
    35   21   22 ar  
    36   21   33 1   
    37   22   23 ar  
@<TRIPOS>SUBSTRUCTURE
     1 2AM         1 TEMP              0 ****  ****    0 ROOT
