@<TRIPOS>MOLECULE
2AM
   35    37     1     0     0
SMALL
bcc


@<TRIPOS>ATOM
      1 P           3.3880   -0.6540   -1.5370 p5        1 2AM      1.431800
      2 O1P         3.0860   -2.0510   -1.1610 o         1 2AM     -0.836500
      3 O2P         4.4470   -0.2070   -2.4610 o         1 2AM     -0.836500
      4 O3P         3.5180    0.1210   -0.1100 oh        1 2AM     -0.780400
      5 C5'        -2.6080   -0.1000   -2.7300 c3        1 2AM      0.095400
      6 O5'        -3.5430    0.9610   -2.6150 oh        1 2AM     -0.635800
      7 C4'        -1.1840    0.4410   -2.8440 c3        1 2AM      0.079100
      8 O4'        -0.8890    1.2540   -1.7080 os        1 2AM     -0.443600
      9 C3'        -0.1410   -0.6940   -2.9110 c3        1 2AM      0.121100
     10 O3'         0.5490   -0.6570   -4.1410 oh        1 2AM     -0.621800
     11 C2'         0.7660   -0.5000   -1.6670 c3        1 2AM      0.150100
     12 O2'         1.9790    0.0560   -2.0580 os        1 2AM     -0.581200
     13 C1'        -0.0210    0.5410   -0.7910 c3        1 2AM      0.237800
     14 N9         -0.7820   -0.0470    0.2750 nh        1 2AM     -0.268200
     15 C8         -1.6600   -1.1730    0.1860 c1        1 2AM      0.064400
     16 N7         -2.3280   -1.3670    1.3440 ne        1 2AM     -0.678800
     17 C5         -1.9260   -0.3610    2.2220 ca        1 2AM     -0.123200
     18 C6         -2.2510   -0.0470    3.5670 ca        1 2AM      0.570200
     19 N6         -3.2480   -0.7970    4.2470 nh        1 2AM     -0.897500
     20 N1         -1.6470    1.0170    4.1910 nb        1 2AM     -0.781000
     21 C2         -0.7720    1.7450    3.4550 ca        1 2AM      0.576900
     22 N3         -0.3650    1.5840    2.1680 nb        1 2AM     -0.716000
     23 C4         -0.9400    0.5200    1.5530 ca        1 2AM      0.382800
     24 H5'1       -2.8930   -0.6390   -3.6700 h1        1 2AM      0.067200
     25 H5'2       -2.6860   -0.7850   -1.8380 h1        1 2AM      0.067200
     26 HO5'       -3.2700    1.4710   -1.8410 ho        1 2AM      0.415000
     27 H3'        -0.6350   -1.7020   -2.8770 h1        1 2AM      0.082700
     28 H2'         0.9310   -1.4750   -1.1290 h1        1 2AM      0.110700
     29 H1'         0.6710    1.3370   -0.3890 h2        1 2AM      0.102700
     30 H8          3.0080   -0.2920    0.5780 ho        1 2AM      0.430000
     31 HN61       -3.0310   -0.9280    5.2140 hn        1 2AM      0.364800
     32 HN62       -3.3900   -1.6770    3.7920 hn        1 2AM      0.364800
     33 H2         -0.3130    2.6000    3.9870 h5        1 2AM      0.007100
     34 H4'        -1.0970    1.1260   -3.7310 h1        1 2AM      0.050700
     35 HO3'        1.2410    0.0150   -4.0670 ho        1 2AM      0.426000
@<TRIPOS>BOND
     1    1    2 1   
     2    1    3 1   
     3    1    4 1   
     4    1   12 1   
     5    4   30 1   
     6    5    6 1   
     7    5    7 1   
     8    5   24 1   
     9    5   25 1   
    10    6   26 1   
    11    7    8 1   
    12    7    9 1   
    13    7   34 1   
    14    8   13 1   
    15    9   10 1   
    16    9   11 1   
    17    9   27 1   
    18   10   35 1   
    19   11   12 1   
    20   11   13 1   
    21   11   28 1   
    22   13   14 1   
    23   13   29 1   
    24   14   15 2   
    25   14   23 1   
    26   15   16 2   
    27   16   17 1   
    28   17   18 ar  
    29   17   23 ar  
    30   18   19 1   
    31   18   20 ar  
    32   19   31 1   
    33   19   32 1   
    34   20   21 ar  
    35   21   22 ar  
    36   21   33 1   
    37   22   23 ar  
@<TRIPOS>SUBSTRUCTURE
     1 2AM         1 TEMP              0 ****  ****    0 ROOT
