@<TRIPOS>MOLECULE
2AM
   36    39     1     0     0
SMALL
bcc


@<TRIPOS>ATOM
      1 P          -0.2810    0.0160    0.5250 p5        1 2AM      1.470800
      2 O1P         1.1370    0.2100    0.8330 o         1 2AM     -0.803500
      3 O2P        -1.2880    0.7530    1.6210 os        1 2AM     -0.630200
      4 O3P        -0.9770   -1.2510    0.2550 o         1 2AM     -0.803500
      5 C5'        -4.8720    1.9290   -2.6750 c3        1 2AM      0.123400
      6 O5'        -5.8530    2.9460   -2.6050 oh        1 2AM     -0.615800
      7 C4'        -3.4680    2.4800   -2.4320 c3        1 2AM      0.081100
      8 O4'        -3.4740    3.1290   -1.1490 os        1 2AM     -0.454600
      9 C3'        -2.4050    1.3600   -2.4330 c3        1 2AM      0.121100
     10 O3'        -1.3490    1.7270   -3.2950 oh        1 2AM     -0.619800
     11 C2'        -2.0030    1.2250   -0.9520 c3        1 2AM      0.120100
     12 O2'        -0.6510    0.9960   -0.7880 os        1 2AM     -0.555200
     13 C1'        -2.3740    2.6300   -0.3520 c3        1 2AM      0.209800
     14 N9         -2.6850    2.6280    1.0480 nh        1 2AM     -0.310100
     15 C8         -3.9520    2.3060    1.5680 ce        1 2AM      0.436200
     16 N7         -3.9890    1.8820    2.8300 ne        1 2AM     -0.745000
     17 C5         -2.6430    1.8330    3.2490 cf        1 2AM      0.114000
     18 C6         -2.0740    1.9230    4.4940 cf        1 2AM      0.426900
     19 N6         -2.9320    1.5690    5.6590 n4        1 2AM     -0.777600
     20 N1         -0.8150    2.3910    4.7590 ne        1 2AM     -0.903000
     21 C2         -0.2110    2.9420    3.6400 ce        1 2AM      0.683200
     22 N3         -0.5360    2.9040    2.3640 n2        1 2AM     -0.703900
     23 C4         -1.6620    2.0310    2.0240 c3        1 2AM      0.502400
     24 H5'1       -5.1080    1.1290   -1.9230 h1        1 2AM      0.046200
     25 H5'2       -4.9500    1.5140   -3.7130 h1        1 2AM      0.046200
     26 HO5'       -5.6730    3.4560   -1.8050 ho        1 2AM      0.413000
     27 H3'        -2.8310    0.3990   -2.8280 h1        1 2AM      0.060700
     28 H2'        -2.6060    0.4000   -0.4740 h1        1 2AM      0.083700
     29 H1'        -1.5060    3.3410   -0.4930 h2        1 2AM      0.094700
     30 H8         -4.8540    2.4810    0.9630 h5        1 2AM      0.041800
     31 HN61       -3.8310    2.0440    5.5660 hn        1 2AM      0.434133
     32 HN62       -3.0800    0.5600    5.6260 hn        1 2AM      0.434133
     33 H2          0.7180    3.5010    3.8860 h5        1 2AM      0.024800
     34 HO3'       -0.5250    1.6960   -2.7830 ho        1 2AM      0.444000
     35 H63        -2.4830    1.8270    6.5380 hn        1 2AM      0.434133
     36 H4'        -3.2180    3.2740   -3.1870 h1        1 2AM      0.076700
@<TRIPOS>BOND
     1    1    2 1   
     2    1    3 1   
     3    1    4 1   
     4    1   12 1   
     5    3   23 1   
     6    5    6 1   
     7    5    7 1   
     8    5   24 1   
     9    5   25 1   
    10    6   26 1   
    11    7    8 1   
    12    7    9 1   
    13    7   36 1   
    14    8   13 1   
    15    9   10 1   
    16    9   11 1   
    17    9   27 1   
    18   10   34 1   
    19   11   12 1   
    20   11   13 1   
    21   11   28 1   
    22   13   14 1   
    23   13   29 1   
    24   14   15 2   
    25   14   23 1   
    26   15   16 1   
    27   15   30 1   
    28   16   17 2   
    29   17   18 1   
    30   17   23 1   
    31   18   19 1   
    32   18   20 2   
    33   19   31 1   
    34   19   32 1   
    35   19   35 1   
    36   20   21 1   
    37   21   22 2   
    38   21   33 1   
    39   22   23 1   
@<TRIPOS>SUBSTRUCTURE
     1 2AM         1 TEMP              0 ****  ****    0 ROOT
