@<TRIPOS>MOLECULE
2AN
   33    35     1     0     0
SMALL
bcc


@<TRIPOS>ATOM
      1 C1         -0.1240   -1.0600   -0.2960 ca        1 2AN      0.207600
      2 C2          0.1170   -2.4360   -0.3560 ca        1 2AN     -0.221000
      3 C3         -0.9200   -3.3750   -0.2280 ca        1 2AN     -0.109000
      4 C4         -2.2130   -2.9500   -0.0880 ca        1 2AN     -0.171000
      5 C5         -2.5060   -1.5610   -0.0150 ca        1 2AN     -0.036000
      6 C6         -3.8670   -1.1690    0.0950 ca        1 2AN     -0.130000
      7 C7         -4.1970    0.1550    0.2150 ca        1 2AN     -0.141000
      8 C8         -3.1680    1.1150    0.2860 ca        1 2AN     -0.090000
      9 N           0.9120   -0.1790   -0.6060 nh        1 2AN     -0.652000
     10 C9         -1.8300    0.7840    0.1940 ca        1 2AN     -0.223500
     11 C10        -1.4740   -0.5780   -0.0370 ca        1 2AN      0.026000
     12 C11         2.2400   -0.3510   -0.2210 ca        1 2AN      0.216600
     13 C12         3.2370    0.4390   -0.8560 ca        1 2AN     -0.185000
     14 C13         4.5770    0.2690   -0.5390 ca        1 2AN     -0.104000
     15 C14         4.9750   -0.6730    0.4100 ca        1 2AN     -0.196000
     16 C15         4.0060   -1.4310    1.0630 ca        1 2AN     -0.104000
     17 C16         2.6570   -1.2770    0.7660 ca        1 2AN     -0.185000
     18 O1          0.1550    1.7850    1.4810 o         1 2AN     -0.736200
     19 O2         -0.1690    2.4920   -0.7510 o         1 2AN     -0.736200
     20 O3         -1.6320    3.2360    0.9490 o         1 2AN     -0.736200
     21 H2          1.1350   -2.8130   -0.5430 ha        1 2AN      0.132000
     22 H3         -0.6750   -4.4460   -0.2670 ha        1 2AN      0.111000
     23 H4         -3.0430   -3.6680   -0.0260 ha        1 2AN      0.113000
     24 H6         -4.6420   -1.9490    0.0790 ha        1 2AN      0.110000
     25 H7         -5.2460    0.4770    0.2790 ha        1 2AN      0.114000
     26 H8         -3.4600    2.1710    0.4490 ha        1 2AN      0.165000
     27 HN          0.6700    0.7290   -0.9590 hn        1 2AN      0.487800
     28 H12         2.9420    1.2070   -1.5870 ha        1 2AN      0.143000
     29 H13         5.3320    0.8910   -1.0410 ha        1 2AN      0.112500
     30 H14         6.0380   -0.8030    0.6500 ha        1 2AN      0.112000
     31 H15         4.3060   -2.1550    1.8350 ha        1 2AN      0.112500
     32 H16         1.9070   -1.8530    1.3290 ha        1 2AN      0.143000
     33 S          -0.7640    2.2140    0.5080 s6        1 2AN      1.448100
@<TRIPOS>BOND
     1    1    2 ar  
     2    1    9 1   
     3    1   11 ar  
     4    2    3 ar  
     5    2   21 1   
     6    3    4 ar  
     7    3   22 1   
     8    4    5 ar  
     9    4   23 1   
    10    5    6 ar  
    11    5   11 ar  
    12    6    7 ar  
    13    6   24 1   
    14    7    8 ar  
    15    7   25 1   
    16    8   10 ar  
    17    8   26 1   
    18    9   12 1   
    19    9   27 1   
    20   10   11 ar  
    21   10   33 1   
    22   12   13 ar  
    23   12   17 ar  
    24   13   14 ar  
    25   13   28 1   
    26   14   15 ar  
    27   14   29 1   
    28   15   16 ar  
    29   15   30 1   
    30   16   17 ar  
    31   16   31 1   
    32   17   32 1   
    33   18   33 1   
    34   19   33 1   
    35   20   33 1   
@<TRIPOS>SUBSTRUCTURE
     1 2AN         1 TEMP              0 ****  ****    0 ROOT
