@<TRIPOS>MOLECULE
2AN
   34    36     1     0     0
SMALL
bcc


@<TRIPOS>ATOM
      1 C1          0.1030    0.1710    0.1000 c3        1 2AN     -0.032000
      2 C2          1.5920    0.1110    0.2510 c2        1 2AN     -0.176000
      3 C3          2.1800    0.0190    1.4610 c2        1 2AN     -0.152000
      4 C4          1.4220    0.2480    2.6540 c1        1 2AN     -0.007000
      5 C5          0.0330   -0.0640    2.6080 ca        1 2AN     -0.163000
      6 C6         -0.6650   -0.3070    3.8030 ca        1 2AN     -0.006000
      7 C7         -2.0210   -0.6210    3.7640 ca        1 2AN     -0.165000
      8 C8         -2.6880   -0.6620    2.5430 ca        1 2AN     -0.005000
      9 N          -0.3150    1.4980   -0.5100 n4        1 2AN      0.003000
     10 C9         -2.0310   -0.3810    1.3360 ca        1 2AN     -0.730000
     11 C10        -0.6680   -0.0940    1.3730 ca        1 2AN     -0.004000
     12 C11         0.0480    1.5810   -1.9100 c2        1 2AN     -0.083000
     13 C12        -0.7700    0.8600   -2.9560 c3        1 2AN     -0.126000
     14 C13        -0.9180    1.7420   -4.1610 c2        1 2AN     -0.089000
     15 C14        -0.1000    2.7830   -4.4540 c2        1 2AN     -0.186000
     16 C15         1.1220    2.9040   -3.6530 c2        1 2AN      0.005000
     17 C16         0.9450    2.4210   -2.4230 c1        1 2AN     -0.208000
     18 O1         -4.2410   -1.0170    0.2220 o         1 2AN     -1.051333
     19 O2         -3.0750    0.9630   -0.4960 o         1 2AN     -1.051333
     20 O3         -2.2240   -1.0890   -1.0920 o         1 2AN     -1.051333
     21 H2         -0.2020   -0.6430   -0.6510 hx        1 2AN      0.223000
     22 H3          2.1660    0.1280   -0.6890 ha        1 2AN      0.150000
     23 H4          3.2650   -0.1450    1.5700 ha        1 2AN      0.165000
     24 H6         -0.1180   -0.2650    4.7590 ha        1 2AN      0.155000
     25 H7         -2.5650   -0.8330    4.6970 ha        1 2AN      0.146000
     26 H8         -3.7640   -0.9220    2.5100 ha        1 2AN      0.177000
     27 HN          0.1340    2.2600    0.0060 hn        1 2AN      0.274500
     28 H12        -1.7930    0.6230   -2.5230 hc        1 2AN      0.174000
     29 H13        -0.3270   -0.1290   -3.2570 hc        1 2AN      0.174000
     30 H14        -1.7480    1.4610   -4.8310 ha        1 2AN      0.159000
     31 H15        -0.2530    3.4500   -5.3100 ha        1 2AN      0.157000
     32 H16         2.0590    3.2550   -4.0980 ha        1 2AN      0.171000
     33 S          -3.0340   -0.4270   -0.1380 s6        1 2AN      2.876000
     34 HN3        -1.3620    1.6010   -0.4330 hn        1 2AN      0.274500
@<TRIPOS>BOND
     1    1    2 1   
     2    1    9 1   
     3    1   11 1   
     4    1   21 1   
     5    2    3 1   
     6    2   22 1   
     7    3    4 1   
     8    3   23 1   
     9    4    5 1   
    10    5    6 1   
    11    5   11 1   
    12    6    7 1   
    13    6   24 1   
    14    7    8 1   
    15    7   25 1   
    16    8   10 1   
    17    8   26 1   
    18    9   12 1   
    19    9   27 1   
    20    9   34 1   
    21   10   11 1   
    22   10   33 1   
    23   12   13 1   
    24   12   17 1   
    25   13   14 1   
    26   13   28 1   
    27   13   29 1   
    28   14   15 1   
    29   14   30 1   
    30   15   16 1   
    31   15   31 1   
    32   16   17 1   
    33   16   32 1   
    34   18   33 1   
    35   19   33 1   
    36   20   33 1   
@<TRIPOS>SUBSTRUCTURE
     1 2AN         1 TEMP              0 ****  ****    0 ROOT
