@<TRIPOS>MOLECULE
2AN
   33    27     1     0     0
SMALL
bcc


@<TRIPOS>ATOM
      1 C1          0.7580   -0.5530    0.2710 c1        1 2AN     -0.271000
      2 C2          2.1450   -0.5770    0.2910 c1        1 2AN     -0.155500
      3 C3          2.8290   -0.5430    1.5140 c1        1 2AN     -0.145000
      4 C4          2.1220   -0.4850    2.6990 c1        1 2AN     -0.145000
      5 C5          0.7090   -0.4610    2.6790 c1        1 2AN     -0.036000
      6 C6         -0.0110   -0.4250    3.8890 c2        1 2AN     -0.130000
      7 C7         -1.3940   -0.4230    3.8700 c1        1 2AN     -0.141000
      8 C8         -2.0740   -0.4570    2.6540 c1        1 2AN     -0.155500
      9 N           0.4380   -0.9120   -1.1190 n2        1 2AN     -0.284000
     10 S          -2.7310   -0.7580    0.3690 ss        1 2AN      2.861000
     11 C9         -1.3670   -0.4920    1.4640 c1        1 2AN     -0.271000
     12 C10         0.0380   -0.4940    1.4810 c2        1 2AN      0.026000
     13 C11         0.3450    0.1180   -2.1220 c2        1 2AN      0.135000
     14 C12         0.3360    1.4500   -1.7440 c2        1 2AN     -0.188000
     15 C13         0.2900    2.4400   -2.7080 c1        1 2AN     -0.104000
     16 C14         0.2520    2.1010   -4.0500 c1        1 2AN     -0.145000
     17 C15         0.2610    0.7710   -4.4270 c1        1 2AN     -0.145000
     18 C16         0.3070   -0.2200   -3.4690 c1        1 2AN     -0.182000
     19 O1         -2.4340   -1.8720   -0.6210 o         1 2AN     -1.065000
     20 O2         -3.9750   -1.3510    1.1360 o         1 2AN     -1.065000
     21 O3         -3.0800    0.5030   -0.3290 os        1 2AN     -1.047000
     22 H2          2.6330   -0.6190   -0.5280 ha        1 2AN      0.148500
     23 H3          3.7510   -0.6610    1.5310 ha        1 2AN      0.112250
     24 H4          2.6130   -0.4650    3.5750 ha        1 2AN      0.112250
     25 H6          0.4640   -0.4000    4.7380 ha        1 2AN      0.110000
     26 H7         -1.8990   -0.3320    4.7170 ha        1 2AN      0.114000
     27 H8         -3.0090   -0.4570    2.6420 ha        1 2AN      0.148500
     28 HN          0.3910   -1.7650   -1.3530 hn        1 2AN      0.283000
     29 H12         0.3610    1.6830   -0.8270 ha        1 2AN      0.142000
     30 H13         0.2820    3.4280   -2.4290 ha        1 2AN      0.112000
     31 H14         0.1480    2.8080   -4.7360 ha        1 2AN      0.112250
     32 H15         0.2350    0.5440   -5.3350 ha        1 2AN      0.112250
     33 H16         0.2620   -1.1260   -3.7270 ha        1 2AN      0.144000
@<TRIPOS>BOND
     1    1    2 1   
     2    1   12 1   
     3    2   22 1   
     4    3    4 1   
     5    3   23 1   
     6    4   24 1   
     7    5    6 1   
     8    5   12 1   
     9    6    7 1   
    10    6   25 1   
    11    7   26 1   
    12    8   11 1   
    13    8   27 1   
    14    9   13 1   
    15    9   28 1   
    16   10   19 1   
    17   10   20 1   
    18   11   12 1   
    19   13   14 1   
    20   13   18 1   
    21   14   15 1   
    22   14   29 1   
    23   15   30 1   
    24   16   17 1   
    25   16   31 1   
    26   17   32 1   
    27   18   33 1   
@<TRIPOS>SUBSTRUCTURE
     1 2AN         1 TEMP              0 ****  ****    0 ROOT
