@<TRIPOS>MOLECULE
2AN
   33    35     1     0     0
SMALL
bcc


@<TRIPOS>ATOM
      1 C1          0.0510    0.8490    0.2930 c3        1 2AN      0.020000
      2 C2          1.5430    0.9210    0.4610 c2        1 2AN     -0.052000
      3 C3          2.1840    0.4080    1.5320 c2        1 2AN     -0.237000
      4 C4          1.5200   -0.3710    2.5240 c1        1 2AN     -0.077000
      5 C5          0.0890   -0.3570    2.5140 ca        1 2AN     -0.165000
      6 C6         -0.5760   -0.9580    3.5990 ca        1 2AN     -0.016000
      7 C7         -1.9630   -0.9510    3.6620 ca        1 2AN     -0.205000
      8 C8         -2.6940   -0.3360    2.6460 ca        1 2AN     -0.010000
      9 N          -0.3190    0.1840   -0.9530 n3        1 2AN     -0.246000
     10 C9         -2.0720    0.2610    1.5460 ca        1 2AN     -0.741000
     11 C10        -0.6740    0.2290    1.4740 ca        1 2AN      0.050000
     12 C11         0.0310    0.6900   -2.1650 c2        1 2AN      0.149000
     13 C12        -0.8330    0.3890   -3.3810 c3        1 2AN     -0.132000
     14 C13        -0.8340    1.5810   -4.2920 c2        1 2AN     -0.171000
     15 C14         0.1380    2.5160   -4.2910 c2        1 2AN     -0.144000
     16 C15         1.3300    2.2690   -3.4740 c2        1 2AN     -0.104000
     17 C16         1.1570    1.4140   -2.4730 c1        1 2AN     -0.366000
     18 O1         -2.5490    2.3100    0.1290 o         1 2AN     -1.064000
     19 O2         -3.1560    0.2100   -0.7530 o         1 2AN     -1.064000
     20 O3         -4.4110    1.1370    1.0340 o         1 2AN     -1.064000
     21 H2         -0.3100    1.9390    0.2540 h1        1 2AN      0.177000
     22 H3          2.0780    1.4200   -0.3700 ha        1 2AN      0.167000
     23 H4          3.2730    0.5330    1.6450 ha        1 2AN      0.129000
     24 H6          0.0270   -1.4210    4.3950 ha        1 2AN      0.135000
     25 H7         -2.4840   -1.4190    4.5090 ha        1 2AN      0.119000
     26 H8         -3.7990   -0.3040    2.7090 ha        1 2AN      0.161000
     27 HN         -1.1920   -0.3200   -0.9150 hn        1 2AN      0.268000
     28 H12        -1.8890    0.1860   -3.0370 hc        1 2AN      0.127500
     29 H13        -0.4680   -0.5110   -3.9410 hc        1 2AN      0.127500
     30 H14        -1.6960    1.6370   -4.9710 ha        1 2AN      0.119000
     31 H15         0.1080    3.4000   -4.9390 ha        1 2AN      0.114000
     32 H16         2.2860    2.7040   -3.7790 ha        1 2AN      0.122000
     33 S          -3.1650    1.0670    0.3820 s6        1 2AN      2.872000
@<TRIPOS>BOND
     1    1    2 1   
     2    1    9 1   
     3    1   11 1   
     4    1   21 1   
     5    2    3 1   
     6    2   22 1   
     7    3    4 1   
     8    3   23 1   
     9    4    5 1   
    10    5    6 1   
    11    5   11 1   
    12    6    7 1   
    13    6   24 1   
    14    7    8 1   
    15    7   25 1   
    16    8   10 1   
    17    8   26 1   
    18    9   12 1   
    19    9   27 1   
    20   10   11 1   
    21   10   33 1   
    22   12   13 1   
    23   12   17 1   
    24   13   14 1   
    25   13   28 1   
    26   13   29 1   
    27   14   15 1   
    28   14   30 1   
    29   15   16 1   
    30   15   31 1   
    31   16   17 1   
    32   16   32 1   
    33   18   33 1   
    34   19   33 1   
    35   20   33 1   
@<TRIPOS>SUBSTRUCTURE
     1 2AN         1 TEMP              0 ****  ****    0 ROOT
