@<TRIPOS>MOLECULE
2AO
   23    22     1     0     0
SMALL
bcc


@<TRIPOS>ATOM
      1 N          -1.9890   -0.6790    1.2090 n3        1 2AO     -0.894800
      2 CA         -0.5740   -0.7710    1.0960 c3        1 2AO      0.166500
      3 C           0.0350   -0.8840    2.4750 c3        1 2AO      0.084400
      4 CB         -0.0420    0.4660    0.4100 c3        1 2AO     -0.073400
      5 CG          0.2550    0.1500   -1.0400 c3        1 2AO     -0.075400
      6 CD          0.6480    1.4200   -1.7620 c3        1 2AO     -0.081400
      7 CE          0.9250    1.1080   -3.2160 c3        1 2AO     -0.092100
      8 OXT        -0.0880   -2.2110    2.9360 oh        1 2AO     -0.607800
      9 H          -2.2180   -0.5650    2.0880 hn        1 2AO      0.351800
     10 H2         -2.3710   -1.4490    0.8920 hn        1 2AO      0.351800
     11 HCA        -0.3390   -1.5610    0.5710 h1        1 2AO      0.070700
     12 HC1         0.9830   -0.6380    2.4340 h1        1 2AO      0.024700
     13 HC2        -0.4320   -0.2800    3.0890 h1        1 2AO      0.024700
     14 HB2        -0.7100    1.1790    0.4580 hc        1 2AO      0.038200
     15 HB3         0.7790    0.7580    0.8550 hc        1 2AO      0.038200
     16 HG2        -0.5410   -0.2310   -1.4600 hc        1 2AO      0.051200
     17 HG3         0.9900   -0.4940   -1.0890 hc        1 2AO      0.051200
     18 HD2         1.4530    1.7940   -1.3500 hc        1 2AO      0.035200
     19 HD3        -0.0810    2.0690   -1.7010 hc        1 2AO      0.035200
     20 HE1         1.1940    1.9280   -3.6810 hc        1 2AO      0.032700
     21 HE2         0.1140    0.7470   -3.6330 hc        1 2AO      0.032700
     22 HE3         1.6450    0.4460   -3.2770 hc        1 2AO      0.032700
     23 HXT         0.3640   -2.3030    3.6970 ho        1 2AO      0.403000
@<TRIPOS>BOND
     1    1    2 1   
     2    1    9 1   
     3    1   10 1   
     4    2    3 1   
     5    2    4 1   
     6    2   11 1   
     7    3    8 1   
     8    3   12 1   
     9    3   13 1   
    10    4    5 1   
    11    4   14 1   
    12    4   15 1   
    13    5    6 1   
    14    5   16 1   
    15    5   17 1   
    16    6    7 1   
    17    6   18 1   
    18    6   19 1   
    19    7   20 1   
    20    7   21 1   
    21    7   22 1   
    22    8   23 1   
@<TRIPOS>SUBSTRUCTURE
     1 2AO         1 TEMP              0 ****  ****    0 ROOT
