@<TRIPOS>MOLECULE
2AO
   23    22     1     0     0
SMALL
bcc


@<TRIPOS>ATOM
      1 N           1.2020    1.5470   -0.2520 n3        1 2AO     -0.894800
      2 CA          1.0510    0.1740    0.1830 c3        1 2AO      0.166500
      3 C           2.2270   -0.7580   -0.1960 c3        1 2AO      0.084400
      4 CB         -0.2330   -0.4830   -0.3420 c3        1 2AO     -0.073400
      5 CG         -1.4740    0.1900    0.2000 c3        1 2AO     -0.075400
      6 CD         -2.7270   -0.5340   -0.2480 c3        1 2AO     -0.081400
      7 CE         -3.9690    0.1330    0.2830 c3        1 2AO     -0.092100
      8 OXT         3.4110   -0.1730    0.3180 oh        1 2AO     -0.607800
      9 H           2.0660    1.9150    0.0990 hn        1 2AO      0.351800
     10 H2          1.2100    1.6010   -1.2520 hn        1 2AO      0.351800
     11 HCA         1.0030    0.2030    1.3140 h1        1 2AO      0.070700
     12 HC1         2.0690   -1.7720    0.2570 h1        1 2AO      0.024700
     13 HC2         2.3060   -0.8640   -1.3110 h1        1 2AO      0.024700
     14 HB2        -0.2470   -0.4590   -1.4630 hc        1 2AO      0.038200
     15 HB3        -0.2270   -1.5610   -0.0300 hc        1 2AO      0.038200
     16 HG2        -1.4330    0.2100    1.3210 hc        1 2AO      0.051200
     17 HG3        -1.5130    1.2560   -0.1460 hc        1 2AO      0.051200
     18 HD2        -2.7630   -0.5590   -1.3690 hc        1 2AO      0.035200
     19 HD3        -2.6920   -1.5990    0.1040 hc        1 2AO      0.035200
     20 HE1        -3.9630    0.1460    1.4000 hc        1 2AO      0.032700
     21 HE2        -4.0350    1.1880   -0.0780 hc        1 2AO      0.032700
     22 HE3        -4.8810   -0.4140   -0.0590 hc        1 2AO      0.032700
     23 HXT         4.1300   -0.7850    0.1230 ho        1 2AO      0.403000
@<TRIPOS>BOND
     1    1    2 1   
     2    1    9 1   
     3    1   10 1   
     4    2    3 1   
     5    2    4 1   
     6    2   11 1   
     7    3    8 1   
     8    3   12 1   
     9    3   13 1   
    10    4    5 1   
    11    4   14 1   
    12    4   15 1   
    13    5    6 1   
    14    5   16 1   
    15    5   17 1   
    16    6    7 1   
    17    6   18 1   
    18    6   19 1   
    19    7   20 1   
    20    7   21 1   
    21    7   22 1   
    22    8   23 1   
@<TRIPOS>SUBSTRUCTURE
     1 2AO         1 TEMP              0 ****  ****    0 ROOT
