@<TRIPOS>MOLECULE
2AP
   14    14     1     0     0
SMALL
bcc


@<TRIPOS>ATOM
      1 N1         -0.0330   -0.1370   -0.0280 na        1 2AP     -0.180100
      2 C2          1.3500   -0.0120   -0.0530 ca        1 2AP      0.184500
      3 C3          2.0460    0.1310    1.2070 ca        1 2AP     -0.218000
      4 C4          1.3440    0.1400    2.3890 ca        1 2AP      0.023000
      5 C5         -0.0670    0.0110    2.3760 ca        1 2AP     -0.175000
      6 C6         -0.7180   -0.1250    1.1690 ca        1 2AP     -0.008300
      7 N           2.0360   -0.0230   -1.2290 nh        1 2AP     -0.394200
      8 HN1        -0.5540   -0.2380   -0.8800 hn        1 2AP      0.331700
      9 H3          3.1440    0.2310    1.1960 ha        1 2AP      0.191000
     10 H4          1.8730    0.2490    3.3540 ha        1 2AP      0.192000
     11 H5         -0.6410    0.0170    3.3180 ha        1 2AP      0.201000
     12 H6         -1.8200   -0.2310    1.0880 h4        1 2AP      0.207000
     13 HN1A        1.5910   -0.1190   -2.1130 hn        1 2AP      0.323200
     14 HN2         3.0280    0.0700   -1.2060 hn        1 2AP      0.323200
@<TRIPOS>BOND
     1    1    2 1   
     2    1    6 2   
     3    1    8 1   
     4    2    3 ar  
     5    2    7 1   
     6    3    4 ar  
     7    3    9 1   
     8    4    5 ar  
     9    4   10 1   
    10    5    6 ar  
    11    5   11 1   
    12    6   12 1   
    13    7   13 1   
    14    7   14 1   
@<TRIPOS>SUBSTRUCTURE
     1 2AP         1 TEMP              0 ****  ****    0 ROOT
