@<TRIPOS>MOLECULE
2AP
   14    14     1     0     0
SMALL
bcc


@<TRIPOS>ATOM
      1 N1         -0.0350    0.1380   -0.0250 na        1 2AP     -0.180100
      2 C2          1.3480    0.0100   -0.0540 ca        1 2AP      0.184500
      3 C3          2.0470   -0.1410    1.2030 ca        1 2AP     -0.218000
      4 C4          1.3480   -0.1550    2.3870 ca        1 2AP      0.023000
      5 C5         -0.0630   -0.0220    2.3790 ca        1 2AP     -0.175000
      6 C6         -0.7170    0.1210    1.1740 ca        1 2AP     -0.008300
      7 N           2.0300    0.0250   -1.2320 nv        1 2AP     -0.394200
      8 HN1        -0.5580    0.2450   -0.8740 hn        1 2AP      0.331700
      9 H3          3.1450   -0.2430    1.1880 ha        1 2AP      0.191000
     10 H4          1.8800   -0.2700    3.3500 ha        1 2AP      0.192000
     11 H5         -0.6330   -0.0320    3.3220 ha        1 2AP      0.201000
     12 H6         -1.8190    0.2300    1.0970 h4        1 2AP      0.207000
     13 HN1A        1.5830    0.1270   -2.1140 hn        1 2AP      0.323200
     14 HN2         3.0220   -0.0700   -1.2120 hn        1 2AP      0.323200
@<TRIPOS>BOND
     1    1    2 1   
     2    1    6 2   
     3    1    8 1   
     4    2    3 ar  
     5    2    7 1   
     6    3    4 ar  
     7    3    9 1   
     8    4    5 ar  
     9    4   10 1   
    10    5    6 ar  
    11    5   11 1   
    12    6   12 1   
    13    7   13 1   
    14    7   14 1   
@<TRIPOS>SUBSTRUCTURE
     1 2AP         1 TEMP              0 ****  ****    0 ROOT
