@<TRIPOS>MOLECULE
2AP
   14    11     1     0     0
SMALL
bcc


@<TRIPOS>ATOM
      1 N1         -0.9350    0.0000   -0.7650 n1        1 2AP     -0.668200
      2 C2          0.4280    0.0000   -0.7650 c1        1 2AP      0.309800
      3 C3          1.1210    0.0000    0.4350 c1        1 2AP     -0.160500
      4 C4          0.4390    0.0000    1.6170 c1        1 2AP     -0.018500
      5 C5         -0.9260    0.0000    1.6160 c1        1 2AP     -0.018500
      6 C6         -1.6180    0.0000    0.4150 c1        1 2AP      0.399300
      7 N           1.1370   -0.0000   -1.9940 n3        1 2AP     -0.805400
      8 HN1        -1.3910    0.0000   -1.5550 hn        1 2AP      0.445400
      9 H3          2.0980    0.0000    0.4350 ha        1 2AP      0.133500
     10 H4          0.9270    0.0000    2.4630 ha        1 2AP      0.139000
     11 H5         -1.4150    0.0000    2.4610 ha        1 2AP      0.139000
     12 H6         -2.5940    0.0000    0.4140 ha        1 2AP      0.149500
     13 HN1A        1.3650   -0.7900   -2.3880 hn        1 2AP      0.478300
     14 HN2         1.3660    0.7900   -2.3880 hn        1 2AP      0.478300
@<TRIPOS>BOND
     1    1    6 3   
     2    1    8 1   
     3    2    3 3   
     4    2    7 1   
     5    3    9 1   
     6    4    5 3   
     7    4   10 1   
     8    5   11 1   
     9    6   12 1   
    10    7   13 1   
    11    7   14 1   
@<TRIPOS>SUBSTRUCTURE
     1 2AP         1 TEMP              0 ****  ****    0 ROOT
