@<TRIPOS>MOLECULE
2AP
   15    15     1     0     0
SMALL
bcc


@<TRIPOS>ATOM
      1 N1         -0.0730   -0.0020   -0.0090 na        1 2AP     -0.088100
      2 C2          1.3220   -0.0210   -0.0130 ca        1 2AP      0.018300
      3 C3          2.0340   -0.0270    1.1930 ca        1 2AP     -0.061000
      4 C4          1.3270   -0.0150    2.4200 ca        1 2AP      0.022000
      5 C5         -0.0610    0.0030    2.4090 ca        1 2AP     -0.092000
      6 C6         -0.7440    0.0090    1.1700 ca        1 2AP      0.065700
      7 N           2.0490   -0.0340   -1.2970 n4        1 2AP     -0.728000
      8 HN1        -0.5980    0.0030   -0.8750 hn        1 2AP      0.365700
      9 H3          3.1440   -0.0420    1.2160 ha        1 2AP      0.227000
     10 H4          1.8950   -0.0200    3.3770 ha        1 2AP      0.243000
     11 H5         -0.6550    0.0130    3.3490 ha        1 2AP      0.251000
     12 H6         -1.8640    0.0240    1.1170 h4        1 2AP      0.261000
     13 HN1A        1.8340    0.8120   -1.8540 hn        1 2AP      0.505467
     14 HN2         3.0670   -0.0470   -1.1050 hn        1 2AP      0.505467
     15 HN3         1.8110   -0.8760   -1.8500 hn        1 2AP      0.505467
@<TRIPOS>BOND
     1    1    2 1   
     2    1    6 2   
     3    1    8 1   
     4    2    3 ar  
     5    2    7 1   
     6    3    4 ar  
     7    3    9 1   
     8    4    5 ar  
     9    4   10 1   
    10    5    6 ar  
    11    5   11 1   
    12    6   12 1   
    13    7   13 1   
    14    7   14 1   
    15    7   15 1   
@<TRIPOS>SUBSTRUCTURE
     1 2AP         1 TEMP              0 ****  ****    0 ROOT
