@<TRIPOS>MOLECULE
2AP
   14    14     1     0     0
SMALL
bcc


@<TRIPOS>ATOM
      1 N1          0.2580   -1.1750    0.0010 na        1 2AP     -0.180100
      2 C2          0.9480    0.0310    0.0010 ca        1 2AP      0.184500
      3 C3          0.1790    1.2560   -0.0000 ca        1 2AP     -0.218000
      4 C4         -1.1960    1.2120   -0.0000 ca        1 2AP      0.023000
      5 C5         -1.8650   -0.0370    0.0000 ca        1 2AP     -0.175000
      6 C6         -1.1210   -1.1970    0.0010 ca        1 2AP     -0.008300
      7 N           2.3080    0.0630    0.0010 nh        1 2AP     -0.394200
      8 HN1         0.7530   -2.0480    0.0020 hn        1 2AP      0.331700
      9 H3          0.7180    2.2180   -0.0000 ha        1 2AP      0.191000
     10 H4         -1.7860    2.1470   -0.0010 ha        1 2AP      0.192000
     11 H5         -2.9660   -0.0840   -0.0000 ha        1 2AP      0.201000
     12 H6         -1.5810   -2.2070    0.0010 h4        1 2AP      0.207000
     13 HN1A        2.7660    0.9480    0.0010 hn        1 2AP      0.323200
     14 HN2         2.8680   -0.7580    0.0010 hn        1 2AP      0.323200
@<TRIPOS>BOND
     1    1    2 1   
     2    1    6 2   
     3    1    8 1   
     4    2    3 ar  
     5    2    7 1   
     6    3    4 ar  
     7    3    9 1   
     8    4    5 ar  
     9    4   10 1   
    10    5    6 ar  
    11    5   11 1   
    12    6   12 1   
    13    7   13 1   
    14    7   14 1   
@<TRIPOS>SUBSTRUCTURE
     1 2AP         1 TEMP              0 ****  ****    0 ROOT
