@<TRIPOS>MOLECULE
2AQ
   20    21     1     0     0
SMALL
bcc


@<TRIPOS>ATOM
      1 N1         -0.0460    0.0120   -0.0640 n4        1 2AQ     -0.822300
      2 C2          1.4370    0.0170   -0.0360 ca        1 2AQ      0.455200
      3 C3          2.0790    0.0550    1.2440 ca        1 2AQ     -0.248300
      4 C4          3.4560    0.0590    1.2510 ca        1 2AQ     -0.027000
      5 C5          4.1770    0.0260    0.0280 ca        1 2AQ     -0.117300
      6 C6          5.5940    0.0290   -0.0130 ca        1 2AQ     -0.113000
      7 C7          6.2540   -0.0040   -1.2190 ca        1 2AQ     -0.077000
      8 C8          5.5280   -0.0400   -2.4350 ca        1 2AQ     -0.091000
      9 C9          4.1550   -0.0440   -2.4420 ca        1 2AQ     -0.157300
     10 C10         3.4370   -0.0110   -1.2030 ca        1 2AQ      0.406600
     11 N11         2.0620   -0.0150   -1.2140 nb        1 2AQ     -0.625000
     12 HN11       -0.3800   -0.8130    0.4450 hn        1 2AQ      0.470800
     13 HN12       -0.3850    0.8630    0.3970 hn        1 2AQ      0.470800
     14 H3          1.5020    0.0800    2.1790 ha        1 2AQ      0.165000
     15 H4          4.0100    0.0880    2.2050 ha        1 2AQ      0.177000
     16 H6          6.1530    0.0570    0.9370 ha        1 2AQ      0.161000
     17 H7          7.3560   -0.0020   -1.2540 ha        1 2AQ      0.166000
     18 H8          6.0860   -0.0660   -3.3870 ha        1 2AQ      0.167000
     19 H9          3.5950   -0.0730   -3.3920 ha        1 2AQ      0.170000
     20 H13        -0.4000   -0.0160   -1.0300 hn        1 2AQ      0.470800
@<TRIPOS>BOND
     1    1    2 1   
     2    1   12 1   
     3    1   13 1   
     4    1   20 1   
     5    2    3 ar  
     6    2   11 ar  
     7    3    4 ar  
     8    3   14 1   
     9    4    5 ar  
    10    4   15 1   
    11    5    6 ar  
    12    5   10 ar  
    13    6    7 ar  
    14    6   16 1   
    15    7    8 ar  
    16    7   17 1   
    17    8    9 ar  
    18    8   18 1   
    19    9   10 ar  
    20    9   19 1   
    21   10   11 ar  
@<TRIPOS>SUBSTRUCTURE
     1 2AQ         1 TEMP              0 ****  ****    0 ROOT
