@<TRIPOS>MOLECULE
2AQ
   19    20     1     0     0
SMALL
bcc


@<TRIPOS>ATOM
      1 N1         -0.0210   -0.2000    0.0200 nv        1 2AQ     -0.927500
      2 C2          1.3760   -0.0650   -0.0060 ca        1 2AQ      0.640200
      3 C3          2.0760    0.0030    1.2660 ca        1 2AQ     -0.276300
      4 C4          3.4420    0.0350    1.2670 ca        1 2AQ     -0.055000
      5 C5          4.1580    0.0050    0.0370 ca        1 2AQ     -0.184300
      6 C6          5.5730    0.0310   -0.0150 ca        1 2AQ     -0.097000
      7 C7          6.2260    0.0030   -1.2230 ca        1 2AQ     -0.145000
      8 C8          5.4860   -0.0530   -2.4270 ca        1 2AQ     -0.113000
      9 C9          4.1150   -0.0800   -2.4160 ca        1 2AQ     -0.181300
     10 C10         3.4000   -0.0520   -1.1730 ca        1 2AQ      0.440600
     11 N11         2.0250   -0.0720   -1.1870 nb        1 2AQ     -0.734000
     12 HN11       -0.4890   -0.0820   -0.8520 hn        1 2AQ      0.403800
     13 HN12       -0.4560    0.2710    0.7810 hn        1 2AQ      0.403800
     14 H3          1.5030    0.0170    2.2030 ha        1 2AQ      0.142000
     15 H4          4.0070    0.0830    2.2110 ha        1 2AQ      0.137000
     16 H6          6.1350    0.0740    0.9310 ha        1 2AQ      0.131000
     17 H7          7.3240    0.0220   -1.2690 ha        1 2AQ      0.133000
     18 H8          6.0320   -0.0750   -3.3840 ha        1 2AQ      0.133000
     19 H9          3.5450   -0.1250   -3.3570 ha        1 2AQ      0.148000
@<TRIPOS>BOND
     1    1    2 1   
     2    1   12 1   
     3    1   13 1   
     4    2    3 ar  
     5    2   11 ar  
     6    3    4 ar  
     7    3   14 1   
     8    4    5 ar  
     9    4   15 1   
    10    5    6 ar  
    11    5   10 ar  
    12    6    7 ar  
    13    6   16 1   
    14    7    8 ar  
    15    7   17 1   
    16    8    9 ar  
    17    8   18 1   
    18    9   10 ar  
    19    9   19 1   
    20   10   11 ar  
@<TRIPOS>SUBSTRUCTURE
     1 2AQ         1 TEMP              0 ****  ****    0 ROOT
