@<TRIPOS>MOLECULE
2AQ
   19    20     1     0     0
SMALL
bcc


@<TRIPOS>ATOM
      1 N1         -0.0220   -0.1920    0.0160 nh        1 2AQ     -0.927500
      2 C2          1.3750   -0.0590   -0.0080 ca        1 2AQ      0.640200
      3 C3          2.0730    0.0200    1.2640 ca        1 2AQ     -0.276300
      4 C4          3.4390    0.0500    1.2680 ca        1 2AQ     -0.055000
      5 C5          4.1570    0.0080    0.0390 ca        1 2AQ     -0.184300
      6 C6          5.5720    0.0330   -0.0100 ca        1 2AQ     -0.097000
      7 C7          6.2270   -0.0070   -1.2170 ca        1 2AQ     -0.145000
      8 C8          5.4900   -0.0730   -2.4220 ca        1 2AQ     -0.113000
      9 C9          4.1180   -0.0990   -2.4130 ca        1 2AQ     -0.181300
     10 C10         3.4010   -0.0590   -1.1710 ca        1 2AQ      0.440600
     11 N11         2.0260   -0.0780   -1.1880 nb        1 2AQ     -0.734000
     12 HN11       -0.4570    0.2860    0.7720 hn        1 2AQ      0.403800
     13 HN12       -0.4880   -0.0820   -0.8570 hn        1 2AQ      0.403800
     14 H3          1.4980    0.0430    2.2000 ha        1 2AQ      0.142000
     15 H4          4.0030    0.1060    2.2120 ha        1 2AQ      0.137000
     16 H6          6.1330    0.0830    0.9360 ha        1 2AQ      0.131000
     17 H7          7.3260    0.0110   -1.2610 ha        1 2AQ      0.133000
     18 H8          6.0370   -0.1050   -3.3770 ha        1 2AQ      0.133000
     19 H9          3.5500   -0.1520   -3.3550 ha        1 2AQ      0.148000
@<TRIPOS>BOND
     1    1    2 1   
     2    1   12 1   
     3    1   13 1   
     4    2    3 ar  
     5    2   11 ar  
     6    3    4 ar  
     7    3   14 1   
     8    4    5 ar  
     9    4   15 1   
    10    5    6 ar  
    11    5   10 ar  
    12    6    7 ar  
    13    6   16 1   
    14    7    8 ar  
    15    7   17 1   
    16    8    9 ar  
    17    8   18 1   
    18    9   10 ar  
    19    9   19 1   
    20   10   11 ar  
@<TRIPOS>SUBSTRUCTURE
     1 2AQ         1 TEMP              0 ****  ****    0 ROOT
