@<TRIPOS>MOLECULE
2AQ
   19    16     1     0     0
SMALL
bcc


@<TRIPOS>ATOM
      1 N1         -3.4260   -0.0000    0.6860 n3        1 2AQ     -0.325000
      2 C2         -2.0080   -0.0000    0.6860 c2        1 2AQ      0.119000
      3 C3         -1.1980   -0.0000    1.8180 c2        1 2AQ     -0.211000
      4 C4          0.1630   -0.0000    1.6850 c1        1 2AQ     -0.055000
      5 C5          0.7350   -0.0000    0.4210 c1        1 2AQ     -0.036000
      6 C6          2.1360   -0.0000    0.2810 c1        1 2AQ     -0.106500
      7 C7          2.7080   -0.0000   -0.9850 c1        1 2AQ     -0.129000
      8 C8          1.8960   -0.0000   -2.1150 c1        1 2AQ     -0.129000
      9 C9          0.5140   -0.0000   -1.9780 c1        1 2AQ     -0.106500
     10 C10        -0.0670   -0.0000   -0.6950 c1        1 2AQ     -0.036000
     11 N11        -1.4440   -0.0000   -0.5580 n1        1 2AQ     -0.208000
     12 HN11       -3.8820    0.7900    0.6770 hn        1 2AQ      0.199000
     13 HN12       -3.8820   -0.7900    0.6780 hn        1 2AQ      0.199000
     14 H3         -1.6020    0.0000    2.7060 ha        1 2AQ      0.142000
     15 H4          0.7310   -0.0000    2.4780 ha        1 2AQ      0.137000
     16 H6          2.7060   -0.0000    1.0730 ha        1 2AQ      0.139500
     17 H7          3.6790   -0.0000   -1.0820 ha        1 2AQ      0.133000
     18 H8          2.2980   -0.0000   -3.0050 ha        1 2AQ      0.133000
     19 H9         -0.0550   -0.0000   -2.7710 ha        1 2AQ      0.139500
@<TRIPOS>BOND
     1    1    2 1   
     2    1   12 1   
     3    1   13 1   
     4    2    3 1   
     5    2   11 1   
     6    3    4 1   
     7    3   14 1   
     8    4   15 1   
     9    5    6 1   
    10    5   10 1   
    11    6   16 1   
    12    7    8 1   
    13    7   17 1   
    14    8   18 1   
    15    9   10 1   
    16    9   19 1   
@<TRIPOS>SUBSTRUCTURE
     1 2AQ         1 TEMP              0 ****  ****    0 ROOT
