@<TRIPOS>MOLECULE
2AQ
   19    20     1     0     0
SMALL
bcc


@<TRIPOS>ATOM
      1 N1         -6.1290    2.9610   -1.2990 nh        1 2AQ     -0.927500
      2 C2         -4.7270    2.9950   -1.2560 ca        1 2AQ      0.640200
      3 C3         -4.0690    4.2630   -1.5240 ca        1 2AQ     -0.276300
      4 C4         -2.7110    4.3440   -1.3900 ca        1 2AQ     -0.055000
      5 C5         -1.9630    3.1980   -0.9990 ca        1 2AQ     -0.184300
      6 C6         -0.5550    3.2320   -0.8430 ca        1 2AQ     -0.097000
      7 C7          0.1300    2.1030   -0.4650 ca        1 2AQ     -0.145000
      8 C8         -0.5670    0.8950   -0.2300 ca        1 2AQ     -0.113000
      9 C9         -1.9300    0.8250   -0.3710 ca        1 2AQ     -0.181300
     10 C10        -2.6780    1.9850   -0.7630 ca        1 2AQ      0.440600
     11 N11        -4.0430    1.8880   -0.9060 nb        1 2AQ     -0.734000
     12 HN11       -6.5460    2.0570   -1.2740 hn        1 2AQ      0.403800
     13 HN12       -6.5240    3.5710   -1.9780 hn        1 2AQ      0.403800
     14 H3         -4.6680    5.1360   -1.8160 ha        1 2AQ      0.142000
     15 H4         -2.1780    5.2890   -1.5800 ha        1 2AQ      0.137000
     16 H6         -0.0260    4.1790   -1.0280 ha        1 2AQ      0.131000
     17 H7          1.2230    2.1240   -0.3420 ha        1 2AQ      0.133000
     18 H8          0.0030    0.0040    0.0720 ha        1 2AQ      0.133000
     19 H9         -2.4680   -0.1180   -0.1850 ha        1 2AQ      0.148000
@<TRIPOS>BOND
     1    1    2 1   
     2    1   12 1   
     3    1   13 1   
     4    2    3 ar  
     5    2   11 ar  
     6    3    4 ar  
     7    3   14 1   
     8    4    5 ar  
     9    4   15 1   
    10    5    6 ar  
    11    5   10 ar  
    12    6    7 ar  
    13    6   16 1   
    14    7    8 ar  
    15    7   17 1   
    16    8    9 ar  
    17    8   18 1   
    18    9   10 ar  
    19    9   19 1   
    20   10   11 ar  
@<TRIPOS>SUBSTRUCTURE
     1 2AQ         1 TEMP              0 ****  ****    0 ROOT
