@<TRIPOS>MOLECULE
2AR
   36    38     1     0     0
SMALL
bcc


@<TRIPOS>ATOM
      1 P           1.5600    0.6690   -2.9470 p5        1 2AR      1.343900
      2 OP1         2.3440   -0.6050   -3.0660 o         1 2AR     -0.923500
      3 OP2         1.7840    1.7510   -3.9540 o         1 2AR     -0.923500
      4 OP3         1.3470    1.1250   -1.5120 o         1 2AR     -0.923500
      5 O5'        -0.0560    0.1480   -3.3180 os        1 2AR     -0.575200
      6 C5'        -0.4190   -1.0300   -2.7150 c3        1 2AR      0.218400
      7 C4'        -1.3990   -0.8170   -1.5390 c3        1 2AR     -0.128700
      8 CX'        -0.8840   -1.3790   -0.2210 c3        1 2AR     -0.080400
      9 C1'        -1.3610   -0.4220    0.9050 c3        1 2AR      0.059000
     10 N9         -0.2850   -0.0000    1.7770 na        1 2AR     -0.252000
     11 C4         -0.2590   -0.1110    3.1710 ca        1 2AR      0.410800
     12 N3         -1.1510   -0.6330    4.0670 nb        1 2AR     -0.720000
     13 C2         -0.7120   -0.5750    5.3430 ca        1 2AR      0.623900
     14 N1          0.4520   -0.0840    5.8540 nb        1 2AR     -0.803000
     15 C6          1.3390    0.4670    4.9650 ca        1 2AR      0.670200
     16 N6          2.5110    1.0900    5.4170 nh        1 2AR     -0.922500
     17 C5          1.0310    0.4630    3.5730 ca        1 2AR     -0.186200
     18 N7          1.7330    0.8920    2.4400 nc        1 2AR     -0.618100
     19 C8          0.9390    0.6080    1.3890 cd        1 2AR      0.468700
     20 C2'        -2.0770    0.7550    0.2000 c3        1 2AR     -0.085400
     21 C3'        -1.6310    0.6760   -1.2570 c3        1 2AR      0.110100
     22 O3'        -2.6380    1.2140   -2.1010 oh        1 2AR     -0.647800
     23 H5'         0.4940   -1.5920   -2.3620 h1        1 2AR     -0.000300
     24 H5''       -0.9570   -1.6780   -3.4720 h1        1 2AR     -0.000300
     25 H4'        -2.3810   -1.2960   -1.7930 hc        1 2AR      0.009700
     26 HX'1        0.2350   -1.4400   -0.2530 hc        1 2AR      0.050700
     27 HX'2       -1.2840   -2.4040   -0.0280 hc        1 2AR      0.050700
     28 H1'        -2.1090   -0.9630    1.5540 h1        1 2AR      0.048700
     29 H2         -1.4030   -0.9960    6.1000 h5        1 2AR      0.019100
     30 H61         2.8750    0.7420    6.2750 hn        1 2AR      0.398800
     31 H62         3.1960    1.2040    4.7010 hn        1 2AR      0.398800
     32 H8          1.1770    0.8090    0.2800 h5        1 2AR      0.231800
     33 H2''       -3.1830    0.6130    0.2860 hc        1 2AR      0.038200
     34 H2'        -1.8200    1.7480    0.6390 hc        1 2AR      0.038200
     35 H3'        -0.6410    1.2280   -1.4150 h1        1 2AR      0.167700
     36 HO3'       -2.2080    1.2610   -2.9690 ho        1 2AR      0.433000
@<TRIPOS>BOND
     1    1    2 1   
     2    1    3 1   
     3    1    4 1   
     4    1    5 1   
     5    5    6 1   
     6    6    7 1   
     7    6   23 1   
     8    6   24 1   
     9    7    8 1   
    10    7   21 1   
    11    7   25 1   
    12    8    9 1   
    13    8   26 1   
    14    8   27 1   
    15    9   10 1   
    16    9   20 1   
    17    9   28 1   
    18   10   11 1   
    19   10   19 1   
    20   11   12 ar  
    21   11   17 ar  
    22   12   13 ar  
    23   13   14 ar  
    24   13   29 1   
    25   14   15 ar  
    26   15   16 1   
    27   15   17 ar  
    28   16   30 1   
    29   16   31 1   
    30   17   18 1   
    31   18   19 2   
    32   19   32 1   
    33   20   21 1   
    34   20   33 1   
    35   20   34 1   
    36   21   22 1   
    37   21   35 1   
    38   22   36 1   
@<TRIPOS>SUBSTRUCTURE
     1 2AR         1 TEMP              0 ****  ****    0 ROOT
