@<TRIPOS>MOLECULE
2AR
   36    32     1     0     0
SMALL
bcc


@<TRIPOS>ATOM
      1 P           3.0560   -2.0480    4.4250 p3        1 2AR      2.513000
      2 OP1         4.3910   -1.9350    3.6270 o         1 2AR     -1.251500
      3 OP2         3.3020   -1.7380    5.8580 os        1 2AR     -1.227000
      4 OP3         2.5130   -3.4590    4.3020 o         1 2AR     -1.251500
      5 O5'         2.0490   -1.0680    3.8650 os        1 2AR     -0.742000
      6 C5'         1.4290   -1.3740    2.6440 c3        1 2AR      0.078000
      7 C4'         0.8890   -0.0360    1.9730 c3        1 2AR     -0.173000
      8 CX'         0.9230   -0.1280    0.6340 c3        1 2AR     -0.155000
      9 C1'        -0.3720    0.7240    0.0880 c3        1 2AR      0.035000
     10 N9         -0.7460    0.2710   -1.2070 n3        1 2AR     -0.163000
     11 C4         -0.7450    1.0410   -2.3280 c1        1 2AR      0.025000
     12 N3         -0.5160    2.3490   -2.5240 n1        1 2AR     -0.194000
     13 C2         -0.6530    2.8870   -3.7770 c1        1 2AR     -0.032000
     14 N1         -1.0180    2.1030   -4.8140 n1        1 2AR     -0.279000
     15 C6         -1.2460    0.7990   -4.6220 c1        1 2AR      0.164000
     16 N6         -1.7630    0.1680   -5.7380 n2        1 2AR     -0.323000
     17 C5         -1.1110    0.2560   -3.3720 c1        1 2AR     -0.203000
     18 N7         -1.3380   -1.0000   -2.8940 n1        1 2AR     -0.163000
     19 C8         -1.1130   -0.9880   -1.5610 c1        1 2AR      0.020000
     20 C2'        -1.3610    0.5000    0.9640 c3        1 2AR     -0.176000
     21 C3'        -0.6360    0.1810    2.3310 c3        1 2AR      0.034000
     22 O3'        -0.7670    1.1850    3.1540 oh        1 2AR     -0.396000
     23 H5'         2.1050   -1.8180    2.0230 h1        1 2AR      0.034500
     24 H5''        0.6580   -2.0050    2.8090 h1        1 2AR      0.034500
     25 H4'         1.4070    0.7120    2.2670 hc        1 2AR      0.067000
     26 HX'1        0.8540   -1.0130    0.3720 hc        1 2AR      0.073000
     27 HX'2        1.7750    0.2710    0.2810 hc        1 2AR      0.073000
     28 H1'        -0.1550    1.7040    0.0610 h1        1 2AR      0.088000
     29 H2         -0.4920    3.8110   -3.9170 ha        1 2AR      0.158000
     30 H61        -1.8560    0.6360   -6.5360 hn        1 2AR      0.200000
     31 H62        -2.0510   -0.6800   -5.6810 hn        1 2AR      0.200000
     32 H8         -1.1620   -1.7760   -0.9520 DU        1 2AR      0.316000
     33 H2''       -1.9000   -0.2600    0.6840 hc        1 2AR      0.080000
     34 H2'        -1.9620    1.3580    1.0640 hc        1 2AR      0.080000
     35 H3'        -0.9990   -0.6160    2.7180 h1        1 2AR      0.178000
     36 HO3'       -1.3900    0.9870    3.7770 ho        1 2AR      0.279000
@<TRIPOS>BOND
     1    1    2 1   
     2    1    4 1   
     3    1    5 1   
     4    5    6 1   
     5    6    7 1   
     6    6   23 1   
     7    6   24 1   
     8    7    8 1   
     9    7   21 1   
    10    7   25 1   
    11    8    9 1   
    12    8   26 1   
    13    8   27 1   
    14    9   10 1   
    15    9   20 1   
    16    9   28 1   
    17   10   11 1   
    18   10   19 1   
    19   11   17 1   
    20   12   13 1   
    21   13   29 1   
    22   14   15 1   
    23   15   17 1   
    24   16   30 1   
    25   16   31 1   
    26   18   19 1   
    27   20   21 1   
    28   20   33 1   
    29   20   34 1   
    30   21   22 1   
    31   21   35 1   
    32   22   36 1   
@<TRIPOS>SUBSTRUCTURE
     1 2AR         1 TEMP              0 ****  ****    0 ROOT
