@<TRIPOS>MOLECULE
2AS
   17    16     1     0     0
SMALL
bcc


@<TRIPOS>ATOM
      1 C          -2.0030    0.0610   -0.3720 c         1 2AS      0.911600
      2 O          -2.6680   -0.1460    0.6890 o         1 2AS     -0.878300
      3 CA         -0.5580    0.6370   -0.2820 c3        1 2AS      0.069500
      4 N          -0.4550    1.6980    0.7060 n3        1 2AS     -0.915800
      5 CB          0.4500   -0.5190   -0.0970 c3        1 2AS     -0.186700
      6 CG          1.9090   -0.0360   -0.1850 c         1 2AS      0.905600
      7 OD1         2.3770    0.7320    0.7150 o         1 2AS     -0.882800
      8 C4          0.2400   -1.2330    1.2190 c3        1 2AS     -0.076100
      9 OD2         2.6320   -0.4470   -1.1450 o         1 2AS     -0.882800
     10 OXT        -2.4780   -0.1800   -1.5220 o         1 2AS     -0.878300
     11 HA         -0.3270    1.1100   -1.2820 h1        1 2AS      0.040700
     12 H          -0.9630    1.4150    1.5260 hn        1 2AS      0.339800
     13 H2          0.5130    1.8060    0.9650 hn        1 2AS      0.339800
     14 HB2         0.2700   -1.2390   -0.9410 hc        1 2AS      0.044700
     15 H4         -0.8490   -1.4220    1.3910 hc        1 2AS      0.016367
     16 H4A         0.7860   -2.2080    1.2240 hc        1 2AS      0.016367
     17 H4B         0.6350   -0.6110    2.0590 hc        1 2AS      0.016367
@<TRIPOS>BOND
     1    1    2 1   
     2    1    3 1   
     3    1   10 1   
     4    3    4 1   
     5    3    5 1   
     6    3   11 1   
     7    4   12 1   
     8    4   13 1   
     9    5    6 1   
    10    5    8 1   
    11    5   14 1   
    12    6    7 1   
    13    6    9 1   
    14    8   15 1   
    15    8   16 1   
    16    8   17 1   
@<TRIPOS>SUBSTRUCTURE
     1 2AS         1 TEMP              0 ****  ****    0 ROOT
