@<TRIPOS>MOLECULE
2AT
   42    41     1     0     0
SMALL
bcc


@<TRIPOS>ATOM
      1 P           1.8480    3.3890    4.3470 p3        1 2AT      2.535000
      2 OP1         1.5890    4.6880    3.6210 o         1 2AT     -1.241500
      3 OP2         3.3290    3.0930    4.3360 os        1 2AT     -1.249000
      4 O5'         1.0710    2.2180    3.6260 os        1 2AT     -0.731000
      5 C5'         1.3640    1.9500    2.2740 c3        1 2AT      0.071000
      6 C4'         0.6580    0.7010    1.8480 c3        1 2AT     -0.044000
      7 O4'        -0.5320    0.9900    1.4040 os        1 2AT     -0.288000
      8 C1'        -0.8000   -0.0400    0.2780 c3        1 2AT      0.155000
      9 N1         -1.2320    0.5560   -0.7800 n         1 2AT     -0.263000
     10 C6         -2.2160   -0.0650   -1.5910 c2        1 2AT      0.050000
     11 C2         -0.7220    1.8800   -1.1320 c2        1 2AT      0.388000
     12 O2          0.1970    2.3640   -0.5010 o         1 2AT     -0.430000
     13 N3         -1.3250    2.6280   -2.2340 n         1 2AT     -0.379000
     14 C4         -2.3420    2.0310   -3.0250 c2        1 2AT      0.355000
     15 O4         -2.8730    2.6670   -3.9140 o         1 2AT     -0.411000
     16 C5         -2.8020    0.6680   -2.7210 c2        1 2AT     -0.266000
     17 C5M        -3.9560    0.0690   -3.4940 c3        1 2AT     -0.167000
     18 C2'         0.5780   -0.7270   -0.0090 c3        1 2AT     -0.005000
     19 O2'         0.5860   -2.1030    0.5300 os        1 2AT     -0.285000
     20 CB'         1.0190   -3.0750   -0.3940 c3        1 2AT      0.005000
     21 CC'         1.1280   -4.4150    0.3000 c2        1 2AT     -0.143000
     22 CD'         1.4470   -5.5160   -0.4100 c1        1 2AT     -0.273000
     23 C3'         1.4520    0.0040    0.6110 c3        1 2AT     -0.028000
     24 O3'         2.5300   -0.8280    1.1160 oh        1 2AT     -0.382000
     25 OP3         1.3690    3.5070    5.7740 o         1 2AT     -1.241500
     26 H5'         2.3310    1.8310    2.1670 h1        1 2AT      0.040000
     27 H5''        1.0640    2.7000    1.7200 h1        1 2AT      0.040000
     28 H4'         0.5930    0.0780    2.5990 h1        1 2AT      0.092000
     29 H1'        -1.4500   -0.7050    0.5790 h2        1 2AT      0.149000
     30 H6         -2.5180   -0.9700   -1.3860 h4        1 2AT      0.299000
     31 HN3        -1.0050    3.4540   -2.4520 hn        1 2AT      0.234000
     32 H71        -3.9280   -0.9070   -3.4190 hc        1 2AT      0.098000
     33 H72        -3.8850    0.3260   -4.4380 hc        1 2AT      0.098000
     34 H73        -4.8020    0.4010   -3.1280 hc        1 2AT      0.098000
     35 H2'         0.7600   -0.7350   -0.9700 h1        1 2AT      0.094000
     36 HB'1        0.3730   -3.1380   -1.1270 h1        1 2AT      0.112500
     37 HB'2        1.8940   -2.8190   -0.7500 h1        1 2AT      0.112500
     38 HC'         0.9680   -4.4830    1.2600 ha        1 2AT      0.126000
     39 HD'1        1.6070   -5.4490   -1.3720 DU        1 2AT      0.106000
     40 HD'2        1.5180   -6.3830    0.0380 ha        1 2AT      0.089000
     41 H3'         1.8060    0.6890    0.0090 h1        1 2AT      0.194000
     42 HO3'        3.3080   -0.5230    0.8100 ho        1 2AT      0.286000
@<TRIPOS>BOND
     1    1    2 1   
     2    1    4 1   
     3    1   25 1   
     4    4    5 1   
     5    5    6 1   
     6    5   26 1   
     7    5   27 1   
     8    6    7 1   
     9    6   23 1   
    10    6   28 1   
    11    7    8 1   
    12    8    9 1   
    13    8   18 1   
    14    8   29 1   
    15    9   10 1   
    16    9   11 1   
    17   10   16 1   
    18   10   30 1   
    19   11   12 1   
    20   11   13 1   
    21   13   14 1   
    22   13   31 1   
    23   14   15 1   
    24   14   16 1   
    25   16   17 1   
    26   17   32 1   
    27   17   33 1   
    28   17   34 1   
    29   18   19 1   
    30   18   23 1   
    31   18   35 1   
    32   19   20 1   
    33   20   21 1   
    34   20   36 1   
    35   20   37 1   
    36   21   22 1   
    37   21   38 1   
    38   22   40 1   
    39   23   24 1   
    40   23   41 1   
    41   24   42 1   
@<TRIPOS>SUBSTRUCTURE
     1 2AT         1 TEMP              0 ****  ****    0 ROOT
