@<TRIPOS>MOLECULE
2AT
   42    43     1     0     0
SMALL
bcc


@<TRIPOS>ATOM
      1 P           3.9910   -0.8420   -3.3990 p5        1 2AT      1.428800
      2 OP1         5.3900   -1.2660   -3.6280 o         1 2AT     -0.843000
      3 OP2         3.5900   -0.1400   -4.8220 oh        1 2AT     -0.780400
      4 O5'         4.0320    0.5230   -2.4760 os        1 2AT     -0.585200
      5 C5'         2.8150    1.0200   -2.0080 c3        1 2AT      0.182400
      6 C4'         2.7600    0.9170   -0.4750 c3        1 2AT      0.090100
      7 O4'         2.1900    2.1150    0.0720 os        1 2AT     -0.434600
      8 C1'         0.9320    1.8550    0.7340 c3        1 2AT      0.331500
      9 N1         -0.1120    2.7510    0.2780 n         1 2AT     -0.319400
     10 C6         -0.9700    2.3760   -0.7270 c1        1 2AT     -0.082900
     11 C2         -0.1820    4.0300    0.8930 c         1 2AT      0.722100
     12 O2          0.5480    4.3920    1.8570 o         1 2AT     -0.709100
     13 N3         -1.1570    4.9210    0.4220 n         1 2AT     -0.595500
     14 C4         -2.0660    4.5900   -0.6150 c         1 2AT      0.676300
     15 O4         -2.8850    5.4900   -0.9350 o         1 2AT     -0.723100
     16 C5         -1.9430    3.2600   -1.1670 ce        1 2AT     -0.498500
     17 C5M        -2.8850    2.8680   -2.2290 c3        1 2AT      0.044100
     18 C2'         0.6110    0.3450    0.5170 c3        1 2AT      0.072100
     19 O2'         0.2490   -0.1610    1.8030 os        1 2AT     -0.428600
     20 CB'        -0.3240   -1.4680    1.7230 c3        1 2AT      0.148600
     21 CC'        -0.8010   -1.8250    3.0870 c2        1 2AT     -0.128200
     22 CD'        -1.2970   -3.0210    3.3940 c2        1 2AT     -0.269000
     23 C3'         1.9320   -0.2800    0.0220 c3        1 2AT      0.077100
     24 O3'         2.5930   -0.9790    1.0620 oh        1 2AT     -0.599800
     25 OP3         2.8730   -1.6810   -2.9210 o         1 2AT     -0.843000
     26 H5'         2.7510    2.1110   -2.2850 h1        1 2AT      0.046200
     27 H5''        1.9580    0.4620   -2.4750 h1        1 2AT      0.046200
     28 H4'         3.8090    0.8710   -0.0680 h1        1 2AT      0.070700
     29 H1'         1.1250    2.0690    1.8300 h2        1 2AT      0.075700
     30 H6          4.3610    0.1270   -5.3070 ho        1 2AT      0.418000
     31 HN3        -1.1920    5.8210    0.8390 hn        1 2AT      0.300500
     32 H71        -2.5840    1.8890   -2.6760 hc        1 2AT      0.000700
     33 H72        -2.9150    3.6400   -3.0390 hc        1 2AT      0.000700
     34 H73        -3.9260    2.7680   -1.8260 hc        1 2AT      0.000700
     35 H2'        -0.2180    0.2020   -0.2290 h1        1 2AT      0.126700
     36 HB'1       -1.1810   -1.4630    0.9960 h1        1 2AT      0.055200
     37 HB'2        0.4650   -2.1850    1.3620 h1        1 2AT      0.055200
     38 HC'        -0.7180   -1.0170    3.8340 ha        1 2AT      0.134000
     39 HD'1       -1.6510   -3.2660    4.4020 ha        1 2AT      0.099000
     40 HD'2       -1.3820   -3.8330    2.6610 ha        1 2AT      0.099000
     41 H3'         1.7840   -1.0490   -0.7890 h1        1 2AT      0.144700
     42 HO3'        2.6120   -0.3890    1.8260 ho        1 2AT      0.391000
@<TRIPOS>BOND
     1    1    2 1   
     2    1    3 1   
     3    1    4 1   
     4    1   25 1   
     5    3   30 1   
     6    4    5 1   
     7    5    6 1   
     8    5   26 1   
     9    5   27 1   
    10    6    7 1   
    11    6   23 1   
    12    6   28 1   
    13    7    8 1   
    14    8    9 1   
    15    8   18 1   
    16    8   29 1   
    17    9   10 2   
    18    9   11 1   
    19   10   16 2   
    20   11   12 2   
    21   11   13 1   
    22   13   14 1   
    23   13   31 1   
    24   14   15 2   
    25   14   16 1   
    26   16   17 1   
    27   17   32 1   
    28   17   33 1   
    29   17   34 1   
    30   18   19 1   
    31   18   23 1   
    32   18   35 1   
    33   19   20 1   
    34   20   21 1   
    35   20   36 1   
    36   20   37 1   
    37   21   22 2   
    38   21   38 1   
    39   22   39 1   
    40   22   40 1   
    41   23   24 1   
    42   23   41 1   
    43   24   42 1   
@<TRIPOS>SUBSTRUCTURE
     1 2AT         1 TEMP              0 ****  ****    0 ROOT
