@<TRIPOS>MOLECULE
2AU
   33    34     1     0     0
SMALL
bcc


@<TRIPOS>ATOM
      1 OP3        -2.3150   -3.2470    4.1250 o         1 2AU     -0.848500
      2 P          -1.2130   -2.4830    3.5030 p5        1 2AU      1.438800
      3 OP1         0.1150   -3.1090    4.2240 oh        1 2AU     -0.785400
      4 O5'        -1.1730   -0.9790    4.1740 os        1 2AU     -0.585200
      5 C5'        -0.0630   -0.1780    3.8930 c3        1 2AU      0.194400
      6 C4'        -0.3620    0.8340    2.7760 c3        1 2AU      0.084100
      7 O4'         0.1110    2.1200    3.1930 os        1 2AU     -0.428600
      8 C3'         0.3020    0.4770    1.4260 c3        1 2AU      0.136100
      9 O3'        -0.6940    0.2000    0.4590 oh        1 2AU     -0.641800
     10 C2'         1.1440    1.7220    1.0440 c3        1 2AU      0.129500
     11 C1'         0.6200    2.8280    2.0360 c3        1 2AU      0.290500
     12 N1          1.6250    3.7960    2.4200 n         1 2AU     -0.317400
     13 C2          1.1810    5.1170    2.7080 c         1 2AU      0.716100
     14 O2          0.0070    5.5290    2.4940 o         1 2AU     -0.713100
     15 N3          2.1240    6.0310    3.2040 n         1 2AU     -0.596500
     16 C4          3.4790    5.6810    3.4340 c         1 2AU      0.670300
     17 O4          4.2180    6.5930    3.8920 o         1 2AU     -0.735100
     18 C5          3.8440    4.3310    3.1030 ce        1 2AU     -0.553300
     19 C6          2.9300    3.4100    2.6270 c1        1 2AU     -0.082900
     20 N2'         1.1350    2.1020   -0.3470 n3        1 2AU     -0.890800
     21 H5'         0.1840    0.3920    4.8330 h1        1 2AU      0.037200
     22 H5''        0.8100   -0.8300    3.6140 h1        1 2AU      0.037200
     23 H4'        -1.4760    0.9210    2.6340 h1        1 2AU      0.059700
     24 H3'         0.9780   -0.4140    1.5300 h1        1 2AU      0.065700
     25 HO3'       -0.9920   -0.7080    0.6440 ho        1 2AU      0.458000
     26 H2'         2.2230    1.5040    1.3180 h1        1 2AU      0.118700
     27 H1'        -0.2610    3.3840    1.5930 h2        1 2AU      0.055700
     28 H3          1.8040    6.9450    3.4170 hn        1 2AU      0.297500
     29 H5          4.8880    4.0450    3.2510 ha        1 2AU      0.128000
     30 H6         -0.1100   -3.5970    5.0080 ho        1 2AU      0.422000
     31 HA1         1.4430    3.0520   -0.4320 hn        1 2AU      0.341800
     32 H2''        0.2080    2.0270   -0.7220 hn        1 2AU      0.341800
     33 OP2        -0.9630   -2.3050    2.0560 o         1 2AU     -0.848500
@<TRIPOS>BOND
     1    1    2 1   
     2    2    3 1   
     3    2    4 1   
     4    2   33 1   
     5    3   30 1   
     6    4    5 1   
     7    5    6 1   
     8    5   21 1   
     9    5   22 1   
    10    6    7 1   
    11    6    8 1   
    12    6   23 1   
    13    7   11 1   
    14    8    9 1   
    15    8   10 1   
    16    8   24 1   
    17    9   25 1   
    18   10   11 1   
    19   10   20 1   
    20   10   26 1   
    21   11   12 1   
    22   11   27 1   
    23   12   13 1   
    24   12   19 2   
    25   13   14 2   
    26   13   15 1   
    27   15   16 1   
    28   15   28 1   
    29   16   17 2   
    30   16   18 1   
    31   18   19 2   
    32   18   29 1   
    33   20   31 1   
    34   20   32 1   
@<TRIPOS>SUBSTRUCTURE
     1 2AU         1 TEMP              0 ****  ****    0 ROOT
