@<TRIPOS>MOLECULE
2AU
   33    33     1     0     0
SMALL
bcc


@<TRIPOS>ATOM
      1 OP3        -1.3550    5.2110    0.5670 o         1 2AU     -0.937500
      2 P          -2.4810    4.2750    0.1620 p4        1 2AU      1.710200
      3 OP1        -3.3760    4.9710   -0.8770 os        1 2AU     -1.215000
      4 O5'        -1.8520    2.9200   -0.4810 os        1 2AU     -0.568200
      5 C5'        -1.6420    1.7890    0.3770 c3        1 2AU      0.225400
      6 C4'        -1.3670    0.5770   -0.4510 c3        1 2AU      0.062100
      7 O4'        -0.1610    0.6450   -0.9650 os        1 2AU     -0.438600
      8 C3'        -1.3910   -0.7730    0.5000 c3        1 2AU      0.073100
      9 O3'        -2.7650   -1.2400    0.6730 oh        1 2AU     -0.670800
     10 C2'        -0.7210   -1.6310   -0.1000 c3        1 2AU      0.114500
     11 C1'         0.3260   -0.7860   -1.0030 c3        1 2AU      0.299500
     12 N1          1.5080   -0.8690   -0.5110 n         1 2AU     -0.369000
     13 C2          2.2850    0.3510   -0.2610 c         1 2AU      0.797500
     14 O2          1.8770    1.4440   -0.6990 o         1 2AU     -0.703500
     15 N3          3.6330    0.2590    0.3440 n         1 2AU     -0.598500
     16 C4          4.2120   -1.0160    0.6050 c         1 2AU      0.716700
     17 O4          5.3500   -1.0930    1.0970 o         1 2AU     -0.694500
     18 C5          3.4450   -2.2480    0.3230 cc        1 2AU     -0.372200
     19 C6          2.0850   -2.1530   -0.2490 cd        1 2AU      0.074600
     20 N2'        -1.6020   -2.4640   -0.9720 n3        1 2AU     -0.888800
     21 H5'        -0.8660    1.9650    0.9740 h1        1 2AU     -0.001300
     22 H5''       -2.4340    1.6410    0.9140 h1        1 2AU     -0.001300
     23 H4'        -2.0620    0.4950   -1.1950 h1        1 2AU      0.046700
     24 H3'        -0.9760   -0.5750    1.3970 h1        1 2AU      0.155700
     25 HO3'       -2.9500   -1.2810    1.5110 ho        1 2AU      0.496000
     26 H2'        -0.2330   -2.2050    0.5500 h1        1 2AU      0.073700
     27 H1'         0.3210   -1.1130   -1.9110 h2        1 2AU      0.101700
     28 H3          4.0960    0.9870    0.4930 hn        1 2AU      0.320500
     29 H5          3.8380   -3.1180    0.5010 ha        1 2AU      0.189000
     30 H6          1.5620   -2.9870   -0.4410 h4        1 2AU      0.306000
     31 HA1        -1.7980   -3.2520   -0.5440 hn        1 2AU      0.341300
     32 H2''       -1.1830   -2.6390   -1.7350 hn        1 2AU      0.341300
     33 OP2        -3.3240    3.9130    1.4080 o         1 2AU     -0.986300
@<TRIPOS>BOND
     1    1    2 1   
     2    2    4 1   
     3    2   33 2   
     4    4    5 1   
     5    5    6 1   
     6    5   21 1   
     7    5   22 1   
     8    6    7 1   
     9    6    8 1   
    10    6   23 1   
    11    7   11 1   
    12    8    9 1   
    13    8   10 1   
    14    8   24 1   
    15    9   25 1   
    16   10   11 1   
    17   10   20 1   
    18   10   26 1   
    19   11   12 1   
    20   11   27 1   
    21   12   13 1   
    22   12   19 1   
    23   13   14 2   
    24   13   15 1   
    25   15   16 1   
    26   15   28 1   
    27   16   17 2   
    28   16   18 1   
    29   18   19 2   
    30   18   29 1   
    31   19   30 1   
    32   20   31 1   
    33   20   32 1   
@<TRIPOS>SUBSTRUCTURE
     1 2AU         1 TEMP              0 ****  ****    0 ROOT
