@<TRIPOS>MOLECULE
2AW
   47    47     1     0     0
SMALL
bcc


@<TRIPOS>ATOM
      1 OAC         7.7290    2.1650   -0.4130 o         1 2AW     -0.640000
      2 CAT         7.0980    1.2370   -0.9550 c         1 2AW      0.696100
      3 OAH         7.7540    0.1690   -1.3500 os        1 2AW     -0.557800
      4 CAO         5.5940    1.2660   -1.1150 c3        1 2AW     -0.158400
      5 CAM         5.0350    0.1630   -1.9870 c3        1 2AW     -0.073400
      6 CAN         5.1460    0.4920   -3.4620 c3        1 2AW     -0.096400
      7 CAP         4.8010   -0.6890   -4.3470 c3        1 2AW     -0.123400
      8 CAV         5.8750   -1.7410   -4.3520 c         1 2AW      0.634100
      9 OAE         5.7690   -2.9160   -3.9890 o         1 2AW     -0.565000
     10 OAS         7.0580   -1.2930   -4.8530 os        1 2AW     -0.448900
     11 CG1         8.2180   -2.1560   -4.8030 c3        1 2AW      0.157400
     12 CB          9.3860   -1.3420   -4.2550 c3        1 2AW     -0.127200
     13 CG2        10.3930   -2.2720   -3.6270 c3        1 2AW     -0.059100
     14 SAX         8.6460   -0.3100   -2.8620 s6        1 2AW      0.541400
     15 OAF         8.4260    0.9710   -3.5610 o         1 2AW     -0.610800
     16 OAG        10.1410    0.1930   -2.1620 oh        1 2AW     -0.673700
     17 CA          9.9990   -0.5510   -5.4100 c3        1 2AW      0.042500
     18 C          10.8210   -1.4540   -6.4060 c         1 2AW      0.913600
     19 OXT        10.1570   -2.1540   -7.2040 o         1 2AW     -0.812300
     20 O          12.0820   -1.3730   -6.3560 o         1 2AW     -0.812300
     21 N          10.8860    0.5480   -4.8790 ny        1 2AW     -0.742000
     22 CAL        11.3180    1.4650   -5.9570 c3        1 2AW      0.106800
     23 CAK        12.2370    2.5710   -5.4570 c3        1 2AW     -0.230400
     24 CAJ        12.7340    3.3950   -6.6050 c         1 2AW      0.575900
     25 OAB        13.2290    4.5120   -6.4530 o         1 2AW     -0.531100
     26 H2          5.3090    2.2690   -1.5270 hc        1 2AW      0.050700
     27 H3          5.1550    1.1840   -0.0850 hc        1 2AW      0.050700
     28 H4          5.5880   -0.7920   -1.7750 hc        1 2AW      0.042200
     29 H5          3.9570   -0.0060   -1.7250 hc        1 2AW      0.042200
     30 H6          6.1930    0.8410   -3.6900 hc        1 2AW      0.069700
     31 H7          4.4490    1.3360   -3.7080 hc        1 2AW      0.069700
     32 H8          4.6660   -0.3350   -5.4030 hc        1 2AW      0.063700
     33 H9          3.8490   -1.1730   -4.0060 hc        1 2AW      0.063700
     34 H10         8.0130   -3.0480   -4.1560 h1        1 2AW      0.083200
     35 H11         8.4010   -2.4810   -5.8650 h1        1 2AW      0.083200
     36 H12         9.9040   -2.9120   -2.8520 hc        1 2AW      0.035033
     37 H13        10.8580   -2.9370   -4.3980 hc        1 2AW      0.035033
     38 H14        11.2080   -1.6900   -3.1300 hc        1 2AW      0.035033
     39 H17         9.1620   -0.0530   -5.9780 hx        1 2AW      0.091700
     40 H19        11.8500    0.8360   -6.7370 hx        1 2AW      0.108700
     41 H20        11.7060    3.2290   -4.7180 hc        1 2AW      0.089700
     42 H21        13.1330    2.1350   -4.9340 hc        1 2AW      0.089700
     43 H22        12.6430    2.9300   -7.6130 h4        1 2AW      0.006200
     44 H23        11.7100    0.0840   -4.4760 hn        1 2AW      0.461300
     45 H24        10.3950    1.9150   -6.4190 hx        1 2AW      0.108700
     46 H15         9.9530    0.7400   -1.3980 ho        1 2AW      0.453000
     47 H25        10.3930    1.0760   -4.1380 hn        1 2AW      0.461300
@<TRIPOS>BOND
     1    1    2 2   
     2    2    3 1   
     3    2    4 1   
     4    3   14 1   
     5    4    5 1   
     6    4   26 1   
     7    4   27 1   
     8    5    6 1   
     9    5   28 1   
    10    5   29 1   
    11    6    7 1   
    12    6   30 1   
    13    6   31 1   
    14    7    8 1   
    15    7   32 1   
    16    7   33 1   
    17    8    9 2   
    18    8   10 1   
    19   10   11 1   
    20   11   12 1   
    21   11   34 1   
    22   11   35 1   
    23   12   13 1   
    24   12   14 1   
    25   12   17 1   
    26   13   36 1   
    27   13   37 1   
    28   13   38 1   
    29   14   15 2   
    30   14   16 1   
    31   16   46 1   
    32   17   18 1   
    33   17   21 1   
    34   17   39 1   
    35   18   19 1   
    36   18   20 1   
    37   21   22 1   
    38   21   44 1   
    39   21   47 1   
    40   22   23 1   
    41   22   40 1   
    42   22   45 1   
    43   23   24 1   
    44   23   41 1   
    45   23   42 1   
    46   24   25 2   
    47   24   43 1   
@<TRIPOS>SUBSTRUCTURE
     1 2AW         1 TEMP              0 ****  ****    0 ROOT
