@<TRIPOS>MOLECULE
2AW
   47    47     1     0     0
SMALL
bcc


@<TRIPOS>ATOM
      1 OAC         7.5580    2.5220   -0.6940 o         1 2AW     -0.640000
      2 CAT         6.9950    1.4960   -1.1210 c         1 2AW      0.696100
      3 OAH         7.7240    0.4340   -1.3820 os        1 2AW     -0.557800
      4 CAO         5.4940    1.4050   -1.2860 c3        1 2AW     -0.158400
      5 CAM         5.0180    0.1690   -2.0180 c3        1 2AW     -0.073400
      6 CAN         5.1210    0.3240   -3.5220 c3        1 2AW     -0.096400
      7 CAP         4.8640   -0.9760   -4.2580 c3        1 2AW     -0.123400
      8 CAV         6.0050   -1.9460   -4.1330 c         1 2AW      0.634100
      9 OAE         5.9730   -3.0730   -3.6300 o         1 2AW     -0.565000
     10 OAS         7.1610   -1.4840   -4.6830 os        1 2AW     -0.448900
     11 CG1         8.3750   -2.2550   -4.5260 c3        1 2AW      0.157400
     12 CB          9.4810   -1.3040   -4.0790 c3        1 2AW     -0.127200
     13 CG2        10.5410   -2.0830   -3.3410 c3        1 2AW     -0.059100
     14 SAX         8.6610   -0.1640   -2.8230 s6        1 2AW      0.541400
     15 OAF         8.3630    1.0060   -3.6720 o         1 2AW     -0.610800
     16 OAG        10.1120    0.5190   -2.1870 oh        1 2AW     -0.673700
     17 CA         10.0510   -0.6200   -5.3200 c3        1 2AW      0.042500
     18 C          10.9410   -1.5800   -6.1980 c         1 2AW      0.913600
     19 OXT        10.3320   -2.4140   -6.9070 o         1 2AW     -0.812300
     20 O          12.1940   -1.4090   -6.1570 o         1 2AW     -0.812300
     21 N          10.8590    0.5920   -4.9250 n4        1 2AW     -0.742000
     22 CAL        11.2400    1.3990   -6.1060 c3        1 2AW      0.106800
     23 CAK        12.0780    2.6160   -5.7420 c3        1 2AW     -0.230400
     24 CAJ        12.5300    3.3280   -6.9810 c         1 2AW      0.575900
     25 OAB        12.9500    4.4850   -6.9640 o         1 2AW     -0.531100
     26 H2          5.0510    1.4190   -0.2540 hc        1 2AW      0.050700
     27 H3          5.1480    2.3300   -1.8160 hc        1 2AW      0.050700
     28 H4          3.9510   -0.0380   -1.7390 hc        1 2AW      0.042200
     29 H5          5.6300   -0.7140   -1.6910 hc        1 2AW      0.042200
     30 H6          6.1450    0.7130   -3.7890 hc        1 2AW      0.069700
     31 H7          4.3720    1.0840   -3.8700 hc        1 2AW      0.069700
     32 H8          3.9420   -1.4770   -3.8620 hc        1 2AW      0.063700
     33 H9          4.7160   -0.7610   -5.3490 hc        1 2AW      0.063700
     34 H10         8.2230   -3.0730   -3.7760 h1        1 2AW      0.083200
     35 H11         8.5890   -2.6930   -5.5400 h1        1 2AW      0.083200
     36 H12        11.0560   -2.8030   -4.0260 hc        1 2AW      0.035033
     37 H13        11.3110   -1.3910   -2.9170 hc        1 2AW      0.035033
     38 H14        10.0880   -2.6550   -2.4950 hc        1 2AW      0.035033
     39 H17         9.1880   -0.2510   -5.9460 hx        1 2AW      0.091700
     40 H19        11.8190    0.7180   -6.8030 hx        1 2AW      0.108700
     41 H20        12.9960    2.3070   -5.1700 hc        1 2AW      0.089700
     42 H21        11.4980    3.3220   -5.0880 hc        1 2AW      0.089700
     43 H22        12.4770    2.7400   -7.9250 h4        1 2AW      0.006200
     44 H23        10.3250    1.1720   -4.2540 hn        1 2AW      0.461300
     45 H24        10.2930    1.7270   -6.6200 hx        1 2AW      0.108700
     46 H15         9.8800    1.1410   -1.4950 ho        1 2AW      0.453000
     47 H25        11.7080    0.2360   -4.4680 hn        1 2AW      0.461300
@<TRIPOS>BOND
     1    1    2 2   
     2    2    3 1   
     3    2    4 1   
     4    3   14 1   
     5    4    5 1   
     6    4   26 1   
     7    4   27 1   
     8    5    6 1   
     9    5   28 1   
    10    5   29 1   
    11    6    7 1   
    12    6   30 1   
    13    6   31 1   
    14    7    8 1   
    15    7   32 1   
    16    7   33 1   
    17    8    9 2   
    18    8   10 1   
    19   10   11 1   
    20   11   12 1   
    21   11   34 1   
    22   11   35 1   
    23   12   13 1   
    24   12   14 1   
    25   12   17 1   
    26   13   36 1   
    27   13   37 1   
    28   13   38 1   
    29   14   15 2   
    30   14   16 1   
    31   16   46 1   
    32   17   18 1   
    33   17   21 1   
    34   17   39 1   
    35   18   19 1   
    36   18   20 1   
    37   21   22 1   
    38   21   44 1   
    39   21   47 1   
    40   22   23 1   
    41   22   40 1   
    42   22   45 1   
    43   23   24 1   
    44   23   41 1   
    45   23   42 1   
    46   24   25 2   
    47   24   43 1   
@<TRIPOS>SUBSTRUCTURE
     1 2AW         1 TEMP              0 ****  ****    0 ROOT
