@<TRIPOS>MOLECULE
2AW
   47    47     1     0     0
SMALL
bcc


@<TRIPOS>ATOM
      1 OAC         7.6380    2.1580   -1.0310 o         1 2AW     -0.670000
      2 CAT         6.8000    1.8670   -1.9140 c         1 2AW      0.673100
      3 OAH         7.1860    1.8010   -3.1590 os        1 2AW     -0.532800
      4 CAO         5.3460    1.5930   -1.5990 c3        1 2AW     -0.158400
      5 CAM         5.0180    0.1210   -1.7560 c3        1 2AW     -0.068400
      6 CAN         4.7950   -0.2510   -3.2080 c3        1 2AW     -0.086400
      7 CAP         4.8940   -1.7430   -3.4460 c3        1 2AW     -0.127400
      8 CAV         6.3130   -2.2090   -3.6140 c         1 2AW      0.632100
      9 OAE         6.8990   -3.0630   -2.9440 o         1 2AW     -0.552000
     10 OAS         6.9430   -1.6120   -4.6620 os        1 2AW     -0.458900
     11 CG1         8.2990   -1.9770   -4.9870 c3        1 2AW      0.179400
     12 CB          9.3080   -0.9870   -4.4090 c3        1 2AW     -0.118200
     13 CG2         9.8980   -1.5610   -3.1440 c3        1 2AW     -0.077100
     14 SAX         8.3720    0.6080   -3.9880 s6        1 2AW      0.528400
     15 OAF         8.6620    1.4360   -5.1620 o         1 2AW     -0.593800
     16 OAG         9.6330    1.2610   -3.0170 oh        1 2AW     -0.692700
     17 CA         10.3740   -0.7690   -5.4840 c3        1 2AW      0.028500
     18 C          11.1020   -2.1020   -5.9220 c         1 2AW      0.916600
     19 OXT        10.4230   -2.9140   -6.5880 o         1 2AW     -0.803300
     20 O          12.3220   -2.2170   -5.6060 o         1 2AW     -0.803300
     21 N          11.4110    0.2290   -5.0350 n4        1 2AW     -0.753000
     22 CAL        11.5450    1.3700   -5.9690 c3        1 2AW      0.099800
     23 CAK        12.5550    2.4030   -5.4870 c3        1 2AW     -0.229400
     24 CAJ        12.5070    3.6180   -6.3640 c         1 2AW      0.575900
     25 OAB        13.5090    4.2840   -6.6280 o         1 2AW     -0.535100
     26 H2          4.7060    2.2070   -2.2820 hc        1 2AW      0.050700
     27 H3          5.1460    1.9120   -0.5430 hc        1 2AW      0.050700
     28 H4          4.0970   -0.1200   -1.1640 hc        1 2AW      0.038700
     29 H5          5.8540   -0.4960   -1.3310 hc        1 2AW      0.038700
     30 H6          5.5510    0.2860   -3.8500 hc        1 2AW      0.063700
     31 H7          3.7790    0.1010   -3.5270 hc        1 2AW      0.063700
     32 H8          4.3400   -2.0110   -4.3860 hc        1 2AW      0.064200
     33 H9          4.4400   -2.3120   -2.5930 hc        1 2AW      0.064200
     34 H10         8.2960   -1.9550   -6.1140 h1        1 2AW      0.084200
     35 H11         8.5160   -3.0210   -4.6420 h1        1 2AW      0.084200
     36 H12        10.6180   -2.3830   -3.3870 hc        1 2AW      0.039700
     37 H13         9.0830   -1.9860   -2.5050 hc        1 2AW      0.039700
     38 H14        10.4380   -0.7850   -2.5470 hc        1 2AW      0.039700
     39 H17         9.8630   -0.3480   -6.3990 hx        1 2AW      0.091700
     40 H19        11.8570    0.9630   -6.9710 hx        1 2AW      0.116700
     41 H20        12.3040    2.7390   -4.4420 hc        1 2AW      0.085200
     42 H21        13.5920    1.9750   -5.4700 hc        1 2AW      0.085200
     43 H22        11.4990    3.8940   -6.7480 h4        1 2AW      0.015200
     44 H23        11.1750    0.5850   -4.0990 hn        1 2AW      0.461300
     45 H24        10.5200    1.8500   -6.0680 hx        1 2AW      0.116700
     46 H15         9.2910    1.8900   -2.3780 ho        1 2AW      0.473000
     47 H25        12.3090   -0.2920   -4.9770 hn        1 2AW      0.461300
@<TRIPOS>BOND
     1    1    2 2   
     2    2    3 1   
     3    2    4 1   
     4    3   14 1   
     5    4    5 1   
     6    4   26 1   
     7    4   27 1   
     8    5    6 1   
     9    5   28 1   
    10    5   29 1   
    11    6    7 1   
    12    6   30 1   
    13    6   31 1   
    14    7    8 1   
    15    7   32 1   
    16    7   33 1   
    17    8    9 2   
    18    8   10 1   
    19   10   11 1   
    20   11   12 1   
    21   11   34 1   
    22   11   35 1   
    23   12   13 1   
    24   12   14 1   
    25   12   17 1   
    26   13   36 1   
    27   13   37 1   
    28   13   38 1   
    29   14   15 2   
    30   14   16 1   
    31   16   46 1   
    32   17   18 1   
    33   17   21 1   
    34   17   39 1   
    35   18   19 1   
    36   18   20 1   
    37   21   22 1   
    38   21   44 1   
    39   21   47 1   
    40   22   23 1   
    41   22   40 1   
    42   22   45 1   
    43   23   24 1   
    44   23   41 1   
    45   23   42 1   
    46   24   25 2   
    47   24   43 1   
@<TRIPOS>SUBSTRUCTURE
     1 2AW         1 TEMP              0 ****  ****    0 ROOT
