@<TRIPOS>MOLECULE
2AX
   35    36     1     0     0
SMALL
bcc


@<TRIPOS>ATOM
      1 C4          0.7770   -0.6320    0.7870 c2        1 2AX      0.350000
      2 C5          2.2760   -0.2460    0.6660 c3        1 2AX     -0.169000
      3 C6          2.4290    1.2120    1.0400 c1        1 2AX     -0.019000
      4 C7          4.3390    1.3970   -0.3810 c2        1 2AX     -0.135000
      5 C8          3.9120    0.2770   -0.9620 c1        1 2AX     -0.200000
      6 C10         2.0820   -1.2810   -1.6820 c2        1 2AX      0.289000
      7 C13        -1.4950   -1.9430   -2.8600 c3        1 2AX     -0.129000
      8 C14        -2.2880   -3.5480   -5.9950 c1        1 2AX      0.418000
      9 O3         -1.9450   -2.5680   -6.5770 o         1 2AX     -0.209500
     10 C1         -2.6270   -2.3680   -1.9340 c3        1 2AX     -0.088000
     11 C          -2.8520   -3.8660   -1.9960 c3        1 2AX     -0.209000
     12 C12        -0.1020   -2.2430   -2.3470 c3        1 2AX     -0.152000
     13 C11         0.5910   -1.0270   -1.7150 c3        1 2AX     -0.005000
     14 C3          0.0180   -0.6930   -0.3930 c2        1 2AX     -0.692000
     15 S          -1.6060   -0.3550   -0.3490 ss        1 2AX      0.205000
     16 C2         -2.4140   -1.9230   -0.5000 c3        1 2AX     -0.322000
     17 O1          2.6540   -2.0920   -2.4280 o         1 2AX     -0.336000
     18 C9          2.8330   -0.4760   -0.7150 c2        1 2AX     -0.078000
     19 O           0.3920   -0.8190    1.9630 o         1 2AX     -0.425000
     20 N           3.3270    1.9920    0.4550 n7        1 2AX     -0.194000
     21 H1          2.8240   -0.8310    1.4600 hc        1 2AX      0.145000
     22 H2          3.3490    2.9670    0.6320 hn        1 2AX      0.234000
     23 H3          5.3370    1.8430   -0.3900 h4        1 2AX      0.149000
     24 H4         -1.5930   -0.8410   -3.0520 hc        1 2AX      0.059000
     25 H6         -3.5640   -1.8670   -2.3180 hc        1 2AX      0.060000
     26 H7         -3.0930   -4.1870   -3.0400 hc        1 2AX      0.062667
     27 H8         -1.9370   -4.4130   -1.6630 hc        1 2AX      0.062667
     28 H9         -3.6980   -4.1570   -1.3290 hc        1 2AX      0.062667
     29 H10        -1.6400   -2.4650   -3.8480 hc        1 2AX      0.059000
     30 H11        -0.1350   -3.0700   -1.5920 hc        1 2AX      0.079000
     31 H12         0.5260   -2.6020   -3.2070 hc        1 2AX      0.079000
     32 H13         0.4650   -0.1500   -2.4220 hc        1 2AX      0.080000
     33 H14        -1.8260   -2.6960    0.0520 h1        1 2AX      0.088500
     34 H15        -3.4050   -1.8190    0.0050 h1        1 2AX      0.088500
     35 O2         -2.6450   -4.5410   -5.4460 o         1 2AX     -0.209500
@<TRIPOS>BOND
     1    1    2 1   
     2    1   14 1   
     3    1   19 1   
     4    2    3 1   
     5    2   18 1   
     6    2   21 1   
     7    3   20 1   
     8    4    5 1   
     9    4   20 1   
    10    4   23 1   
    11    5   18 1   
    12    6   13 1   
    13    6   17 1   
    14    6   18 1   
    15    7   10 1   
    16    7   12 1   
    17    7   24 1   
    18    7   29 1   
    19    8    9 1   
    20    8   35 1   
    21   10   11 1   
    22   10   16 1   
    23   10   25 1   
    24   11   26 1   
    25   11   27 1   
    26   11   28 1   
    27   12   13 1   
    28   12   30 1   
    29   12   31 1   
    30   13   14 1   
    31   13   32 1   
    32   14   15 1   
    33   15   16 1   
    34   16   33 1   
    35   16   34 1   
    36   20   22 1   
@<TRIPOS>SUBSTRUCTURE
     1 2AX         1 TEMP              0 ****  ****    0 ROOT
