@<TRIPOS>MOLECULE
2AY
   61    52     1     0     0
SMALL
bcc


@<TRIPOS>ATOM
      1 N1          1.7050    1.2340    6.7880 n3        1 2AY     -0.825000
      2 S2          3.2580    1.7630    7.1000 s4        1 2AY      2.040800
      3 O3          4.2360    1.0970    6.2280 o         1 2AY     -0.531900
      4 O4          3.4180    3.1040    6.7190 o         1 2AY     -0.531900
      5 C5          3.6670    1.5350    8.7960 c2        1 2AY     -0.954000
      6 C6          1.2420    1.1570    5.4380 c1        1 2AY      0.074000
      7 C7          0.0390    1.7330    5.0890 c1        1 2AY     -0.119500
      8 C8         -0.4750    1.5470    3.8110 c1        1 2AY     -0.119500
      9 C9          0.2420    0.7640    2.8640 c1        1 2AY      0.002000
     10 C10        -0.3230    0.5380    1.4810 c1        1 2AY     -0.212000
     11 C11         0.4450   -0.2730    0.4860 c1        1 2AY      0.120000
     12 O12         1.6620   -0.9150    0.8780 os        1 2AY     -0.189000
     13 C13         2.2080   -0.6890    2.1940 c2        1 2AY      0.343000
     14 O14         3.3020   -1.1170    2.4730 o         1 2AY     -0.287000
     15 C15         1.4390    0.1920    3.2130 c2        1 2AY     -0.117000
     16 C16         1.9530    0.3800    4.4980 c2        1 2AY     -0.128000
     17 C17        -0.1260   -0.5110   -0.9150 c1        1 2AY     -0.087000
     18 C18         0.2340    0.3670   -1.9930 c1        1 2AY      0.084000
     19 C19        -0.3850    0.2390   -3.2390 c1        1 2AY     -0.069000
     20 C20        -1.3550   -0.7440   -3.4340 c2        1 2AY     -0.100000
     21 C21        -1.7180   -1.6220   -2.3630 c1        1 2AY     -0.040000
     22 C22        -1.1000   -1.4960   -1.1150 c2        1 2AY     -0.048000
     23 C23        -2.8640   -2.6740   -2.5690 c1        1 2AY     -0.137000
     24 C24        -4.3140   -2.3140   -2.2060 c1        1 2AY      0.329000
     25 O25        -4.5930   -1.1770   -1.8880 o         1 2AY     -0.363000
     26 N26        -5.3710   -3.3060   -2.3640 n2        1 2AY     -0.280000
     27 C28        -5.0350   -4.6900   -2.7990 c2        1 2AY      0.014000
     28 C29        -3.5920   -5.0510   -3.1640 c1        1 2AY     -0.252000
     29 C30        -2.5290   -4.0570   -3.0080 c1        1 2AY     -0.031000
     30 C31        -0.0760    1.2900   -4.3910 c2        1 2AY     -0.004000
     31 C32         1.3110    0.9950   -4.9930 c3        1 2AY     -0.207333
     32 C33        -1.1030    1.1850   -5.4510 c3        1 2AY     -0.207333
     33 C34        -0.1000    2.6780   -3.8230 c3        1 2AY     -0.207333
     34 O35         1.1720    1.3570   -1.7940 o         1 2AY     -0.234000
     35 C36         2.5150    0.8630   -1.6580 c3        1 2AY     -0.077000
     36 H1          1.1030    1.1040    7.4970 hn        1 2AY      0.253000
     37 H2          3.0430    0.9350    9.2020 ha        1 2AY      0.161333
     38 H3          4.5480    1.1710    8.8630 ha        1 2AY      0.161333
     39 H4          3.6350    2.4000    9.2540 ha        1 2AY      0.161333
     40 H5         -0.4310    2.3080    5.7250 ha        1 2AY      0.143500
     41 H6         -1.3690    1.9750    3.5510 ha        1 2AY      0.143500
     42 H7         -1.1430    0.9760    1.2180 ha        1 2AY      0.172000
     43 H8          2.8190   -0.0620    4.7630 ha        1 2AY      0.181000
     44 H9         -1.8290   -0.8430   -4.3920 ha        1 2AY      0.140000
     45 H10        -1.3490   -2.1050   -0.3750 ha        1 2AY      0.175000
     46 H11        -6.2410   -3.0890   -2.1450 hn        1 2AY      0.249000
     47 H12        -5.7660   -5.3760   -2.9070 h4        1 2AY      0.153000
     48 H13        -3.3660   -5.9840   -3.4580 ha        1 2AY      0.153000
     49 H14        -1.6030   -4.2880   -3.2420 ha        1 2AY      0.144000
     50 H15         1.2370    0.9480   -5.9800 hc        1 2AY      0.078556
     51 H16         1.9280    1.6990   -4.7480 hc        1 2AY      0.078556
     52 H17         1.6370    0.1480   -4.6520 hc        1 2AY      0.078556
     53 H18        -2.0190    1.2890   -5.0450 hc        1 2AY      0.078556
     54 H19        -0.9530    1.9130   -6.1330 hc        1 2AY      0.078556
     55 H20        -1.0320    0.2560   -5.9130 hc        1 2AY      0.078556
     56 H21        -0.8090    2.7330   -3.1140 hc        1 2AY      0.078556
     57 H22        -0.3050    3.3370   -4.5550 hc        1 2AY      0.078556
     58 H23         0.8080    2.8970   -3.4140 hc        1 2AY      0.078556
     59 H24         2.5590   -0.0490   -1.9710 h1        1 2AY      0.085000
     60 H25         2.7790    0.8960   -0.7210 h1        1 2AY      0.085000
     61 H26         3.1300    1.4260   -2.1980 h1        1 2AY      0.085000
@<TRIPOS>BOND
     1    1    2 1   
     2    1    6 1   
     3    1   36 1   
     4    2    3 1   
     5    2    4 1   
     6    5   37 1   
     7    5   38 1   
     8    5   39 1   
     9    6   16 1   
    10    7    8 1   
    11    7   40 1   
    12    8   41 1   
    13    9   15 1   
    14   10   11 1   
    15   10   42 1   
    16   11   12 1   
    17   12   13 1   
    18   13   14 1   
    19   13   15 1   
    20   15   16 1   
    21   16   43 1   
    22   17   22 1   
    23   18   19 1   
    24   19   20 1   
    25   20   21 1   
    26   20   44 1   
    27   21   22 1   
    28   22   45 1   
    29   23   29 1   
    30   24   25 1   
    31   26   27 1   
    32   26   46 1   
    33   27   28 1   
    34   27   47 1   
    35   28   48 1   
    36   29   49 1   
    37   30   31 1   
    38   30   32 1   
    39   30   33 1   
    40   31   50 1   
    41   31   51 1   
    42   31   52 1   
    43   32   53 1   
    44   32   54 1   
    45   32   55 1   
    46   33   56 1   
    47   33   57 1   
    48   33   58 1   
    49   34   35 1   
    50   35   59 1   
    51   35   60 1   
    52   35   61 1   
@<TRIPOS>SUBSTRUCTURE
     1 2AY         1 TEMP              0 ****  ****    0 ROOT
