@<TRIPOS>MOLECULE
2AY
   62    65     1     0     0
SMALL
bcc


@<TRIPOS>ATOM
      1 N1         -0.3100    0.1220    0.3330 n4        1 2AY     -0.561300
      2 S2          1.5730   -0.0180    0.2890 s6        1 2AY      1.409900
      3 O3          1.8790    0.4840    1.5380 o         1 2AY     -0.561800
      4 O4          1.7580   -1.3510   -0.0120 o         1 2AY     -0.561800
      5 C5          1.9540    1.0140   -0.9260 c3        1 2AY     -0.460300
      6 C6         -0.9180    0.0410   -0.9830 ca        1 2AY     -0.144400
      7 C7         -0.9750   -1.2150   -1.6480 ca        1 2AY     -0.073000
      8 C8         -1.5740   -1.3130   -2.8850 ca        1 2AY     -0.123000
      9 C9         -2.1530   -0.1770   -3.5020 ca        1 2AY      0.103200
     10 C10        -2.8140   -0.2350   -4.7600 cc        1 2AY     -0.283200
     11 C11        -3.4030    0.8860   -5.2910 cd        1 2AY      0.288900
     12 O12        -3.3240    2.1180   -4.6830 os        1 2AY     -0.283200
     13 C13        -2.6700    2.2450   -3.4630 c         1 2AY      0.727200
     14 O14        -2.6600    3.4060   -3.0610 o         1 2AY     -0.538500
     15 C15        -2.0880    1.0630   -2.8290 ca        1 2AY     -0.201600
     16 C16        -1.4960    1.1730   -1.5690 ca        1 2AY     -0.018000
     17 C17        -4.2030    0.8990   -6.5110 ca        1 2AY     -0.151800
     18 C18        -4.2790    2.0180   -7.3680 ca        1 2AY      0.163100
     19 C19        -5.1900    2.0390   -8.4500 ca        1 2AY     -0.070300
     20 C20        -5.9520    0.8900   -8.6790 ca        1 2AY     -0.078000
     21 C21        -5.8350   -0.2620   -7.8830 ca        1 2AY     -0.040800
     22 C22        -4.9700   -0.2430   -6.7880 ca        1 2AY     -0.059000
     23 C23        -6.6240   -1.4460   -8.2050 cc        1 2AY     -0.167400
     24 C24        -7.1140   -2.2960   -7.1090 c         1 2AY      0.693700
     25 O25        -6.8640   -2.1520   -5.8930 o         1 2AY     -0.659500
     26 N26        -7.9340   -3.3850   -7.4660 n         1 2AY     -0.428100
     27 C28        -8.2320   -3.6690   -8.7730 cc        1 2AY      0.027600
     28 C29        -7.7400   -2.9010   -9.8030 cd        1 2AY     -0.251000
     29 C30        -6.9280   -1.7740   -9.5020 cd        1 2AY     -0.014000
     30 C31        -5.3770    3.2690   -9.3050 c3        1 2AY     -0.000700
     31 C32        -4.0650    3.6490   -9.9850 c3        1 2AY     -0.092100
     32 C33        -6.4200    3.0610  -10.4000 c3        1 2AY     -0.092100
     33 C34        -5.8540    4.4270   -8.4290 c3        1 2AY     -0.092100
     34 O35        -3.5220    3.1490   -7.1000 os        1 2AY     -0.326900
     35 C36        -2.1200    2.9780   -7.3160 c3        1 2AY      0.119700
     36 H1         -0.6030    0.9900    0.7870 hn        1 2AY      0.460800
     37 H2          2.9140    0.7220   -1.4490 h1        1 2AY      0.178033
     38 H3          1.2180    1.1000   -1.7750 h1        1 2AY      0.178033
     39 H4          2.1340    2.0760   -0.5910 h1        1 2AY      0.178033
     40 H5         -0.5330   -2.1140   -1.1810 ha        1 2AY      0.170000
     41 H6         -1.6220   -2.2860   -3.4030 ha        1 2AY      0.177000
     42 H7         -2.8710   -1.1960   -5.2930 ha        1 2AY      0.181000
     43 H8         -1.5070    2.1590   -1.0690 ha        1 2AY      0.171000
     44 H9         -6.6840    0.8680   -9.5040 ha        1 2AY      0.152000
     45 H10        -4.9200   -1.1170   -6.1150 ha        1 2AY      0.169000
     46 H11        -8.3040   -3.9510   -6.7330 hn        1 2AY      0.341500
     47 H12        -8.8820   -4.5460   -8.9500 h4        1 2AY      0.164000
     48 H13        -7.9760   -3.1480  -10.8460 ha        1 2AY      0.163000
     49 H14        -6.5480   -1.1670  -10.3410 ha        1 2AY      0.146000
     50 H15        -3.3500    4.0800   -9.2440 hc        1 2AY      0.043256
     51 H16        -4.2550    4.4200  -10.7720 hc        1 2AY      0.043256
     52 H17        -3.6000    2.7570  -10.4660 hc        1 2AY      0.043256
     53 H18        -6.5280    4.0020  -10.9930 hc        1 2AY      0.043256
     54 H19        -7.4170    2.8160   -9.9610 hc        1 2AY      0.043256
     55 H20        -6.1090    2.2460  -11.0960 hc        1 2AY      0.043256
     56 H21        -5.1130    4.6450   -7.6230 hc        1 2AY      0.043256
     57 H22        -5.9800    5.3430   -9.0550 hc        1 2AY      0.043256
     58 H23        -6.8340    4.1770   -7.9580 hc        1 2AY      0.043256
     59 H24        -1.7030    4.0010   -7.1410 h1        1 2AY      0.043033
     60 H25        -1.7010    2.2480   -6.5810 h1        1 2AY      0.043033
     61 H26        -1.9180    2.6350   -8.3600 h1        1 2AY      0.043033
     62 H121       -0.6870   -0.6440    0.8990 hn        1 2AY      0.460800
@<TRIPOS>BOND
     1    1    2 1   
     2    1    6 1   
     3    1   36 1   
     4    1   62 1   
     5    2    3 2   
     6    2    4 2   
     7    2    5 1   
     8    5   37 1   
     9    5   38 1   
    10    5   39 1   
    11    6    7 ar  
    12    6   16 ar  
    13    7    8 ar  
    14    7   40 1   
    15    8    9 ar  
    16    8   41 1   
    17    9   10 1   
    18    9   15 ar  
    19   10   11 2   
    20   10   42 1   
    21   11   12 1   
    22   11   17 1   
    23   12   13 1   
    24   13   14 2   
    25   13   15 1   
    26   15   16 ar  
    27   16   43 1   
    28   17   18 ar  
    29   17   22 ar  
    30   18   19 ar  
    31   18   34 1   
    32   19   20 ar  
    33   19   30 1   
    34   20   21 ar  
    35   20   44 1   
    36   21   22 ar  
    37   21   23 1   
    38   22   45 1   
    39   23   24 1   
    40   23   29 2   
    41   24   25 2   
    42   24   26 1   
    43   26   27 1   
    44   26   46 1   
    45   27   28 2   
    46   27   47 1   
    47   28   29 1   
    48   28   48 1   
    49   29   49 1   
    50   30   31 1   
    51   30   32 1   
    52   30   33 1   
    53   31   50 1   
    54   31   51 1   
    55   31   52 1   
    56   32   53 1   
    57   32   54 1   
    58   32   55 1   
    59   33   56 1   
    60   33   57 1   
    61   33   58 1   
    62   34   35 1   
    63   35   59 1   
    64   35   60 1   
    65   35   61 1   
@<TRIPOS>SUBSTRUCTURE
     1 2AY         1 TEMP              0 ****  ****    0 ROOT
