@<TRIPOS>MOLECULE
2AY
   61    64     1     0     0
SMALL
bcc


@<TRIPOS>ATOM
      1 N1         -0.0930    0.3760    0.1030 nu        1 2AY     -0.783500
      2 S2          1.3470   -0.2510    0.5380 s6        1 2AY      1.470900
      3 O3          1.5180   -0.0030    1.9140 o         1 2AY     -0.649300
      4 O4          1.4870   -1.5820    0.1050 o         1 2AY     -0.649300
      5 C5          2.4630    0.6970   -0.3210 c3        1 2AY     -0.372300
      6 C6         -0.7520    0.2470   -1.1310 ca        1 2AY      0.130600
      7 C7         -0.6620   -0.9480   -1.8930 ca        1 2AY     -0.129000
      8 C8         -1.3190   -1.0590   -3.1070 ca        1 2AY     -0.114000
      9 C9         -2.0980   -0.0020   -3.6030 ca        1 2AY      0.004200
     10 C10        -2.8100   -0.0760   -4.8510 cc        1 2AY     -0.219200
     11 C11        -3.5610    0.9740   -5.2790 cd        1 2AY      0.187900
     12 O12        -3.6710    2.1560   -4.5720 os        1 2AY     -0.304200
     13 C13        -3.0080    2.2850   -3.3560 c         1 2AY      0.728200
     14 O14        -3.2070    3.3910   -2.8530 o         1 2AY     -0.567500
     15 C15        -2.1980    1.1800   -2.8470 ca        1 2AY     -0.155600
     16 C16        -1.5330    1.3080   -1.6230 ca        1 2AY     -0.095000
     17 C17        -4.3650    0.9670   -6.5040 ca        1 2AY     -0.108800
     18 C18        -4.4160    2.0530   -7.3990 ca        1 2AY      0.153100
     19 C19        -5.2850    2.0280   -8.5170 ca        1 2AY     -0.077300
     20 C20        -6.0340    0.8690   -8.7340 ca        1 2AY     -0.097000
     21 C21        -5.9480   -0.2470   -7.8860 ca        1 2AY     -0.055800
     22 C22        -5.1270   -0.1810   -6.7580 ca        1 2AY     -0.064000
     23 C23        -6.7120   -1.4490   -8.1980 cc        1 2AY     -0.142400
     24 C24        -7.2820   -2.2370   -7.0920 c         1 2AY      0.689700
     25 O25        -7.1470   -2.0120   -5.8730 o         1 2AY     -0.639500
     26 N26        -8.0530   -3.3640   -7.4480 ns        1 2AY     -0.436100
     27 C28        -8.2420   -3.7300   -8.7560 cc        1 2AY      0.015600
     28 C29        -7.6880   -3.0120   -9.7870 cd        1 2AY     -0.251000
     29 C30        -6.9140   -1.8540   -9.4910 cd        1 2AY     -0.033000
     30 C31        -5.4350    3.2200   -9.4310 c3        1 2AY      0.002300
     31 C32        -4.0980    3.5580  -10.0840 c3        1 2AY     -0.090100
     32 C33        -6.4410    2.9700  -10.5520 c3        1 2AY     -0.090100
     33 C34        -5.9320    4.4200   -8.6270 c3        1 2AY     -0.090100
     34 O35        -3.6920    3.2110   -7.1550 os        1 2AY     -0.328900
     35 C36        -2.2740    3.0460   -7.1970 c3        1 2AY      0.117700
     36 H1         -0.5880    0.9560    0.7460 hn        1 2AY      0.461800
     37 H2          2.4890    1.7630    0.0140 h1        1 2AY      0.118700
     38 H3          3.5010    0.3020   -0.1750 h1        1 2AY      0.118700
     39 H4          2.2930    0.7130   -1.4250 h1        1 2AY      0.118700
     40 H5         -0.0690   -1.8040   -1.5210 ha        1 2AY      0.178000
     41 H6         -1.2410   -1.9920   -3.6880 ha        1 2AY      0.149000
     42 H7         -2.7450   -0.9990   -5.4430 ha        1 2AY      0.160000
     43 H8         -1.6460    2.2490   -1.0580 ha        1 2AY      0.160000
     44 H9         -6.7280    0.8080   -9.5870 ha        1 2AY      0.140000
     45 H10        -5.0970   -1.0240   -6.0470 ha        1 2AY      0.166000
     46 H11        -8.4660   -3.8980   -6.7140 hn        1 2AY      0.336500
     47 H12        -8.8600   -4.6300   -8.9290 h4        1 2AY      0.154000
     48 H13        -7.8390   -3.3200  -10.8290 ha        1 2AY      0.154000
     49 H14        -6.4770   -1.2900  -10.3310 ha        1 2AY      0.144000
     50 H15        -3.6640    2.6550  -10.5740 hc        1 2AY      0.039700
     51 H16        -4.2440    4.3500  -10.8570 hc        1 2AY      0.039700
     52 H17        -3.3760    3.9410   -9.3230 hc        1 2AY      0.039700
     53 H18        -7.4530    2.7490  -10.1370 hc        1 2AY      0.039700
     54 H19        -6.1120    2.1240  -11.2010 hc        1 2AY      0.039700
     55 H20        -6.5220    3.8850  -11.1890 hc        1 2AY      0.039700
     56 H21        -5.2100    4.6840   -7.8180 hc        1 2AY      0.039700
     57 H22        -6.9200    4.1900   -8.1630 hc        1 2AY      0.039700
     58 H23        -6.0490    5.3020   -9.3030 hc        1 2AY      0.039700
     59 H24        -1.9550    2.6120   -8.1760 h1        1 2AY      0.042367
     60 H25        -1.9260    2.4020   -6.3550 h1        1 2AY      0.042367
     61 H26        -1.8900    4.0910   -7.0780 h1        1 2AY      0.042367
@<TRIPOS>BOND
     1    1    2 1   
     2    1    6 1   
     3    1   36 1   
     4    2    3 2   
     5    2    4 2   
     6    2    5 1   
     7    5   37 1   
     8    5   38 1   
     9    5   39 1   
    10    6    7 ar  
    11    6   16 ar  
    12    7    8 ar  
    13    7   40 1   
    14    8    9 ar  
    15    8   41 1   
    16    9   10 1   
    17    9   15 ar  
    18   10   11 2   
    19   10   42 1   
    20   11   12 1   
    21   11   17 1   
    22   12   13 1   
    23   13   14 2   
    24   13   15 1   
    25   15   16 ar  
    26   16   43 1   
    27   17   18 ar  
    28   17   22 ar  
    29   18   19 ar  
    30   18   34 1   
    31   19   20 ar  
    32   19   30 1   
    33   20   21 ar  
    34   20   44 1   
    35   21   22 ar  
    36   21   23 1   
    37   22   45 1   
    38   23   24 1   
    39   23   29 2   
    40   24   25 2   
    41   24   26 1   
    42   26   27 1   
    43   26   46 1   
    44   27   28 2   
    45   27   47 1   
    46   28   29 1   
    47   28   48 1   
    48   29   49 1   
    49   30   31 1   
    50   30   32 1   
    51   30   33 1   
    52   31   50 1   
    53   31   51 1   
    54   31   52 1   
    55   32   53 1   
    56   32   54 1   
    57   32   55 1   
    58   33   56 1   
    59   33   57 1   
    60   33   58 1   
    61   34   35 1   
    62   35   59 1   
    63   35   60 1   
    64   35   61 1   
@<TRIPOS>SUBSTRUCTURE
     1 2AY         1 TEMP              0 ****  ****    0 ROOT
