@<TRIPOS>MOLECULE
2AY
   61    64     1     0     0
SMALL
bcc


@<TRIPOS>ATOM
      1 N1         -0.0920    0.3690    0.1030 nh        1 2AY     -0.783500
      2 S2          1.3450   -0.2620    0.5370 s6        1 2AY      1.470900
      3 O3          1.5190   -0.0110    1.9120 o         1 2AY     -0.649300
      4 O4          1.4810   -1.5930    0.1060 o         1 2AY     -0.649300
      5 C5          2.4640    0.6820   -0.3250 c3        1 2AY     -0.372300
      6 C6         -0.7530    0.2400   -1.1310 ca        1 2AY      0.130600
      7 C7         -0.6680   -0.9560   -1.8910 ca        1 2AY     -0.129000
      8 C8         -1.3270   -1.0670   -3.1040 ca        1 2AY     -0.114000
      9 C9         -2.1030   -0.0070   -3.6010 ca        1 2AY      0.004200
     10 C10        -2.8160   -0.0810   -4.8480 cc        1 2AY     -0.219200
     11 C11        -3.5630    0.9700   -5.2770 cd        1 2AY      0.187900
     12 O12        -3.6700    2.1540   -4.5720 os        1 2AY     -0.304200
     13 C13        -3.0050    2.2820   -3.3570 c         1 2AY      0.728200
     14 O14        -3.1990    3.3900   -2.8560 o         1 2AY     -0.567500
     15 C15        -2.1970    1.1760   -2.8460 ca        1 2AY     -0.155600
     16 C16        -1.5320    1.3030   -1.6230 ca        1 2AY     -0.095000
     17 C17        -4.3680    0.9640   -6.5010 ca        1 2AY     -0.108800
     18 C18        -4.4170    2.0490   -7.3980 ca        1 2AY      0.153100
     19 C19        -5.2870    2.0250   -8.5160 ca        1 2AY     -0.077300
     20 C20        -6.0400    0.8680   -8.7300 ca        1 2AY     -0.097000
     21 C21        -5.9570   -0.2460   -7.8800 ca        1 2AY     -0.055800
     22 C22        -5.1350   -0.1810   -6.7530 ca        1 2AY     -0.064000
     23 C23        -6.7260   -1.4460   -8.1890 cc        1 2AY     -0.142400
     24 C24        -7.2980   -2.2310   -7.0820 c         1 2AY      0.689700
     25 O25        -7.1600   -2.0040   -5.8640 o         1 2AY     -0.639500
     26 N26        -8.0730   -3.3550   -7.4350 n         1 2AY     -0.436100
     27 C28        -8.2650   -3.7220   -8.7420 cc        1 2AY      0.015600
     28 C29        -7.7090   -3.0080   -9.7750 cd        1 2AY     -0.251000
     29 C30        -6.9300   -1.8530   -9.4820 cd        1 2AY     -0.033000
     30 C31        -5.4320    3.2160   -9.4310 c3        1 2AY      0.002300
     31 C32        -4.0940    3.5480  -10.0860 c3        1 2AY     -0.090100
     32 C33        -6.4400    2.9680  -10.5520 c3        1 2AY     -0.090100
     33 C34        -5.9240    4.4200   -8.6300 c3        1 2AY     -0.090100
     34 O35        -3.6880    3.2040   -7.1570 os        1 2AY     -0.328900
     35 C36        -2.2700    3.0340   -7.2000 c3        1 2AY      0.117700
     36 H1         -0.5850    0.9520    0.7460 hn        1 2AY      0.461800
     37 H2          3.5010    0.2830   -0.1800 h1        1 2AY      0.118700
     38 H3          2.4930    1.7480    0.0080 h1        1 2AY      0.118700
     39 H4          2.2930    0.6970   -1.4290 h1        1 2AY      0.118700
     40 H5         -0.0780   -1.8130   -1.5180 ha        1 2AY      0.178000
     41 H6         -1.2520   -2.0010   -3.6830 ha        1 2AY      0.149000
     42 H7         -2.7540   -1.0050   -5.4390 ha        1 2AY      0.160000
     43 H8         -1.6410    2.2460   -1.0600 ha        1 2AY      0.161000
     44 H9         -6.7340    0.8080   -9.5830 ha        1 2AY      0.140000
     45 H10        -5.1080   -1.0240   -6.0400 ha        1 2AY      0.166000
     46 H11        -8.4870   -3.8860   -6.7000 hn        1 2AY      0.336500
     47 H12        -8.8860   -4.6200   -8.9130 h4        1 2AY      0.154000
     48 H13        -7.8620   -3.3170  -10.8160 ha        1 2AY      0.154000
     49 H14        -6.4920   -1.2920  -10.3230 ha        1 2AY      0.144000
     50 H15        -3.3710    3.9300   -9.3270 hc        1 2AY      0.039700
     51 H16        -3.6650    2.6420  -10.5740 hc        1 2AY      0.039700
     52 H17        -4.2380    4.3390  -10.8610 hc        1 2AY      0.039700
     53 H18        -6.1140    2.1190  -11.1990 hc        1 2AY      0.039700
     54 H19        -7.4520    2.7510  -10.1350 hc        1 2AY      0.039700
     55 H20        -6.5180    3.8820  -11.1900 hc        1 2AY      0.039700
     56 H21        -6.9130    4.1940   -8.1650 hc        1 2AY      0.039700
     57 H22        -6.0380    5.3000   -9.3070 hc        1 2AY      0.039700
     58 H23        -5.2000    4.6820   -7.8220 hc        1 2AY      0.039700
     59 H24        -1.9540    2.5980   -8.1780 h1        1 2AY      0.042367
     60 H25        -1.8820    4.0780   -7.0830 h1        1 2AY      0.042367
     61 H26        -1.9240    2.3900   -6.3560 h1        1 2AY      0.042367
@<TRIPOS>BOND
     1    1    2 1   
     2    1    6 1   
     3    1   36 1   
     4    2    3 2   
     5    2    4 2   
     6    2    5 1   
     7    5   37 1   
     8    5   38 1   
     9    5   39 1   
    10    6    7 ar  
    11    6   16 ar  
    12    7    8 ar  
    13    7   40 1   
    14    8    9 ar  
    15    8   41 1   
    16    9   10 1   
    17    9   15 ar  
    18   10   11 2   
    19   10   42 1   
    20   11   12 1   
    21   11   17 1   
    22   12   13 1   
    23   13   14 2   
    24   13   15 1   
    25   15   16 ar  
    26   16   43 1   
    27   17   18 ar  
    28   17   22 ar  
    29   18   19 ar  
    30   18   34 1   
    31   19   20 ar  
    32   19   30 1   
    33   20   21 ar  
    34   20   44 1   
    35   21   22 ar  
    36   21   23 1   
    37   22   45 1   
    38   23   24 1   
    39   23   29 2   
    40   24   25 2   
    41   24   26 1   
    42   26   27 1   
    43   26   46 1   
    44   27   28 2   
    45   27   47 1   
    46   28   29 1   
    47   28   48 1   
    48   29   49 1   
    49   30   31 1   
    50   30   32 1   
    51   30   33 1   
    52   31   50 1   
    53   31   51 1   
    54   31   52 1   
    55   32   53 1   
    56   32   54 1   
    57   32   55 1   
    58   33   56 1   
    59   33   57 1   
    60   33   58 1   
    61   34   35 1   
    62   35   59 1   
    63   35   60 1   
    64   35   61 1   
@<TRIPOS>SUBSTRUCTURE
     1 2AY         1 TEMP              0 ****  ****    0 ROOT
