@<TRIPOS>MOLECULE
2AY
   61    64     1     0     0
SMALL
bcc


@<TRIPOS>ATOM
      1 N1          6.1300   -0.6240    0.8550 nh        1 2AY     -0.783500
      2 S2          7.4140   -0.8860   -0.1120 s6        1 2AY      1.470900
      3 O3          8.5470   -1.0180    0.7160 o         1 2AY     -0.649300
      4 O4          7.1700   -1.9200   -1.0330 o         1 2AY     -0.649300
      5 C5          7.5530    0.5660   -0.9830 c3        1 2AY     -0.372300
      6 C6          4.7730   -0.5730    0.4910 ca        1 2AY      0.130600
      7 C7          4.2550   -1.4010   -0.5390 ca        1 2AY     -0.129000
      8 C8          2.9150   -1.3400   -0.8840 ca        1 2AY     -0.114000
      9 C9          2.0390   -0.4700   -0.2160 ca        1 2AY      0.004200
     10 C10         0.6380   -0.3810   -0.5280 cc        1 2AY     -0.219200
     11 C11        -0.1690    0.4690    0.1590 cd        1 2AY      0.187900
     12 O12         0.2950    1.2970    1.1650 os        1 2AY     -0.304200
     13 C13         1.6400    1.2530    1.5140 c         1 2AY      0.728200
     14 O14         1.8930    2.0450    2.4210 o         1 2AY     -0.567500
     15 C15         2.5460    0.3460    0.8120 ca        1 2AY     -0.155600
     16 C16         3.8980    0.2980    1.1650 ca        1 2AY     -0.096000
     17 C17        -1.6150    0.5840   -0.0500 ca        1 2AY     -0.108800
     18 C18        -2.2910    1.8190   -0.1000 ca        1 2AY      0.153100
     19 C19        -3.7030    1.8650   -0.2080 ca        1 2AY     -0.077300
     20 C20        -4.3870    0.6540   -0.3290 ca        1 2AY     -0.097000
     21 C21        -3.7210   -0.5830   -0.3440 ca        1 2AY     -0.055800
     22 C22        -2.3360   -0.6100   -0.1800 ca        1 2AY     -0.064000
     23 C23        -4.4880   -1.8100   -0.5310 cc        1 2AY     -0.142400
     24 C24        -4.0720   -3.0250    0.1900 c         1 2AY      0.689700
     25 O25        -3.0800   -3.1420    0.9360 o         1 2AY     -0.639500
     26 N26        -4.8730   -4.1730    0.0120 n         1 2AY     -0.436100
     27 C28        -5.9690   -4.1720   -0.8120 cc        1 2AY      0.015600
     28 C29        -6.3410   -3.0480   -1.5060 cd        1 2AY     -0.251000
     29 C30        -5.5820   -1.8530   -1.3550 cd        1 2AY     -0.033000
     30 C31        -4.4580    3.1710   -0.1580 c3        1 2AY      0.002300
     31 C32        -4.0270    4.0770   -1.3090 c3        1 2AY     -0.090100
     32 C33        -5.9680    2.9740   -0.2720 c3        1 2AY     -0.090100
     33 C34        -4.1850    3.8690    1.1730 c3        1 2AY     -0.090100
     34 O35        -1.6040    3.0140    0.0530 os        1 2AY     -0.328900
     35 C36        -0.6770    3.3060   -0.9930 c3        1 2AY      0.117700
     36 H1          6.2770   -0.4390    1.8240 hn        1 2AY      0.461800
     37 H2          7.8330    1.4390   -0.3440 h1        1 2AY      0.118700
     38 H3          8.3570    0.4770   -1.7580 h1        1 2AY      0.118700
     39 H4          6.6260    0.8570   -1.5340 h1        1 2AY      0.118700
     40 H5          4.9170   -2.1080   -1.0730 ha        1 2AY      0.178000
     41 H6          2.5260   -1.9880   -1.6850 ha        1 2AY      0.149000
     42 H7          0.2320   -1.0210   -1.3250 ha        1 2AY      0.160000
     43 H8          4.2520    0.9490    1.9840 ha        1 2AY      0.160000
     44 H9         -5.4860    0.6420   -0.4090 ha        1 2AY      0.140000
     45 H10        -1.8050   -1.5760   -0.1250 ha        1 2AY      0.166000
     46 H11        -4.6210   -4.9990    0.5090 hn        1 2AY      0.336500
     47 H12        -6.5280   -5.1230   -0.8850 h4        1 2AY      0.154000
     48 H13        -7.2150   -3.0620   -2.1700 ha        1 2AY      0.154000
     49 H14        -5.8950   -0.9600   -1.9200 ha        1 2AY      0.144000
     50 H15        -4.6830    4.9800   -1.3470 hc        1 2AY      0.039700
     51 H16        -2.9740    4.4160   -1.1680 hc        1 2AY      0.039700
     52 H17        -4.1080    3.5350   -2.2810 hc        1 2AY      0.039700
     53 H18        -6.4770    3.9680   -0.2170 hc        1 2AY      0.039700
     54 H19        -6.2350    2.5010   -1.2460 hc        1 2AY      0.039700
     55 H20        -6.3510    2.3440    0.5660 hc        1 2AY      0.039700
     56 H21        -4.5170    3.2230    2.0200 hc        1 2AY      0.039700
     57 H22        -3.0970    4.0850    1.2930 hc        1 2AY      0.039700
     58 H23        -4.7480    4.8330    1.2140 hc        1 2AY      0.039700
     59 H24         0.1680    2.5770   -0.9870 h1        1 2AY      0.042367
     60 H25        -1.1880    3.3010   -1.9860 h1        1 2AY      0.042367
     61 H26        -0.3130    4.3330   -0.7350 h1        1 2AY      0.042367
@<TRIPOS>BOND
     1    1    2 1   
     2    1    6 1   
     3    1   36 1   
     4    2    3 2   
     5    2    4 2   
     6    2    5 1   
     7    5   37 1   
     8    5   38 1   
     9    5   39 1   
    10    6    7 ar  
    11    6   16 ar  
    12    7    8 ar  
    13    7   40 1   
    14    8    9 ar  
    15    8   41 1   
    16    9   10 1   
    17    9   15 ar  
    18   10   11 2   
    19   10   42 1   
    20   11   12 1   
    21   11   17 1   
    22   12   13 1   
    23   13   14 2   
    24   13   15 1   
    25   15   16 ar  
    26   16   43 1   
    27   17   18 ar  
    28   17   22 ar  
    29   18   19 ar  
    30   18   34 1   
    31   19   20 ar  
    32   19   30 1   
    33   20   21 ar  
    34   20   44 1   
    35   21   22 ar  
    36   21   23 1   
    37   22   45 1   
    38   23   24 1   
    39   23   29 2   
    40   24   25 2   
    41   24   26 1   
    42   26   27 1   
    43   26   46 1   
    44   27   28 2   
    45   27   47 1   
    46   28   29 1   
    47   28   48 1   
    48   29   49 1   
    49   30   31 1   
    50   30   32 1   
    51   30   33 1   
    52   31   50 1   
    53   31   51 1   
    54   31   52 1   
    55   32   53 1   
    56   32   54 1   
    57   32   55 1   
    58   33   56 1   
    59   33   57 1   
    60   33   58 1   
    61   34   35 1   
    62   35   59 1   
    63   35   60 1   
    64   35   61 1   
@<TRIPOS>SUBSTRUCTURE
     1 2AY         1 TEMP              0 ****  ****    0 ROOT
