@<TRIPOS>MOLECULE
2AZ
   66    58     1     0     0
SMALL
bcc


@<TRIPOS>ATOM
      1 C1         -2.1330    3.1800   -1.5070 cx        1 2AZ     -0.198500
      2 C9         -0.9370    1.0180   -0.7630 c3        1 2AZ      0.119000
      3 C11        -1.2690   -0.0910    0.2190 c2        1 2AZ      0.072000
      4 C14        -2.0180   -1.2960    2.5550 c1        1 2AZ     -0.179000
      5 C15        -2.2650   -1.6960    3.8760 c1        1 2AZ     -0.054500
      6 C16        -1.6900   -0.7840    4.7060 c1        1 2AZ     -0.208000
      7 C21        -2.3730   -1.8550    1.3270 c1        1 2AZ      0.382000
      8 C27        -2.0840   -4.1090    0.0340 c1        1 2AZ     -0.124500
      9 C31        -3.3730   -6.0240   -0.6570 c1        1 2AZ     -0.124500
     10 C33        -4.0560   -5.2340   -1.5750 c1        1 2AZ     -0.124500
     11 C35        -3.7540   -3.8800   -1.6900 c1        1 2AZ     -0.106000
     12 C4         -1.6660    2.2920   -0.3590 cx        1 2AZ     -0.193000
     13 C6         -3.1450    2.3510   -0.7240 cx        1 2AZ     -0.198500
     14 N12        -0.9210    0.4580    1.4200 n1        1 2AZ     -0.116000
     15 N13        -1.3000   -0.1520    2.5920 n1        1 2AZ     -0.034000
     16 C18        -1.0880    0.1800    3.9250 c1        1 2AZ     -0.054500
     17 CL2        -2.8100   -3.0580    4.8250 cl        1 2AZ      0.053000
     18 N22        -2.0000   -1.2550    0.1800 n3        1 2AZ     -0.284000
     19 C23        -2.3460   -1.8520   -1.0990 c3        1 2AZ      0.014000
     20 C26        -2.7670   -3.3170   -0.8850 c1        1 2AZ     -0.127000
     21 C29        -2.3880   -5.4620    0.1480 c1        1 2AZ     -0.124500
     22 O37        -3.0840   -2.8430    1.2930 o         1 2AZ     -0.320000
     23 N38         0.4740    1.2530   -0.7590 n         1 2AZ     -0.322000
     24 C39         0.9850    2.6150   -0.8850 c3        1 2AZ     -0.014000
     25 C42         1.1010    2.9870   -2.3800 c3        1 2AZ     -0.189000
     26 C45         1.7500    4.3730   -2.5150 c3        1 2AZ     -0.075000
     27 N48         1.7380    4.7740   -3.8920 n3        1 2AZ     -0.348000
     28 C51         1.3960    0.1280   -0.7690 c2        1 2AZ      0.357000
     29 O52         1.1590   -0.8480   -1.4620 o         1 2AZ     -0.362000
     30 C53         2.7060    0.1990    0.0390 c2        1 2AZ     -0.114000
     31 C54         2.6930   -0.0580    1.4070 c2        1 2AZ     -0.094000
     32 C56         3.8900   -0.1330    2.1140 c1        1 2AZ     -0.136000
     33 C58         5.1010    0.0490    1.4530 c1        1 2AZ     -0.051000
     34 C59         5.1160    0.3060    0.0850 c1        1 2AZ     -0.137000
     35 C61         3.9190    0.3810   -0.6220 c1        1 2AZ     -0.090000
     36 C63         6.4160   -0.0590    2.2240 c3        1 2AZ     -0.184000
     37 H11        -2.1400    4.1450   -1.3240 hc        1 2AZ      0.118500
     38 H12        -1.9230    2.8550   -2.4090 hc        1 2AZ      0.118500
     39 H9         -1.2210    0.7510   -1.6650 h1        1 2AZ      0.148000
     40 H16        -1.6650   -0.8300    5.6850 DU        1 2AZ      0.177000
     41 H27        -1.3890   -3.7130    0.6000 ha        1 2AZ      0.137750
     42 H31        -3.5870   -6.9790   -0.5760 ha        1 2AZ      0.137750
     43 H33        -4.7520   -5.6310   -2.1430 ha        1 2AZ      0.137750
     44 H35        -4.2360   -3.3230   -2.3380 ha        1 2AZ      0.157000
     45 H4         -1.4120    2.7610    0.4670 hc        1 2AZ      0.135000
     46 H61A       -3.7190    2.8550   -0.1030 hc        1 2AZ      0.118500
     47 H62        -3.5010    1.5650   -1.1890 hc        1 2AZ      0.118500
     48 H18        -0.5950    0.9630    4.2530 DU        1 2AZ      0.177000
     49 H231       -3.0910   -1.3530   -1.5020 h1        1 2AZ      0.114000
     50 H232       -1.5680   -1.8190   -1.6970 h1        1 2AZ      0.114000
     51 H29        -1.9060   -6.0200    0.7960 ha        1 2AZ      0.137750
     52 H391        1.8720    2.6720   -0.4640 h1        1 2AZ      0.100000
     53 H392        0.3690    3.2400   -0.4380 h1        1 2AZ      0.100000
     54 H421        1.6550    2.3200   -2.8420 hc        1 2AZ      0.095000
     55 H422        0.2060    3.0040   -2.7830 hc        1 2AZ      0.095000
     56 H451        1.2440    5.0260   -1.9790 h1        1 2AZ      0.065000
     57 H452        2.6790    4.3330   -2.1930 h1        1 2AZ      0.065000
     58 H481        1.3950    5.6240   -3.9620 hn        1 2AZ      0.145500
     59 H482        2.5970    4.7620   -4.2220 hn        1 2AZ      0.145500
     60 H54         1.8410   -0.1860    1.8720 ha        1 2AZ      0.146000
     61 H56         3.8800   -0.3140    3.0780 ha        1 2AZ      0.138000
     62 H59         5.9690    0.4340   -0.3800 ha        1 2AZ      0.138000
     63 H61         3.9300    0.5620   -1.5870 ha        1 2AZ      0.144000
     64 H631        6.6180    0.8040    2.6500 hc        1 2AZ      0.087667
     65 H632        6.3340   -0.7540    2.9140 hc        1 2AZ      0.087667
     66 H633        7.1410   -0.2960    1.6040 hc        1 2AZ      0.087667
@<TRIPOS>BOND
     1    1   12 1   
     2    1   13 1   
     3    1   37 1   
     4    1   38 1   
     5    2    3 1   
     6    2   12 1   
     7    2   23 1   
     8    2   39 1   
     9    3   14 1   
    10    3   18 1   
    11    4   15 1   
    12    5    6 1   
    13    6   16 1   
    14    7   18 1   
    15    7   22 1   
    16    8   21 1   
    17    8   41 1   
    18    9   10 1   
    19    9   42 1   
    20   10   43 1   
    21   11   20 1   
    22   11   44 1   
    23   12   13 1   
    24   12   45 1   
    25   13   46 1   
    26   13   47 1   
    27   18   19 1   
    28   19   20 1   
    29   19   49 1   
    30   19   50 1   
    31   21   51 1   
    32   23   24 1   
    33   23   28 1   
    34   24   25 1   
    35   24   52 1   
    36   24   53 1   
    37   25   26 1   
    38   25   54 1   
    39   25   55 1   
    40   26   27 1   
    41   26   56 1   
    42   26   57 1   
    43   27   58 1   
    44   27   59 1   
    45   28   29 1   
    46   28   30 1   
    47   30   31 1   
    48   30   35 1   
    49   31   32 1   
    50   31   60 1   
    51   32   61 1   
    52   33   34 1   
    53   33   36 1   
    54   34   62 1   
    55   35   63 1   
    56   36   64 1   
    57   36   65 1   
    58   36   66 1   
@<TRIPOS>SUBSTRUCTURE
     1 2AZ         1 TEMP              0 ****  ****    0 ROOT
