@<TRIPOS>MOLECULE
2AZ
   66    70     1     0     0
SMALL
bcc


@<TRIPOS>ATOM
      1 C1         -1.7550    1.4950    2.4880 cx        1 2AZ     -0.118900
      2 C9         -0.0500    0.8850    0.5720 c3        1 2AZ      0.111400
      3 C11        -0.9970   -0.3050    0.2370 cc        1 2AZ      0.447900
      4 C14        -2.7300   -2.3980   -0.1940 cc        1 2AZ     -0.225900
      5 C15        -3.4290   -3.6170   -0.1130 cd        1 2AZ      0.028400
      6 C16        -2.8490   -4.3750    0.9550 cd        1 2AZ     -0.208000
      7 C21        -2.8390   -1.2320   -1.0730 c         1 2AZ      0.740100
      8 C27        -3.8080    2.1810   -1.2380 ca        1 2AZ     -0.116000
      9 C31        -3.6910    4.5810   -0.9830 ca        1 2AZ     -0.124000
     10 C33        -2.3260    4.5460   -1.2650 ca        1 2AZ     -0.134500
     11 C35        -1.6960    3.3300   -1.5270 ca        1 2AZ     -0.116000
     12 C4         -0.3650    1.5150    1.9130 cx        1 2AZ     -0.144700
     13 C6         -0.6400    0.8060    3.2130 cx        1 2AZ     -0.118900
     14 N12        -0.9010   -1.3710    1.0350 n2        1 2AZ     -0.580100
     15 N13        -1.7250   -2.4080    0.8160 na        1 2AZ      0.192000
     16 C18        -1.8080   -3.6120    1.5130 cc        1 2AZ     -0.082300
     17 CL2        -4.6980   -4.1120   -1.0710 cl        1 2AZ     -0.024400
     18 N22        -1.8750   -0.2040   -0.8590 n         1 2AZ     -0.396300
     19 C23        -1.7660    0.8460   -1.8570 c3        1 2AZ      0.116300
     20 C26        -2.4370    2.1430   -1.5110 ca        1 2AZ     -0.116300
     21 C29        -4.4310    3.3990   -0.9710 ca        1 2AZ     -0.134500
     22 O37        -3.6940   -1.1110   -1.9640 o         1 2AZ     -0.591500
     23 N38         1.3390    0.5020    0.3930 n         1 2AZ     -0.463800
     24 C39         2.0620   -0.1030    1.4870 c3        1 2AZ      0.092000
     25 C42         2.9270    0.8660    2.2990 c3        1 2AZ     -0.109400
     26 C45         3.6740    0.0820    3.3760 c3        1 2AZ      0.162800
     27 N48         4.5440    0.9090    4.1780 n3        1 2AZ     -0.915800
     28 C51         2.0030    0.8990   -0.7680 c         1 2AZ      0.680700
     29 O52         1.4210    1.5990   -1.6230 o         1 2AZ     -0.610100
     30 C53         3.4080    0.4460   -0.9790 ca        1 2AZ     -0.136600
     31 C54         3.6750   -0.8840   -1.3180 ca        1 2AZ     -0.092000
     32 C56         4.9840   -1.2820   -1.5820 ca        1 2AZ     -0.133000
     33 C58         6.0350   -0.3600   -1.5070 ca        1 2AZ     -0.056300
     34 C59         5.7570    0.9710   -1.1700 ca        1 2AZ     -0.133000
     35 C61         4.4500    1.3760   -0.9100 ca        1 2AZ     -0.092000
     36 C63         7.4280   -0.7870   -1.7700 c3        1 2AZ     -0.059800
     37 H11        -2.1690    2.4360    2.8940 hc        1 2AZ      0.078950
     38 H12        -2.5350    0.8850    1.9980 hc        1 2AZ      0.078950
     39 H9         -0.2700    1.7170   -0.1780 h1        1 2AZ      0.115700
     40 H16        -3.1570   -5.3660    1.2780 ha        1 2AZ      0.171000
     41 H31        -4.1850    5.5420   -0.7750 ha        1 2AZ      0.131000
     42 H33        -1.7430    5.4780   -1.2840 ha        1 2AZ      0.133000
     43 H35        -0.6170    3.3010   -1.7570 ha        1 2AZ      0.150500
     44 H4          0.1980    2.4730    2.0010 hc        1 2AZ      0.087700
     45 H61A       -0.6280   -0.2950    3.2810 hc        1 2AZ      0.078950
     46 H62        -0.2380    1.2660    4.1350 hc        1 2AZ      0.078950
     47 H18        -1.1350   -3.8440    2.3400 h4        1 2AZ      0.184000
     48 H231       -0.6700    1.0220   -2.0790 h1        1 2AZ      0.094200
     49 H232       -2.2460    0.4570   -2.8070 h1        1 2AZ      0.094200
     50 H29        -5.5100    3.4260   -0.7560 ha        1 2AZ      0.133000
     51 H391        1.3210   -0.5880    2.1840 h1        1 2AZ      0.066200
     52 H392        2.7250   -0.9140    1.0660 h1        1 2AZ      0.066200
     53 H421        3.6590    1.3860    1.6260 hc        1 2AZ      0.054700
     54 H422        2.2770    1.6490    2.7700 hc        1 2AZ      0.054700
     55 H451        2.9100   -0.4740    3.9980 h1        1 2AZ      0.025700
     56 H452        4.3210   -0.6960    2.8770 h1        1 2AZ      0.025700
     57 H481        4.0510    1.6930    4.5560 hn        1 2AZ      0.350300
     58 H482        4.9390    0.3750    4.9250 hn        1 2AZ      0.350300
     59 H54         2.8530   -1.6130   -1.3830 ha        1 2AZ      0.143000
     60 H56         5.1920   -2.3270   -1.8540 ha        1 2AZ      0.138500
     61 H59         6.5770    1.7020   -1.1130 ha        1 2AZ      0.138500
     62 H61         4.2350    2.4250   -0.6580 ha        1 2AZ      0.143000
     63 H631        8.0090    0.0310   -2.2630 hc        1 2AZ      0.049033
     64 H632        7.9350   -1.0440   -0.8060 hc        1 2AZ      0.049033
     65 H633        7.4550   -1.6880   -2.4310 hc        1 2AZ      0.049033
     66 H27        -4.3910    1.2450   -1.2520 ha        1 2AZ      0.150500
@<TRIPOS>BOND
     1    1   12 1   
     2    1   13 1   
     3    1   37 1   
     4    1   38 1   
     5    2    3 1   
     6    2   12 1   
     7    2   23 1   
     8    2   39 1   
     9    3   14 2   
    10    3   18 1   
    11    4    5 2   
    12    4    7 1   
    13    4   15 1   
    14    5    6 1   
    15    5   17 1   
    16    6   16 2   
    17    6   40 1   
    18    7   18 1   
    19    7   22 2   
    20    8   20 ar  
    21    8   21 ar  
    22    8   66 1   
    23    9   10 ar  
    24    9   21 ar  
    25    9   41 1   
    26   10   11 ar  
    27   10   42 1   
    28   11   20 ar  
    29   11   43 1   
    30   12   13 1   
    31   12   44 1   
    32   13   45 1   
    33   13   46 1   
    34   14   15 1   
    35   15   16 1   
    36   16   47 1   
    37   18   19 1   
    38   19   20 1   
    39   19   48 1   
    40   19   49 1   
    41   21   50 1   
    42   23   24 1   
    43   23   28 1   
    44   24   25 1   
    45   24   51 1   
    46   24   52 1   
    47   25   26 1   
    48   25   53 1   
    49   25   54 1   
    50   26   27 1   
    51   26   55 1   
    52   26   56 1   
    53   27   57 1   
    54   27   58 1   
    55   28   29 2   
    56   28   30 1   
    57   30   31 ar  
    58   30   35 ar  
    59   31   32 ar  
    60   31   59 1   
    61   32   33 ar  
    62   32   60 1   
    63   33   34 ar  
    64   33   36 1   
    65   34   35 ar  
    66   34   61 1   
    67   35   62 1   
    68   36   63 1   
    69   36   64 1   
    70   36   65 1   
@<TRIPOS>SUBSTRUCTURE
     1 2AZ         1 TEMP              0 ****  ****    0 ROOT
