@<TRIPOS>MOLECULE
2AZ
   68    72     1     0     0
SMALL
bcc


@<TRIPOS>ATOM
      1 C1          1.9930    1.4940   -0.0380 cx        1 2AZ     -0.105900
      2 C9          2.4920   -0.9920    0.6060 c3        1 2AZ      0.147200
      3 C11         1.8340   -2.1840    1.3150 cc        1 2AZ      0.413900
      4 C14         0.5460   -4.2100    2.6430 cc        1 2AZ     -0.217900
      5 C15        -0.1620   -4.9730    3.5840 cd        1 2AZ      0.058400
      6 C16        -0.2900   -4.1690    4.7760 cd        1 2AZ     -0.164000
      7 C21         0.9310   -4.4530    1.2540 c         1 2AZ      0.745100
      8 C27        -0.3780   -3.2460   -1.7480 ca        1 2AZ     -0.127500
      9 C31        -0.8210   -1.7190   -3.5690 ca        1 2AZ     -0.102000
     10 C33         0.5210   -1.3330   -3.5710 ca        1 2AZ     -0.119500
     11 C35         1.4130   -1.8970   -2.6610 ca        1 2AZ     -0.127500
     12 C4          1.7090    0.2810    0.8180 cx        1 2AZ     -0.205700
     13 C6          0.7490    0.7010   -0.2750 cx        1 2AZ     -0.105900
     14 N12         1.4950   -1.9760    2.5950 n2        1 2AZ     -0.587100
     15 N13         0.8780   -2.9560    3.2520 na        1 2AZ      0.153000
     16 C18         0.3330   -2.9410    4.5470 cc        1 2AZ     -0.087300
     17 Cl2        -0.7490   -6.5090    3.3960 cl        1 2AZ      0.041600
     18 N22         1.6390   -3.3790    0.6080 n         1 2AZ     -0.396300
     19 C23         1.9310   -3.5190   -0.8090 c3        1 2AZ      0.123300
     20 C26         0.9650   -2.8530   -1.7410 ca        1 2AZ     -0.148300
     21 C29        -1.2680   -2.6760   -2.6580 ca        1 2AZ     -0.119500
     22 O37         0.6950   -5.4900    0.6290 o         1 2AZ     -0.531500
     23 N38         3.9620   -0.8300    0.9590 nx        1 2AZ     -0.602200
     24 C39         4.3490   -0.8510    2.3970 c3        1 2AZ      0.115800
     25 C42         3.8600    0.3230    3.2410 c3        1 2AZ     -0.125400
     26 C45         4.4710    0.1720    4.6350 c3        1 2AZ      0.100800
     27 N48         3.9920    1.2050    5.5970 nz        1 2AZ     -0.836600
     28 C51         4.7900   -1.9270    0.2370 c         1 2AZ      0.580700
     29 O52         4.9130   -2.9670    0.8690 o         1 2AZ     -0.425100
     30 C53         5.3650   -1.5810   -1.0530 ca        1 2AZ     -0.236600
     31 C54         6.4400   -2.3870   -1.4860 ca        1 2AZ     -0.059500
     32 C56         7.0500   -2.1400   -2.7100 ca        1 2AZ     -0.134500
     33 C58         6.6010   -1.0980   -3.5340 ca        1 2AZ      0.038700
     34 C59         5.5200   -0.3060   -3.1040 ca        1 2AZ     -0.134500
     35 C61         4.9070   -0.5430   -1.8830 ca        1 2AZ     -0.059500
     36 C63         7.2390   -0.8470   -4.8430 c3        1 2AZ     -0.091800
     37 H11         1.9130    2.4940    0.4270 hc        1 2AZ      0.098700
     38 H12         2.7980    1.4640   -0.7940 hc        1 2AZ      0.098700
     39 H9          2.5010   -1.1880   -0.5200 hx        1 2AZ      0.136700
     40 H16        -0.7940   -4.4750    5.6930 ha        1 2AZ      0.196000
     41 H33         0.8780   -0.5970   -4.3080 ha        1 2AZ      0.152000
     42 H35         2.4770   -1.6190   -2.7000 ha        1 2AZ      0.133500
     43 H4          1.3780    0.4560    1.8600 hc        1 2AZ      0.107700
     44 H61A        0.6650    0.0790   -1.1900 hc        1 2AZ      0.098700
     45 H62        -0.2320    1.1170    0.0260 hc        1 2AZ      0.098700
     46 H18         0.4190   -2.0690    5.1960 h4        1 2AZ      0.172000
     47 H231        1.9280   -4.6310   -1.0410 h1        1 2AZ      0.082700
     48 H232        2.9820   -3.1500   -0.9940 h1        1 2AZ      0.082700
     49 H29        -2.3230   -2.9970   -2.6670 ha        1 2AZ      0.152000
     50 H391        3.9970   -1.8280    2.8430 hx        1 2AZ      0.118200
     51 H392        5.4810   -0.8630    2.4170 hx        1 2AZ      0.118200
     52 H421        2.7390    0.3120    3.3070 hc        1 2AZ      0.093200
     53 H422        4.1740    1.2980    2.7810 hc        1 2AZ      0.093200
     54 H451        4.2070   -0.8420    5.0610 hx        1 2AZ      0.125700
     55 H452        5.5970    0.2550    4.5790 hx        1 2AZ      0.125700
     56 H481        2.9720    1.1510    5.7030 hn        1 2AZ      0.473133
     57 H482        4.2380    2.1460    5.2700 hn        1 2AZ      0.473133
     58 H54         6.7920   -3.2200   -0.8520 ha        1 2AZ      0.147000
     59 H56         7.8910   -2.7750   -3.0390 ha        1 2AZ      0.174500
     60 H59         5.1550    0.5080   -3.7530 ha        1 2AZ      0.174500
     61 H61         4.0450    0.0810   -1.6030 ha        1 2AZ      0.147000
     62 H631        6.7620   -1.4980   -5.6230 hc        1 2AZ      0.081033
     63 H632        7.1180    0.2190   -5.1590 hc        1 2AZ      0.081033
     64 H633        8.3310   -1.0890   -4.8130 hc        1 2AZ      0.081033
     65 H27        -0.7230   -4.0260   -1.0490 ha        1 2AZ      0.133500
     66 H381        4.2380    0.0830    0.5710 hn        1 2AZ      0.449800
     67 H483        4.4290    1.0490    6.5150 hn        1 2AZ      0.473133
     68 H31        -1.5220   -1.2780   -4.2960 ha        1 2AZ      0.158000
@<TRIPOS>BOND
     1    1   12 1   
     2    1   13 1   
     3    1   37 1   
     4    1   38 1   
     5    2    3 1   
     6    2   12 1   
     7    2   23 1   
     8    2   39 1   
     9    3   14 2   
    10    3   18 1   
    11    4    5 2   
    12    4    7 1   
    13    4   15 1   
    14    5    6 1   
    15    5   17 1   
    16    6   16 2   
    17    6   40 1   
    18    7   18 1   
    19    7   22 2   
    20    8   20 ar  
    21    8   21 ar  
    22    8   65 1   
    23    9   10 ar  
    24    9   21 ar  
    25    9   68 1   
    26   10   11 ar  
    27   10   41 1   
    28   11   20 ar  
    29   11   42 1   
    30   12   13 1   
    31   12   43 1   
    32   13   44 1   
    33   13   45 1   
    34   14   15 1   
    35   15   16 1   
    36   16   46 1   
    37   18   19 1   
    38   19   20 1   
    39   19   47 1   
    40   19   48 1   
    41   21   49 1   
    42   23   24 1   
    43   23   28 1   
    44   23   66 1   
    45   24   25 1   
    46   24   50 1   
    47   24   51 1   
    48   25   26 1   
    49   25   52 1   
    50   25   53 1   
    51   26   27 1   
    52   26   54 1   
    53   26   55 1   
    54   27   56 1   
    55   27   57 1   
    56   27   67 1   
    57   28   29 2   
    58   28   30 1   
    59   30   31 ar  
    60   30   35 ar  
    61   31   32 ar  
    62   31   58 1   
    63   32   33 ar  
    64   32   59 1   
    65   33   34 ar  
    66   33   36 1   
    67   34   35 ar  
    68   34   60 1   
    69   35   61 1   
    70   36   62 1   
    71   36   63 1   
    72   36   64 1   
@<TRIPOS>SUBSTRUCTURE
     1 2AZ         1 TEMP              0 ****  ****    0 ROOT
