@<TRIPOS>MOLECULE
2AZ
   68    72     1     0     0
SMALL
bcc


@<TRIPOS>ATOM
      1 C1         -0.2280   -0.0300    0.4920 cx        1 2AZ     -0.086400
      2 C9          2.2730   -0.8440    0.5180 c3        1 2AZ      0.168200
      3 C11         1.7970   -2.2020    1.0460 cc        1 2AZ      0.392900
      4 C14         0.8110   -4.5590    2.0540 cc        1 2AZ     -0.224900
      5 C15         0.2080   -5.5340    2.8610 cd        1 2AZ      0.061400
      6 C16        -0.0980   -4.9130    4.1280 cd        1 2AZ     -0.169000
      7 C21         1.2950   -4.5660    0.6750 c         1 2AZ      0.744100
      8 C27         0.0360   -3.1770   -2.3080 ca        1 2AZ     -0.125500
      9 C31        -0.4480   -1.5420   -4.0210 ca        1 2AZ     -0.102000
     10 C33         0.8270   -0.9980   -3.8620 ca        1 2AZ     -0.118500
     11 C35         1.7050   -1.5360   -2.9220 ca        1 2AZ     -0.125500
     12 C4          1.2540    0.2650    0.5670 cx        1 2AZ     -0.219700
     13 C6          0.3350    0.6220    1.7110 cx        1 2AZ     -0.086400
     14 N12         1.3640   -2.2110    2.3120 n2        1 2AZ     -0.568100
     15 N13         0.8990   -3.3490    2.8180 na        1 2AZ      0.152000
     16 C18         0.3160   -3.5810    4.0770 cc        1 2AZ     -0.074300
     17 CL2        -0.1050   -7.1110    2.4660 cl        1 2AZ      0.038600
     18 N22         1.8520   -3.3250    0.2040 n         1 2AZ     -0.401300
     19 C23         2.2770   -3.2590   -1.1840 c3        1 2AZ      0.120300
     20 C26         1.3100   -2.6250   -2.1380 ca        1 2AZ     -0.146300
     21 C29        -0.8420   -2.6320   -3.2450 ca        1 2AZ     -0.118500
     22 O37         1.2660   -5.5440   -0.0760 o         1 2AZ     -0.537500
     23 N38         3.5880   -0.3970    1.1620 n4        1 2AZ     -0.596200
     24 C39         3.5210   -0.2540    2.6440 c3        1 2AZ      0.107800
     25 C42         4.6650    0.5800    3.2280 c3        1 2AZ     -0.133400
     26 C45         4.5690    0.5020    4.7500 c3        1 2AZ      0.104800
     27 N48         5.6920    1.1940    5.4450 n4        1 2AZ     -0.837600
     28 C51         4.7470   -1.3020    0.7290 c         1 2AZ      0.577700
     29 O52         5.2000   -2.0210    1.6150 o         1 2AZ     -0.461100
     30 C53         5.2100   -1.2010   -0.6480 ca        1 2AZ     -0.239600
     31 C54         6.1210   -2.1930   -1.0690 ca        1 2AZ     -0.058000
     32 C56         6.6360   -2.1690   -2.3590 ca        1 2AZ     -0.136500
     33 C58         6.2630   -1.1610   -3.2590 ca        1 2AZ      0.040700
     34 C59         5.3570   -0.1710   -2.8340 ca        1 2AZ     -0.136500
     35 C61         4.8350   -0.1870   -1.5500 ca        1 2AZ     -0.058000
     36 C63         6.8000   -1.1430   -4.6350 c3        1 2AZ     -0.092800
     37 H11        -0.5740   -1.0790    0.5490 hc        1 2AZ      0.099950
     38 H12        -0.8370    0.5630   -0.2170 hc        1 2AZ      0.099950
     39 H9          2.5370   -0.9540   -0.5890 hx        1 2AZ      0.140700
     40 H16        -0.5760   -5.4070    4.9740 ha        1 2AZ      0.197000
     41 H33         1.1440   -0.1510   -4.4900 ha        1 2AZ      0.150000
     42 H35         2.7200   -1.1200   -2.8260 ha        1 2AZ      0.131500
     43 H4          1.6030    1.1240   -0.0540 hc        1 2AZ      0.091700
     44 H61A        0.3530    0.0640    2.6630 hc        1 2AZ      0.099950
     45 H62         0.1360    1.6990    1.8790 hc        1 2AZ      0.099950
     46 H18         0.2370   -2.7920    4.8260 h4        1 2AZ      0.185000
     47 H231        3.2770   -2.7350   -1.2240 h1        1 2AZ      0.082200
     48 H232        2.4510   -4.3270   -1.5290 h1        1 2AZ      0.082200
     49 H29        -1.8410   -3.0750   -3.3820 ha        1 2AZ      0.150000
     50 H391        3.5580   -1.2890    3.0980 hx        1 2AZ      0.132200
     51 H392        2.5270    0.2220    2.8970 hx        1 2AZ      0.132200
     52 H421        4.5890    1.6460    2.8860 hc        1 2AZ      0.085200
     53 H422        5.6520    0.1670    2.8810 hc        1 2AZ      0.085200
     54 H451        3.6040    0.9750    5.1010 hx        1 2AZ      0.127700
     55 H452        4.5790   -0.5800    5.0820 hx        1 2AZ      0.127700
     56 H481        6.5910    0.7720    5.1830 hn        1 2AZ      0.473800
     57 H482        5.7130    2.1900    5.1970 hn        1 2AZ      0.473800
     58 H54         6.4220   -2.9920   -0.3680 ha        1 2AZ      0.147500
     59 H56         7.3470   -2.9520   -2.6780 ha        1 2AZ      0.175500
     60 H59         5.0620    0.6280   -3.5360 ha        1 2AZ      0.175500
     61 H61         4.1330    0.6140   -1.2700 ha        1 2AZ      0.147500
     62 H631        6.8260   -0.1040   -5.0490 hc        1 2AZ      0.081700
     63 H632        7.8360   -1.5670   -4.6700 hc        1 2AZ      0.081700
     64 H633        6.1480   -1.7680   -5.3010 hc        1 2AZ      0.081700
     65 H27        -0.2610   -4.0590   -1.7170 ha        1 2AZ      0.131500
     66 H381        3.7770    0.5370    0.7720 hn        1 2AZ      0.444800
     67 H483        5.5720    1.1090    6.4630 hn        1 2AZ      0.473800
     68 H31        -1.1380   -1.1200   -4.7690 ha        1 2AZ      0.156000
@<TRIPOS>BOND
     1    1   12 1   
     2    1   13 1   
     3    1   37 1   
     4    1   38 1   
     5    2    3 1   
     6    2   12 1   
     7    2   23 1   
     8    2   39 1   
     9    3   14 2   
    10    3   18 1   
    11    4    5 2   
    12    4    7 1   
    13    4   15 1   
    14    5    6 1   
    15    5   17 1   
    16    6   16 2   
    17    6   40 1   
    18    7   18 1   
    19    7   22 2   
    20    8   20 ar  
    21    8   21 ar  
    22    8   65 1   
    23    9   10 ar  
    24    9   21 ar  
    25    9   68 1   
    26   10   11 ar  
    27   10   41 1   
    28   11   20 ar  
    29   11   42 1   
    30   12   13 1   
    31   12   43 1   
    32   13   44 1   
    33   13   45 1   
    34   14   15 1   
    35   15   16 1   
    36   16   46 1   
    37   18   19 1   
    38   19   20 1   
    39   19   47 1   
    40   19   48 1   
    41   21   49 1   
    42   23   24 1   
    43   23   28 1   
    44   23   66 1   
    45   24   25 1   
    46   24   50 1   
    47   24   51 1   
    48   25   26 1   
    49   25   52 1   
    50   25   53 1   
    51   26   27 1   
    52   26   54 1   
    53   26   55 1   
    54   27   56 1   
    55   27   57 1   
    56   27   67 1   
    57   28   29 2   
    58   28   30 1   
    59   30   31 ar  
    60   30   35 ar  
    61   31   32 ar  
    62   31   58 1   
    63   32   33 ar  
    64   32   59 1   
    65   33   34 ar  
    66   33   36 1   
    67   34   35 ar  
    68   34   60 1   
    69   35   61 1   
    70   36   62 1   
    71   36   63 1   
    72   36   64 1   
@<TRIPOS>SUBSTRUCTURE
     1 2AZ         1 TEMP              0 ****  ****    0 ROOT
