@<TRIPOS>MOLECULE
2B0
   26    25     1     0     0
SMALL
bcc


@<TRIPOS>ATOM
      1 OAE         0.5350   -0.0740   -0.5020 o         1 2B0     -0.932500
      2 PAP         1.8670   -0.1140    0.2110 p5        1 2B0      1.189100
      3 OAF         1.8060   -0.0770    1.7170 o         1 2B0     -0.932500
      4 OAC         2.9030   -1.0270   -0.3940 o         1 2B0     -0.932500
      5 CAJ         2.5980    1.5050   -0.1320 c2        1 2B0     -0.064600
      6 CAI         1.8610    2.3710   -0.8430 ce        1 2B0     -0.271200
      7 CAN         2.2290    3.6930   -1.2410 ca        1 2B0      0.029900
      8 CAH         3.4370    4.2870   -0.7330 ca        1 2B0      0.316200
      9 NAK         3.8810    5.5020   -1.0190 nb        1 2B0     -0.636000
     10 CAL         3.1460    6.2750   -1.8710 ca        1 2B0      0.202600
     11 CAA         3.6320    7.6450   -2.2030 c3        1 2B0     -0.116400
     12 CAM         1.9420    5.7910   -2.4290 ca        1 2B0      0.079800
     13 OAD         1.1840    6.5380   -3.3020 oh        1 2B0     -0.476100
     14 CAO         1.4650    4.4930   -2.1240 ca        1 2B0     -0.260600
     15 C1          0.2220    3.9940   -2.7200 c         1 2B0      0.584500
     16 H3         -1.1930    1.0220   -2.4730 ha        1 2B0     -0.001000
     17 H4          3.6030    1.6890    0.2500 ha        1 2B0      0.089000
     18 H5         -0.8020    0.7110   -2.0040 ha        1 2B0     -0.001000
     19 H6          0.8610    1.9790   -1.1400 ha        1 2B0      0.182000
     20 H7          4.0620    3.6960   -0.0370 h4        1 2B0      0.031100
     21 H8          4.5950    7.8810   -1.6870 hc        1 2B0      0.023033
     22 H9          3.7970    7.7380   -3.3060 hc        1 2B0      0.023033
     23 H10         2.8750    8.4080   -1.8910 hc        1 2B0      0.023033
     24 H11         1.6060    7.4020   -3.3990 ho        1 2B0      0.392000
     25 H12         0.0090    2.9080   -2.5620 h4        1 2B0      0.048200
     26 O2         -0.5660    4.6970   -3.3680 o         1 2B0     -0.590100
@<TRIPOS>BOND
     1    1    2 1   
     2    2    3 1   
     3    2    4 1   
     4    2    5 1   
     5    5    6 2   
     6    5   17 1   
     7    6    7 1   
     8    6   19 1   
     9    7    8 ar  
    10    7   14 ar  
    11    8    9 ar  
    12    8   20 1   
    13    9   10 ar  
    14   10   11 1   
    15   10   12 ar  
    16   11   21 1   
    17   11   22 1   
    18   11   23 1   
    19   12   13 1   
    20   12   14 ar  
    21   13   24 1   
    22   14   15 1   
    23   15   25 1   
    24   15   26 2   
    25   16   18 1   
@<TRIPOS>SUBSTRUCTURE
     1 2B0         1 TEMP              0 ****  ****    0 ROOT
