@<TRIPOS>MOLECULE
2B0
   26    25     1     0     0
SMALL
bcc


@<TRIPOS>ATOM
      1 OAE        -0.2530    0.5800   -0.1690 o         1 2B0     -0.933167
      2 PAP         1.1890    0.1560   -0.0340 p5        1 2B0      1.190100
      3 OAF         1.6930   -0.0400    1.3730 o         1 2B0     -0.933167
      4 OAC         1.6740   -0.8420   -1.0570 o         1 2B0     -0.933167
      5 CAJ         2.1290    1.6240   -0.5210 c2        1 2B0     -0.064600
      6 CAI         1.4240    2.7220   -0.8290 ce        1 2B0     -0.271200
      7 CAN         1.9410    3.9870   -1.2450 ca        1 2B0      0.029900
      8 CAH         3.3460    4.2690   -1.1210 ca        1 2B0      0.317200
      9 NAK         3.9390    5.4060   -1.4590 nb        1 2B0     -0.636000
     10 CAL         3.1680    6.4090   -1.9730 ca        1 2B0      0.203600
     11 CAA         3.8200    7.6940   -2.3550 c3        1 2B0     -0.116400
     12 CAM         1.7760    6.2380   -2.1410 ca        1 2B0      0.078800
     13 OAD         0.9740    7.2210   -2.6760 oh        1 2B0     -0.477100
     14 CAO         1.1420    5.0250   -1.7820 ca        1 2B0     -0.260600
     15 C1         -0.2990    4.8380   -1.9810 c         1 2B0      0.589500
     16 H3          2.4020   -3.0780   -2.6420 ha        1 2B0     -0.002500
     17 H4          3.2160    1.5380   -0.5490 ha        1 2B0      0.089000
     18 H5          2.2160   -2.5470   -2.2510 ha        1 2B0     -0.002500
     19 H6          0.3210    2.5950   -0.7420 ha        1 2B0      0.184000
     20 H7          4.0040    3.4840   -0.7050 h4        1 2B0      0.032100
     21 H8          4.9210    7.6750   -2.1660 hc        1 2B0      0.023367
     22 H9          3.6580    7.8990   -3.4430 hc        1 2B0      0.023367
     23 H10         3.3810    8.5380   -1.7650 hc        1 2B0      0.023367
     24 H11         1.5240    7.9990   -2.8380 ho        1 2B0      0.393000
     25 H12        -0.6620    3.7880   -1.8850 h4        1 2B0      0.043200
     26 O2         -1.0890    5.7550   -2.2480 o         1 2B0     -0.590100
@<TRIPOS>BOND
     1    1    2 1   
     2    2    3 1   
     3    2    4 1   
     4    2    5 1   
     5    5    6 2   
     6    5   17 1   
     7    6    7 1   
     8    6   19 1   
     9    7    8 ar  
    10    7   14 ar  
    11    8    9 ar  
    12    8   20 1   
    13    9   10 ar  
    14   10   11 1   
    15   10   12 ar  
    16   11   21 1   
    17   11   22 1   
    18   11   23 1   
    19   12   13 1   
    20   12   14 ar  
    21   13   24 1   
    22   14   15 1   
    23   15   25 1   
    24   15   26 2   
    25   16   18 1   
@<TRIPOS>SUBSTRUCTURE
     1 2B0         1 TEMP              0 ****  ****    0 ROOT
