@<TRIPOS>MOLECULE
2B1
   39    42     1     0     0
SMALL
bcc


@<TRIPOS>ATOM
      1 OAC         1.2340    1.9660    2.3260 o         1 2B1     -0.857500
      2 PAZ         2.6750    2.2940    2.2390 p5        1 2B1      1.521800
      3 OAD         2.8630    3.7180    3.0000 os        1 2B1     -0.661200
      4 OAE         3.7600    1.3730    2.6210 o         1 2B1     -0.857500
      5 OAQ         2.9270    2.6520    0.6340 os        1 2B1     -0.575200
      6 CAL         1.8450    3.1740   -0.0700 c3        1 2B1      0.245700
      7 CAT         2.3380    4.0450   -1.1940 ca        1 2B1     -0.136600
      8 CAJ         3.3560    3.5090   -2.0240 ca        1 2B1      0.385200
      9 NAO         3.8770    4.1210   -3.0940 nb        1 2B1     -0.686000
     10 CAS         3.4330    5.3700   -3.3840 ca        1 2B1      0.346600
     11 CAA         3.9850    6.0990   -4.5640 c3        1 2B1     -0.120400
     12 CAU         2.4480    6.0010   -2.5870 ca        1 2B1     -0.006200
     13 OAB         2.0820    7.2860   -2.9390 oh        1 2B1     -0.536100
     14 CAW         1.8570    5.3230   -1.4970 ca        1 2B1     -0.087300
     15 CAK         0.7920    6.0170   -0.6950 c3        1 2B1      0.133100
     16 NAM         1.3540    6.7640    0.4490 n2        1 2B1     -0.348200
     17 NAN         1.5470    6.0530    1.4470 ne        1 2B1     -0.247300
     18 CAV         2.1550    6.3890    2.6260 ce        1 2B1      0.319600
     19 NAP         2.8740    7.5570    2.9680 nf        1 2B1     -0.591100
     20 CAX         3.5360    7.3070    4.1010 ca        1 2B1      0.123400
     21 CAH         4.4080    8.2210    4.8000 ca        1 2B1     -0.140000
     22 CAF         5.0420    7.8290    5.9390 ca        1 2B1     -0.118000
     23 CAG         4.8860    6.5140    6.4690 ca        1 2B1     -0.298000
     24 CAI         4.0810    5.6090    5.8240 ca        1 2B1      0.042000
     25 CAY         3.3660    5.9550    4.6700 ca        1 2B1     -0.334500
     26 SAR         2.3010    5.1260    3.7560 s4        1 2B1      0.430700
     27 H3          1.1510    3.7110    0.6280 h1        1 2B1      0.034700
     28 H4          1.2680    2.3260   -0.5520 h1        1 2B1      0.034700
     29 H5          3.7800    2.5190   -1.7650 h4        1 2B1      0.037100
     30 H6          3.3080    5.9540   -5.4430 hc        1 2B1      0.033033
     31 H7          4.0350    7.1920   -4.3340 hc        1 2B1      0.033033
     32 H8          5.0060    5.7380   -4.8380 hc        1 2B1      0.033033
     33 H9          1.9160    7.7660   -2.1110 ho        1 2B1      0.438000
     34 H10         0.0080    5.2540   -0.4170 h1        1 2B1      0.031700
     35 H11         0.2780    6.7910   -1.3310 h1        1 2B1      0.031700
     36 H12         4.5480    9.2280    4.3850 ha        1 2B1      0.100000
     37 H13         5.7040    8.5260    6.4750 ha        1 2B1      0.073000
     38 H14         5.4250    6.2440    7.3830 ha        1 2B1      0.083000
     39 H15         3.9860    4.5830    6.2150 ha        1 2B1      0.092000
@<TRIPOS>BOND
     1    1    2 1   
     2    2    3 1   
     3    2    4 1   
     4    2    5 1   
     5    3   26 1   
     6    5    6 1   
     7    6    7 1   
     8    6   27 1   
     9    6   28 1   
    10    7    8 ar  
    11    7   14 ar  
    12    8    9 ar  
    13    8   29 1   
    14    9   10 ar  
    15   10   11 1   
    16   10   12 ar  
    17   11   30 1   
    18   11   31 1   
    19   11   32 1   
    20   12   13 1   
    21   12   14 ar  
    22   13   33 1   
    23   14   15 1   
    24   15   16 1   
    25   15   34 1   
    26   15   35 1   
    27   16   17 2   
    28   17   18 1   
    29   18   19 2   
    30   18   26 1   
    31   19   20 1   
    32   20   21 ar  
    33   20   25 ar  
    34   21   22 ar  
    35   21   36 1   
    36   22   23 ar  
    37   22   37 1   
    38   23   24 ar  
    39   23   38 1   
    40   24   25 ar  
    41   24   39 1   
    42   25   26 1   
@<TRIPOS>SUBSTRUCTURE
     1 2B1         1 TEMP              0 ****  ****    0 ROOT
