@<TRIPOS>MOLECULE
2B1
   39    42     1     0     0
SMALL
bcc


@<TRIPOS>ATOM
      1 OAC         1.0950    2.0430    2.3380 o         1 2B1     -0.857500
      2 PAZ         2.5470    2.3200    2.2680 p5        1 2B1      1.521800
      3 OAD         2.7750    3.7460    3.0160 os        1 2B1     -0.662200
      4 OAE         3.5950    1.3670    2.6750 o         1 2B1     -0.857500
      5 OAQ         2.8340    2.6520    0.6630 os        1 2B1     -0.575200
      6 CAL         1.7820    3.2030   -0.0620 c3        1 2B1      0.245700
      7 CAT         2.3200    4.0440   -1.1880 ca        1 2B1     -0.136600
      8 CAJ         3.3300    3.4630   -1.9970 ca        1 2B1      0.385200
      9 NAO         3.8880    4.0460   -3.0660 nb        1 2B1     -0.686000
     10 CAS         3.4910    5.3060   -3.3760 ca        1 2B1      0.346600
     11 CAA         4.0850    6.0020   -4.5550 c3        1 2B1     -0.120400
     12 CAU         2.5170    5.9790   -2.6000 ca        1 2B1     -0.006200
     13 OAB         2.2010    7.2720   -2.9710 oh        1 2B1     -0.536100
     14 CAW         1.8880    5.3340   -1.5110 ca        1 2B1     -0.087300
     15 CAK         0.8370    6.0730   -0.7330 c3        1 2B1      0.133100
     16 NAM         1.4080    6.8140    0.4120 n2        1 2B1     -0.348200
     17 NAN         1.5620    6.1070    1.4200 ne        1 2B1     -0.247300
     18 CAV         2.1640    6.4350    2.6040 ce        1 2B1      0.319600
     19 NAP         2.9190    7.5820    2.9440 nf        1 2B1     -0.591100
     20 CAX         3.5560    7.3210    4.0890 ca        1 2B1      0.123400
     21 CAH         4.4490    8.2120    4.7910 ca        1 2B1     -0.140000
     22 CAF         5.0530    7.8110    5.9430 ca        1 2B1     -0.118000
     23 CAG         4.8430    6.5090    6.4840 ca        1 2B1     -0.298000
     24 CAI         4.0170    5.6240    5.8370 ca        1 2B1      0.042000
     25 CAY         3.3300    5.9820    4.6700 ca        1 2B1     -0.334500
     26 SAR         2.2510    5.1800    3.7490 s4        1 2B1      0.430700
     27 H3          1.0970    3.7720    0.6200 h1        1 2B1      0.034700
     28 H4          1.1820    2.3700   -0.5440 h1        1 2B1      0.034700
     29 H5          3.7160    2.4630   -1.7220 h4        1 2B1      0.037100
     30 H6          3.4160    5.8720   -5.4420 hc        1 2B1      0.033033
     31 H7          4.1700    7.0950   -4.3360 hc        1 2B1      0.033033
     32 H8          5.0960    5.6030   -4.8110 hc        1 2B1      0.033033
     33 H9          2.0400    7.7660   -2.1500 ho        1 2B1      0.438000
     34 H10         0.0230    5.3410   -0.4580 h1        1 2B1      0.031700
     35 H11         0.3590    6.8580   -1.3840 h1        1 2B1      0.031700
     36 H12         4.6290    9.2090    4.3670 ha        1 2B1      0.100000
     37 H13         5.7300    8.4910    6.4810 ha        1 2B1      0.073000
     38 H14         5.3600    6.2300    7.4100 ha        1 2B1      0.083000
     39 H15         3.8810    4.6060    6.2380 ha        1 2B1      0.092000
@<TRIPOS>BOND
     1    1    2 1   
     2    2    3 1   
     3    2    4 1   
     4    2    5 1   
     5    3   26 1   
     6    5    6 1   
     7    6    7 1   
     8    6   27 1   
     9    6   28 1   
    10    7    8 ar  
    11    7   14 ar  
    12    8    9 ar  
    13    8   29 1   
    14    9   10 ar  
    15   10   11 1   
    16   10   12 ar  
    17   11   30 1   
    18   11   31 1   
    19   11   32 1   
    20   12   13 1   
    21   12   14 ar  
    22   13   33 1   
    23   14   15 1   
    24   15   16 1   
    25   15   34 1   
    26   15   35 1   
    27   16   17 2   
    28   17   18 1   
    29   18   19 2   
    30   18   26 1   
    31   19   20 1   
    32   20   21 ar  
    33   20   25 ar  
    34   21   22 ar  
    35   21   36 1   
    36   22   23 ar  
    37   22   37 1   
    38   23   24 ar  
    39   23   38 1   
    40   24   25 ar  
    41   24   39 1   
    42   25   26 1   
@<TRIPOS>SUBSTRUCTURE
     1 2B1         1 TEMP              0 ****  ****    0 ROOT
