@<TRIPOS>MOLECULE
2B2
   35    36     1     0     0
SMALL
bcc


@<TRIPOS>ATOM
      1 F3          0.1140   -0.0680    0.6640 f         1 2B2     -0.214633
      2 C14         1.4610   -0.0290    0.4160 c3        1 2B2      0.647900
      3 F1          2.0550    0.1190    1.6420 f         1 2B2     -0.214633
      4 F2          1.7980   -1.2820   -0.0130 f         1 2B2     -0.214633
      5 C13         1.8690    1.0770   -0.6050 c3        1 2B2     -0.170400
      6 C12         1.4650    2.4350   -0.0570 c3        1 2B2      0.097800
      7 N2          1.8290    3.5530   -0.9690 ny        1 2B2     -0.677800
      8 C11         1.4130    4.9270   -0.4290 c         1 2B2      0.581700
      9 O           0.6790    4.8990    0.5480 o         1 2B2     -0.427100
     10 C8          1.9600    6.0720   -1.1370 ca        1 2B2     -0.232600
     11 C7          1.8150    7.3260   -0.5100 ca        1 2B2     -0.059000
     12 C6          2.3090    8.4730   -1.1170 ca        1 2B2     -0.124500
     13 C9          2.5970    5.9990   -2.3890 ca        1 2B2     -0.059000
     14 C10         3.0840    7.1470   -2.9930 ca        1 2B2     -0.124500
     15 C5          2.9500    8.4050   -2.3650 ca        1 2B2      0.007500
     16 C3          3.4650    9.6080   -2.9970 cc        1 2B2      0.330800
     17 N1          4.3950    9.5370   -4.0380 nc        1 2B2     -0.623000
     18 C4          3.0980   10.9140   -2.6450 cd        1 2B2     -0.233400
     19 S           3.8880   12.0220   -3.5820 ss        1 2B2      0.015700
     20 C2          4.7090   10.7700   -4.4400 cd        1 2B2      0.404700
     21 C1          5.6670   11.0950   -5.5180 c3        1 2B2     -0.141400
     22 H1          1.3530    0.8460   -1.5730 hc        1 2B2      0.103700
     23 H2          2.9770    0.9990   -0.7570 hc        1 2B2      0.103700
     24 H3          0.3470    2.4670    0.1150 hx        1 2B2      0.132700
     25 H4          1.9670    2.6170    0.9400 hx        1 2B2      0.132700
     26 H5          2.8440    3.5610   -1.1180 hn        1 2B2      0.456300
     27 H6          1.3080    7.3920    0.4690 ha        1 2B2      0.144500
     28 H7          2.1990    9.4430   -0.6040 ha        1 2B2      0.176000
     29 H8          2.7110    5.0470   -2.9290 ha        1 2B2      0.144500
     30 H9          3.5800    7.0740   -3.9770 ha        1 2B2      0.176000
     31 H10         2.3790   11.1750   -1.8690 h4        1 2B2      0.189000
     32 H11         5.3370   10.6400   -6.4860 hc        1 2B2      0.071367
     33 H12         5.7390   12.2030   -5.6490 hc        1 2B2      0.071367
     34 H13         6.6840   10.6950   -5.2720 hc        1 2B2      0.071367
     35 H22         1.3730    3.4160   -1.8770 hn        1 2B2      0.456300
@<TRIPOS>BOND
     1    1    2 1   
     2    2    3 1   
     3    2    4 1   
     4    2    5 1   
     5    5    6 1   
     6    5   22 1   
     7    5   23 1   
     8    6    7 1   
     9    6   24 1   
    10    6   25 1   
    11    7    8 1   
    12    7   26 1   
    13    7   35 1   
    14    8    9 2   
    15    8   10 1   
    16   10   11 ar  
    17   10   13 ar  
    18   11   12 ar  
    19   11   27 1   
    20   12   15 ar  
    21   12   28 1   
    22   13   14 ar  
    23   13   29 1   
    24   14   15 ar  
    25   14   30 1   
    26   15   16 1   
    27   16   17 1   
    28   16   18 2   
    29   17   20 2   
    30   18   19 1   
    31   18   31 1   
    32   19   20 1   
    33   20   21 1   
    34   21   32 1   
    35   21   33 1   
    36   21   34 1   
@<TRIPOS>SUBSTRUCTURE
     1 2B2         1 TEMP              0 ****  ****    0 ROOT
