@<TRIPOS>MOLECULE
2B2
   35    36     1     0     0
SMALL
bcc


@<TRIPOS>ATOM
      1 F3          0.1130   -0.0650    0.6720 f         1 2B2     -0.214633
      2 C14         1.4580   -0.0270    0.4160 c3        1 2B2      0.647900
      3 F1          2.0610    0.1190    1.6370 f         1 2B2     -0.214633
      4 F2          1.7910   -1.2810   -0.0160 f         1 2B2     -0.214633
      5 C13         1.8610    1.0780   -0.6080 c3        1 2B2     -0.170400
      6 C12         1.4630    2.4370   -0.0570 c3        1 2B2      0.097800
      7 N2          1.8230    3.5540   -0.9700 n4        1 2B2     -0.677800
      8 C11         1.4130    4.9280   -0.4270 c         1 2B2      0.581700
      9 O           0.6810    4.9020    0.5520 o         1 2B2     -0.427100
     10 C8          1.9600    6.0740   -1.1350 ca        1 2B2     -0.232600
     11 C7          1.8230    7.3260   -0.5050 ca        1 2B2     -0.059000
     12 C6          2.3190    8.4730   -1.1120 ca        1 2B2     -0.124000
     13 C9          2.5910    6.0000   -2.3910 ca        1 2B2     -0.059000
     14 C10         3.0790    7.1480   -2.9950 ca        1 2B2     -0.124000
     15 C5          2.9540    8.4050   -2.3640 ca        1 2B2      0.007500
     16 C3          3.4700    9.6070   -2.9950 cc        1 2B2      0.330800
     17 N1          4.3960    9.5350   -4.0400 nc        1 2B2     -0.623000
     18 C4          3.1100   10.9130   -2.6390 cd        1 2B2     -0.233400
     19 S           3.9000   12.0200   -3.5770 ss        1 2B2      0.015700
     20 C2          4.7120   10.7670   -4.4410 cd        1 2B2      0.404700
     21 C1          5.6660   11.0900   -5.5230 c3        1 2B2     -0.141400
     22 H1          1.3390    0.8480   -1.5720 hc        1 2B2      0.103700
     23 H2          2.9680    0.9990   -0.7670 hc        1 2B2      0.103700
     24 H3          0.3450    2.4700    0.1220 hx        1 2B2      0.132700
     25 H4          1.9710    2.6170    0.9370 hx        1 2B2      0.132700
     26 H5          2.8370    3.5610   -1.1250 hn        1 2B2      0.456300
     27 H6          1.3210    7.3920    0.4760 ha        1 2B2      0.144500
     28 H7          2.2160    9.4410   -0.5960 ha        1 2B2      0.176000
     29 H8          2.6980    5.0490   -2.9330 ha        1 2B2      0.144500
     30 H9          3.5710    7.0750   -3.9810 ha        1 2B2      0.176000
     31 H10         2.3950   11.1750   -1.8590 h4        1 2B2      0.189000
     32 H11         5.3300   10.6380   -6.4910 hc        1 2B2      0.071367
     33 H12         5.7430   12.1980   -5.6520 hc        1 2B2      0.071367
     34 H13         6.6830   10.6860   -5.2830 hc        1 2B2      0.071367
     35 H22         1.3610    3.4190   -1.8760 hn        1 2B2      0.456300
@<TRIPOS>BOND
     1    1    2 1   
     2    2    3 1   
     3    2    4 1   
     4    2    5 1   
     5    5    6 1   
     6    5   22 1   
     7    5   23 1   
     8    6    7 1   
     9    6   24 1   
    10    6   25 1   
    11    7    8 1   
    12    7   26 1   
    13    7   35 1   
    14    8    9 2   
    15    8   10 1   
    16   10   11 ar  
    17   10   13 ar  
    18   11   12 ar  
    19   11   27 1   
    20   12   15 ar  
    21   12   28 1   
    22   13   14 ar  
    23   13   29 1   
    24   14   15 ar  
    25   14   30 1   
    26   15   16 1   
    27   16   17 1   
    28   16   18 2   
    29   17   20 2   
    30   18   19 1   
    31   18   31 1   
    32   19   20 1   
    33   20   21 1   
    34   21   32 1   
    35   21   33 1   
    36   21   34 1   
@<TRIPOS>SUBSTRUCTURE
     1 2B2         1 TEMP              0 ****  ****    0 ROOT
