@<TRIPOS>MOLECULE
2B2
   35    36     1     0     0
SMALL
bcc


@<TRIPOS>ATOM
      1 F3          0.0970   -0.0640    0.6530 f         1 2B2     -0.214633
      2 C14         1.4440   -0.0290    0.4090 c3        1 2B2      0.647900
      3 F1          2.0360    0.1140    1.6360 f         1 2B2     -0.214633
      4 F2          1.7780   -1.2830   -0.0220 f         1 2B2     -0.214633
      5 C13         1.8590    1.0770   -0.6090 c3        1 2B2     -0.170400
      6 C12         1.4580    2.4360   -0.0590 c3        1 2B2      0.097800
      7 N2          1.8280    3.5540   -0.9680 n4        1 2B2     -0.677800
      8 C11         1.4170    4.9280   -0.4260 c         1 2B2      0.581700
      9 O           0.6840    4.9010    0.5520 o         1 2B2     -0.427100
     10 C8          1.9640    6.0730   -1.1340 ca        1 2B2     -0.232600
     11 C7          1.8180    7.3270   -0.5080 ca        1 2B2     -0.059000
     12 C6          2.3140    8.4740   -1.1160 ca        1 2B2     -0.124500
     13 C9          2.6030    5.9990   -2.3860 ca        1 2B2     -0.059000
     14 C10         3.0900    7.1470   -2.9900 ca        1 2B2     -0.124500
     15 C5          2.9560    8.4050   -2.3630 ca        1 2B2      0.007500
     16 C3          3.4710    9.6070   -2.9950 cc        1 2B2      0.330800
     17 N1          4.4020    9.5370   -4.0350 nc        1 2B2     -0.623000
     18 C4          3.1030   10.9140   -2.6450 cd        1 2B2     -0.233400
     19 S           3.8940   12.0210   -3.5810 ss        1 2B2      0.015700
     20 C2          4.7160   10.7690   -4.4380 cd        1 2B2      0.404700
     21 C1          5.6740   11.0930   -5.5150 c3        1 2B2     -0.141400
     22 H1          2.9670    0.9950   -0.7580 hc        1 2B2      0.103700
     23 H2          1.3440    0.8500   -1.5790 hc        1 2B2      0.103700
     24 H3          0.3400    2.4710    0.1100 hx        1 2B2      0.132700
     25 H4          1.9590    2.6140    0.9390 hx        1 2B2      0.132700
     26 H5          1.3740    3.4210   -1.8780 hn        1 2B2      0.456300
     27 H6          1.3110    7.3940    0.4700 ha        1 2B2      0.144500
     28 H7          2.2030    9.4440   -0.6030 ha        1 2B2      0.176000
     29 H8          2.7170    5.0470   -2.9250 ha        1 2B2      0.144500
     30 H9          3.5880    7.0730   -3.9730 ha        1 2B2      0.176000
     31 H10         2.3840   11.1750   -1.8690 h4        1 2B2      0.189000
     32 H11         5.3450   10.6370   -6.4840 hc        1 2B2      0.071367
     33 H12         6.6910   10.6940   -5.2690 hc        1 2B2      0.071367
     34 H13         5.7470   12.2010   -5.6470 hc        1 2B2      0.071367
     35 H22         2.8430    3.5580   -1.1150 hn        1 2B2      0.456300
@<TRIPOS>BOND
     1    1    2 1   
     2    2    3 1   
     3    2    4 1   
     4    2    5 1   
     5    5    6 1   
     6    5   22 1   
     7    5   23 1   
     8    6    7 1   
     9    6   24 1   
    10    6   25 1   
    11    7    8 1   
    12    7   26 1   
    13    7   35 1   
    14    8    9 2   
    15    8   10 1   
    16   10   11 ar  
    17   10   13 ar  
    18   11   12 ar  
    19   11   27 1   
    20   12   15 ar  
    21   12   28 1   
    22   13   14 ar  
    23   13   29 1   
    24   14   15 ar  
    25   14   30 1   
    26   15   16 1   
    27   16   17 1   
    28   16   18 2   
    29   17   20 2   
    30   18   19 1   
    31   18   31 1   
    32   19   20 1   
    33   20   21 1   
    34   21   32 1   
    35   21   33 1   
    36   21   34 1   
@<TRIPOS>SUBSTRUCTURE
     1 2B2         1 TEMP              0 ****  ****    0 ROOT
