@<TRIPOS>MOLECULE
2B3
   50    51     1     0     0
SMALL
bcc


@<TRIPOS>ATOM
      1 F3          3.1170    2.0540    1.9950 f         1 2B3     -0.212300
      2 C17         3.5500    1.6400    0.7630 c3        1 2B3      0.648900
      3 F1          4.5440    2.5180    0.4130 f         1 2B3     -0.212300
      4 F2          4.1650    0.4370    0.9580 f         1 2B3     -0.212300
      5 C16         2.4090    1.5640   -0.2990 c3        1 2B3     -0.174400
      6 C15         1.7570    2.9320   -0.4210 c3        1 2B3      0.101800
      7 N3          0.8020    3.0210   -1.5610 n4        1 2B3     -0.676800
      8 C14         0.1380    4.3930   -1.6200 c         1 2B3      0.572700
      9 O3         -1.0500    4.3700   -1.3340 o         1 2B3     -0.401100
     10 C11         0.9640    5.5430   -1.9810 ca        1 2B3     -0.195600
     11 C10         0.4480    6.8070   -1.6390 ca        1 2B3     -0.060000
     12 C9          1.1630    7.9600   -1.9500 ca        1 2B3     -0.110000
     13 C12         2.1890    5.4550   -2.6600 ca        1 2B3     -0.060000
     14 C13         2.8960    6.6110   -2.9770 ca        1 2B3     -0.110000
     15 C8          2.3950    7.8730   -2.6150 ca        1 2B3     -0.040500
     16 C6          3.1450    9.0930   -2.8970 cc        1 2B3      0.366800
     17 N2          3.9010    9.2660   -4.0440 nc        1 2B3     -0.623000
     18 C7          3.1690   10.2010   -2.0270 cd        1 2B3     -0.251400
     19 S2          4.0990   11.4090   -2.6320 ss        1 2B3      0.190700
     20 C5          4.4620   10.4930   -4.0140 cd        1 2B3      0.229700
     21 C4          5.3700   11.0010   -5.0820 c3        1 2B3      0.107500
     22 N1          4.9790   10.5910   -6.4510 n4        1 2B3     -0.700900
     23 S1          5.9130   11.5780   -7.8330 s6        1 2B3      1.401900
     24 O1          4.8300   12.1180   -8.4850 o         1 2B3     -0.546300
     25 O2          6.7780   12.3400   -7.0840 o         1 2B3     -0.546300
     26 C3          6.6060   10.2870   -8.5940 c3        1 2B3     -0.419600
     27 C2          7.4380   10.7700   -9.7900 c3        1 2B3     -0.057400
     28 C1          8.0830    9.6110  -10.5030 c3        1 2B3     -0.098100
     29 H1          1.6770    0.7860    0.0440 hc        1 2B3      0.111200
     30 H2          2.8720    1.2230   -1.2610 hc        1 2B3      0.111200
     31 H3          2.5510    3.7240   -0.5710 hx        1 2B3      0.126200
     32 H4          1.1930    3.1680    0.5310 hx        1 2B3      0.126200
     33 H5          1.2920    2.8370   -2.4410 hn        1 2B3      0.462800
     34 H6         -0.5280    6.8840   -1.1250 ha        1 2B3      0.157500
     35 H7          0.7480    8.9450   -1.6760 ha        1 2B3      0.171000
     36 H8          2.6130    4.4870   -2.9680 ha        1 2B3      0.157500
     37 H9          3.8560    6.5310   -3.5120 ha        1 2B3      0.171000
     38 H10         2.6440   10.2380   -1.0680 h4        1 2B3      0.213000
     39 H11         5.3920   12.1330   -5.0490 hx        1 2B3      0.119700
     40 H12         6.4220   10.6260   -4.8920 hx        1 2B3      0.119700
     41 H13         5.1110    9.5850   -6.5370 hn        1 2B3      0.454300
     42 H14         7.3090    9.6800   -7.9530 h1        1 2B3      0.162700
     43 H15         5.8750    9.5340   -9.0100 h1        1 2B3      0.162700
     44 H16         6.7710   11.3230  -10.5050 hc        1 2B3      0.078200
     45 H17         8.2360   11.4730   -9.4250 hc        1 2B3      0.078200
     46 H18         8.6810    9.9930  -11.3680 hc        1 2B3      0.063367
     47 H19         7.3120    8.9040  -10.8950 hc        1 2B3      0.063367
     48 H20         8.7690    9.0520   -9.8210 hc        1 2B3      0.063367
     49 H32         0.0670    2.3070   -1.4440 hn        1 2B3      0.462800
     50 H121        3.9760   10.7610   -6.5660 hn        1 2B3      0.454300
@<TRIPOS>BOND
     1    1    2 1   
     2    2    3 1   
     3    2    4 1   
     4    2    5 1   
     5    5    6 1   
     6    5   29 1   
     7    5   30 1   
     8    6    7 1   
     9    6   31 1   
    10    6   32 1   
    11    7    8 1   
    12    7   33 1   
    13    7   49 1   
    14    8    9 2   
    15    8   10 1   
    16   10   11 ar  
    17   10   13 ar  
    18   11   12 ar  
    19   11   34 1   
    20   12   15 ar  
    21   12   35 1   
    22   13   14 ar  
    23   13   36 1   
    24   14   15 ar  
    25   14   37 1   
    26   15   16 1   
    27   16   17 1   
    28   16   18 2   
    29   17   20 2   
    30   18   19 1   
    31   18   38 1   
    32   19   20 1   
    33   20   21 1   
    34   21   22 1   
    35   21   39 1   
    36   21   40 1   
    37   22   23 1   
    38   22   41 1   
    39   22   50 1   
    40   23   24 2   
    41   23   25 2   
    42   23   26 1   
    43   26   27 1   
    44   26   42 1   
    45   26   43 1   
    46   27   28 1   
    47   27   44 1   
    48   27   45 1   
    49   28   46 1   
    50   28   47 1   
    51   28   48 1   
@<TRIPOS>SUBSTRUCTURE
     1 2B3         1 TEMP              0 ****  ****    0 ROOT
