@<TRIPOS>MOLECULE
2B3
   50    51     1     0     0
SMALL
bcc


@<TRIPOS>ATOM
      1 F3          3.0690    2.0220    1.9520 f         1 2B3     -0.212300
      2 C17         3.4890    1.6120    0.7150 c3        1 2B3      0.648900
      3 F1          4.4920    2.4790    0.3650 f         1 2B3     -0.212300
      4 F2          4.0880    0.4000    0.8980 f         1 2B3     -0.212300
      5 C16         2.3400    1.5580   -0.3400 c3        1 2B3     -0.174400
      6 C15         1.7060    2.9360   -0.4490 c3        1 2B3      0.101800
      7 N3          0.7460    3.0460   -1.5830 ny        1 2B3     -0.676800
      8 C14         0.1000    4.4260   -1.6290 c         1 2B3      0.572700
      9 O3         -1.0870    4.4170   -1.3360 o         1 2B3     -0.401100
     10 C11         0.9390    5.5690   -1.9860 ca        1 2B3     -0.195600
     11 C10         0.4380    6.8370   -1.6370 ca        1 2B3     -0.060000
     12 C9          1.1660    7.9830   -1.9430 ca        1 2B3     -0.110000
     13 C12         2.1610    5.4700   -2.6680 ca        1 2B3     -0.060000
     14 C13         2.8800    6.6190   -2.9810 ca        1 2B3     -0.110000
     15 C8          2.3960    7.8850   -2.6110 ca        1 2B3     -0.040500
     16 C6          3.1590    9.0980   -2.8890 cc        1 2B3      0.366800
     17 N2          3.9170    9.2670   -4.0350 nc        1 2B3     -0.623000
     18 C7          3.1950   10.2020   -2.0150 cd        1 2B3     -0.251400
     19 S2          4.1380   11.4030   -2.6160 ss        1 2B3      0.190700
     20 C5          4.4920   10.4870   -4.0010 cd        1 2B3      0.229700
     21 C4          5.4050   10.9890   -5.0670 c3        1 2B3      0.107500
     22 N1          5.0110   10.5860   -6.4370 ny        1 2B3     -0.700900
     23 S1          5.9520   11.5690   -7.8180 s6        1 2B3      1.401900
     24 O1          4.8720   12.1070   -8.4760 o         1 2B3     -0.546300
     25 O2          6.8120   12.3340   -7.0660 o         1 2B3     -0.546300
     26 C3          6.6500   10.2770   -8.5710 c3        1 2B3     -0.419600
     27 C2          7.4890   10.7570   -9.7620 c3        1 2B3     -0.057400
     28 C1          8.1400    9.5960  -10.4680 c3        1 2B3     -0.098100
     29 H1          1.6000    0.7870    0.0020 hc        1 2B3      0.111200
     30 H2          2.7930    1.2190   -1.3080 hc        1 2B3      0.111200
     31 H3          2.5090    3.7180   -0.5960 hx        1 2B3      0.126200
     32 H4          1.1490    3.1710    0.5080 hx        1 2B3      0.126200
     33 H5          0.0020    2.3400   -1.4690 hn        1 2B3      0.462800
     34 H6         -0.5350    6.9230   -1.1210 ha        1 2B3      0.157500
     35 H7          0.7630    8.9710   -1.6640 ha        1 2B3      0.171000
     36 H8          2.5730    4.4980   -2.9820 ha        1 2B3      0.157500
     37 H9          3.8390    6.5310   -3.5180 ha        1 2B3      0.171000
     38 H10         2.6710   10.2420   -1.0560 h4        1 2B3      0.213000
     39 H11         5.4360   12.1210   -5.0320 hx        1 2B3      0.119700
     40 H12         6.4520   10.6040   -4.8770 hx        1 2B3      0.119700
     41 H13         4.0100   10.7630   -6.5530 hn        1 2B3      0.454300
     42 H14         7.3480    9.6700   -7.9240 h1        1 2B3      0.162700
     43 H15         5.9210    9.5240   -8.9900 h1        1 2B3      0.162700
     44 H16         8.2840   11.4620   -9.3950 hc        1 2B3      0.078200
     45 H17         6.8270   11.3070  -10.4840 hc        1 2B3      0.078200
     46 H18         8.7440    9.9760  -11.3300 hc        1 2B3      0.063367
     47 H19         7.3730    8.8860  -10.8630 hc        1 2B3      0.063367
     48 H20         8.8220    9.0400   -9.7800 hc        1 2B3      0.063367
     49 H32         1.2300    2.8630   -2.4670 hn        1 2B3      0.462800
     50 H121        5.1360    9.5790   -6.5260 hn        1 2B3      0.454300
@<TRIPOS>BOND
     1    1    2 1   
     2    2    3 1   
     3    2    4 1   
     4    2    5 1   
     5    5    6 1   
     6    5   29 1   
     7    5   30 1   
     8    6    7 1   
     9    6   31 1   
    10    6   32 1   
    11    7    8 1   
    12    7   33 1   
    13    7   49 1   
    14    8    9 2   
    15    8   10 1   
    16   10   11 ar  
    17   10   13 ar  
    18   11   12 ar  
    19   11   34 1   
    20   12   15 ar  
    21   12   35 1   
    22   13   14 ar  
    23   13   36 1   
    24   14   15 ar  
    25   14   37 1   
    26   15   16 1   
    27   16   17 1   
    28   16   18 2   
    29   17   20 2   
    30   18   19 1   
    31   18   38 1   
    32   19   20 1   
    33   20   21 1   
    34   21   22 1   
    35   21   39 1   
    36   21   40 1   
    37   22   23 1   
    38   22   41 1   
    39   22   50 1   
    40   23   24 2   
    41   23   25 2   
    42   23   26 1   
    43   26   27 1   
    44   26   42 1   
    45   26   43 1   
    46   27   28 1   
    47   27   44 1   
    48   27   45 1   
    49   28   46 1   
    50   28   47 1   
    51   28   48 1   
@<TRIPOS>SUBSTRUCTURE
     1 2B3         1 TEMP              0 ****  ****    0 ROOT
