@<TRIPOS>MOLECULE
2B3
   50    51     1     0     0
SMALL
bcc


@<TRIPOS>ATOM
      1 F3          3.0760    2.0020    1.9350 f         1 2B3     -0.212300
      2 C17         3.4740    1.5920    0.6910 c3        1 2B3      0.648900
      3 F1          4.4840    2.4480    0.3320 f         1 2B3     -0.212300
      4 F2          4.0600    0.3710    0.8590 f         1 2B3     -0.212300
      5 C16         2.3110    1.5590   -0.3500 c3        1 2B3     -0.174400
      6 C15         1.6940    2.9450   -0.4430 c3        1 2B3      0.101800
      7 N3          0.7210    3.0740   -1.5640 n4        1 2B3     -0.676800
      8 C14         0.0920    4.4630   -1.5940 c         1 2B3      0.572700
      9 O3         -1.0910    4.4680   -1.2860 o         1 2B3     -0.401100
     10 C11         0.9400    5.5960   -1.9580 ca        1 2B3     -0.195600
     11 C10         0.4610    6.8690   -1.5960 ca        1 2B3     -0.060000
     12 C9          1.2000    8.0070   -1.9070 ca        1 2B3     -0.110000
     13 C12         2.1530    5.4850   -2.6550 ca        1 2B3     -0.060000
     14 C13         2.8830    6.6260   -2.9730 ca        1 2B3     -0.110000
     15 C8          2.4190    7.8960   -2.5910 ca        1 2B3     -0.040500
     16 C6          3.1940    9.1010   -2.8730 cc        1 2B3      0.366800
     17 N2          3.9390    9.2650   -4.0290 nc        1 2B3     -0.623000
     18 C7          3.2550   10.2010   -1.9960 cd        1 2B3     -0.251400
     19 S2          4.2050   11.3920   -2.6040 ss        1 2B3      0.190700
     20 C5          4.5300   10.4780   -3.9970 cd        1 2B3      0.229700
     21 C4          5.4350   10.9730   -5.0720 c3        1 2B3      0.107500
     22 N1          5.0210   10.5790   -6.4390 n4        1 2B3     -0.700900
     23 S1          5.9520   11.5580   -7.8290 s6        1 2B3      1.401900
     24 O1          4.8690   12.1020   -8.4760 o         1 2B3     -0.546300
     25 O2          6.8250   12.3170   -7.0860 o         1 2B3     -0.546300
     26 C3          6.6350   10.2630   -8.5900 c3        1 2B3     -0.419600
     27 C2          7.4660   10.7390   -9.7900 c3        1 2B3     -0.057400
     28 C1          8.1030    9.5750  -10.5020 c3        1 2B3     -0.098100
     29 H1          1.5650    0.7960   -0.0020 hc        1 2B3      0.111200
     30 H2          2.7460    1.2190   -1.3250 hc        1 2B3      0.111200
     31 H3          2.5050    3.7180   -0.5970 hx        1 2B3      0.126200
     32 H4          1.1530    3.1830    0.5220 hx        1 2B3      0.126200
     33 H5         -0.0310    2.3780   -1.4430 hn        1 2B3      0.462800
     34 H6         -0.5050    6.9650   -1.0670 ha        1 2B3      0.157500
     35 H7          0.8130    8.9990   -1.6180 ha        1 2B3      0.171000
     36 H8          2.5480    4.5100   -2.9790 ha        1 2B3      0.157500
     37 H9          3.8330    6.5280   -3.5230 ha        1 2B3      0.171000
     38 H10         2.7440   10.2430   -1.0300 h4        1 2B3      0.213000
     39 H11         5.4800   12.1050   -5.0340 hx        1 2B3      0.119700
     40 H12         6.4810   10.5760   -4.8960 hx        1 2B3      0.119700
     41 H13         4.0190   10.7660   -6.5410 hn        1 2B3      0.454300
     42 H14         7.3360    9.6510   -7.9510 h1        1 2B3      0.162700
     43 H15         5.8980    9.5140   -9.0030 h1        1 2B3      0.162700
     44 H16         8.2680   11.4390   -9.4290 hc        1 2B3      0.078200
     45 H17         6.7990   11.2930  -10.5040 hc        1 2B3      0.078200
     46 H18         8.7010    9.9530  -11.3700 hc        1 2B3      0.063367
     47 H19         7.3280    8.8700  -10.8900 hc        1 2B3      0.063367
     48 H20         8.7890    9.0150   -9.8210 hc        1 2B3      0.063367
     49 H32         1.1900    2.8890   -2.4550 hn        1 2B3      0.462800
     50 H121        5.1350    9.5720   -6.5330 hn        1 2B3      0.454300
@<TRIPOS>BOND
     1    1    2 1   
     2    2    3 1   
     3    2    4 1   
     4    2    5 1   
     5    5    6 1   
     6    5   29 1   
     7    5   30 1   
     8    6    7 1   
     9    6   31 1   
    10    6   32 1   
    11    7    8 1   
    12    7   33 1   
    13    7   49 1   
    14    8    9 2   
    15    8   10 1   
    16   10   11 ar  
    17   10   13 ar  
    18   11   12 ar  
    19   11   34 1   
    20   12   15 ar  
    21   12   35 1   
    22   13   14 ar  
    23   13   36 1   
    24   14   15 ar  
    25   14   37 1   
    26   15   16 1   
    27   16   17 1   
    28   16   18 2   
    29   17   20 2   
    30   18   19 1   
    31   18   38 1   
    32   19   20 1   
    33   20   21 1   
    34   21   22 1   
    35   21   39 1   
    36   21   40 1   
    37   22   23 1   
    38   22   41 1   
    39   22   50 1   
    40   23   24 2   
    41   23   25 2   
    42   23   26 1   
    43   26   27 1   
    44   26   42 1   
    45   26   43 1   
    46   27   28 1   
    47   27   44 1   
    48   27   45 1   
    49   28   46 1   
    50   28   47 1   
    51   28   48 1   
@<TRIPOS>SUBSTRUCTURE
     1 2B3         1 TEMP              0 ****  ****    0 ROOT
