@<TRIPOS>MOLECULE
2B4
   20    20     1     0     0
SMALL
bcc


@<TRIPOS>ATOM
      1 C1         -0.0180    0.6210    0.3770 ca        1 2B4     -0.220000
      2 C5         -0.4660   -1.5190   -0.7090 ca        1 2B4     -0.220000
      3 C2         -1.3810    0.8150    0.5220 ca        1 2B4     -0.078000
      4 C4         -1.8260   -1.3070   -0.5550 ca        1 2B4     -0.078000
      5 C6          0.4660   -0.5600   -0.2330 ca        1 2B4      0.212100
      6 C3         -2.2920   -0.1470    0.0690 ca        1 2B4     -0.117900
      7 C9          4.0340   -0.9480    0.3430 c         1 2B4      0.924100
      8 C12         2.9190    1.2980   -0.4860 c         1 2B4      0.924100
      9 C8          2.7670   -0.0570    0.2440 c3        1 2B4     -0.087900
     10 O10         4.1770   -1.9520   -0.4070 o         1 2B4     -0.852800
     11 O13         3.3060    1.3650   -1.6830 o         1 2B4     -0.852800
     12 O11         4.8520   -0.6510    1.2640 o         1 2B4     -0.852800
     13 O14         2.5810    2.3300    0.1800 o         1 2B4     -0.852800
     14 O7          1.7650   -0.8820   -0.4090 os        1 2B4     -0.258900
     15 BR1        -4.1440    0.1220    0.2900 br        1 2B4     -0.199100
     16 H1          0.7070    1.4020    0.6890 ha        1 2B4      0.177500
     17 H2         -1.7440    1.7410    0.9940 ha        1 2B4      0.111500
     18 H5         -0.0830   -2.4240   -1.2000 ha        1 2B4      0.177500
     19 H4         -2.5350   -2.0610   -0.9270 ha        1 2B4      0.111500
     20 H8          2.4220    0.1480    1.2950 h1        1 2B4      0.031700
@<TRIPOS>BOND
     1    1    3 ar  
     2    1    5 ar  
     3    1   16 1   
     4    2    4 ar  
     5    2    5 ar  
     6    2   18 1   
     7    3    6 ar  
     8    3   17 1   
     9    4    6 ar  
    10    4   19 1   
    11    5   14 1   
    12    6   15 1   
    13    7    9 1   
    14    7   10 1   
    15    7   12 1   
    16    8    9 1   
    17    8   11 1   
    18    8   13 1   
    19    9   14 1   
    20    9   20 1   
@<TRIPOS>SUBSTRUCTURE
     1 2B4         1 TEMP              0 ****  ****    0 ROOT
