@<TRIPOS>MOLECULE
2B4
   20    15     1     0     0
SMALL
bcc


@<TRIPOS>ATOM
      1 C1          0.9700   -0.6170   -1.2540 c1        1 2B4     -0.218000
      2 C5          0.9030   -0.5330    1.1440 c1        1 2B4     -0.147000
      3 C2          2.3550   -0.6280   -1.2150 c1        1 2B4     -0.084000
      4 C4          2.2890   -0.5440    1.1830 c1        1 2B4     -0.147000
      5 C6          0.2440   -0.5690   -0.0740 c1        1 2B4      0.167000
      6 C3          3.0150   -0.5920    0.0030 c1        1 2B4     -0.258000
      7 C9         -2.5920    0.6850    1.2900 c1        1 2B4      0.343500
      8 C12        -2.6640    0.9120   -1.1690 c1        1 2B4      0.343500
      9 C8         -1.7680    0.6550    0.0220 c1        1 2B4     -0.099000
     10 O10        -2.5390    1.6860    2.0520 o         1 2B4     -0.587500
     11 O13        -2.1820    1.3930   -2.2270 o         1 2B4     -0.587500
     12 O11        -3.3510   -0.2800    1.5710 o         1 2B4     -0.587500
     13 O14        -3.8880    0.6230   -1.1090 o         1 2B4     -0.587500
     14 O7         -1.1600   -0.6070   -0.1120 os        1 2B4     -0.142000
     15 BR1         4.9260   -0.5960   -0.0270 br        1 2B4     -0.059000
     16 H1          0.5060   -0.6230   -2.1130 ha        1 2B4      0.139000
     17 H2          2.8670   -0.6620   -2.0460 ha        1 2B4      0.106000
     18 H5          0.3920   -0.5000    1.9750 ha        1 2B4      0.166500
     19 H4          2.7530   -0.5470    2.0420 ha        1 2B4      0.166500
     20 H8         -1.0770    1.3460    0.0660 ha        1 2B4      0.071000
@<TRIPOS>BOND
     1    1    5 1   
     2    1   16 1   
     3    2    4 1   
     4    2   18 1   
     5    3    6 1   
     6    3   17 1   
     7    4   19 1   
     8    5   14 1   
     9    6   15 1   
    10    7   10 1   
    11    7   12 1   
    12    8   11 1   
    13    8   13 1   
    14    9   14 1   
    15    9   20 1   
@<TRIPOS>SUBSTRUCTURE
     1 2B4         1 TEMP              0 ****  ****    0 ROOT
