@<TRIPOS>MOLECULE
2B4
   20    20     1     0     0
SMALL
bcc


@<TRIPOS>ATOM
      1 C1          0.0540    0.1440   -0.0930 ca        1 2B4     -0.220000
      2 C5         -0.0130   -0.1080    2.3340 ca        1 2B4     -0.220000
      3 C2          1.4380    0.1220   -0.0420 ca        1 2B4     -0.078000
      4 C4          1.3720   -0.1270    2.3650 ca        1 2B4     -0.078000
      5 C6         -0.6980    0.0160    1.0980 ca        1 2B4      0.212100
      6 C3          2.1060   -0.0240    1.1810 ca        1 2B4     -0.117900
      7 C9         -4.1910   -0.6630    0.3560 c         1 2B4      0.924100
      8 C12        -2.7910    1.2480   -0.8110 c         1 2B4      0.924100
      9 C8         -2.8040   -0.1020   -0.0540 c3        1 2B4     -0.087900
     10 O10        -4.5940   -0.5790    1.5480 o         1 2B4     -0.852800
     11 O13        -3.2900    2.2900   -0.3110 o         1 2B4     -0.852800
     12 O11        -4.8340   -1.2730   -0.5500 o         1 2B4     -0.852800
     13 O14        -2.2010    1.2470   -1.9400 o         1 2B4     -0.852800
     14 O7         -2.0450   -0.0050    1.1810 os        1 2B4     -0.258900
     15 BR1         3.9880   -0.0710    1.2340 br        1 2B4     -0.199100
     16 H1         -0.4790    0.3090   -1.0530 ha        1 2B4      0.177500
     17 H2          2.0110    0.2270   -0.9750 ha        1 2B4      0.111500
     18 H5         -0.6030   -0.1850    3.2560 ha        1 2B4      0.177500
     19 H4          1.8890   -0.2270    3.3310 ha        1 2B4      0.111500
     20 H8         -2.3120   -0.8750   -0.7080 h1        1 2B4      0.031700
@<TRIPOS>BOND
     1    1    3 ar  
     2    1    5 ar  
     3    1   16 1   
     4    2    4 ar  
     5    2    5 ar  
     6    2   18 1   
     7    3    6 ar  
     8    3   17 1   
     9    4    6 ar  
    10    4   19 1   
    11    5   14 1   
    12    6   15 1   
    13    7    9 1   
    14    7   10 1   
    15    7   12 1   
    16    8    9 1   
    17    8   11 1   
    18    8   13 1   
    19    9   14 1   
    20    9   20 1   
@<TRIPOS>SUBSTRUCTURE
     1 2B4         1 TEMP              0 ****  ****    0 ROOT
