@<TRIPOS>MOLECULE
2B5
   46    48     1     0     0
SMALL
bcc


@<TRIPOS>ATOM
      1 C          -0.1360   -0.8910   -1.2740 c2        1 2B5      0.357000
      2 N          -1.9740   -0.5580    0.3880 n3        1 2B5      0.028000
      3 O          -0.0100    0.2100   -1.8460 o         1 2B5     -0.495500
      4 CA         -0.5670   -0.7920    0.2690 c3        1 2B5     -0.217000
      5 CAA        -4.0840    4.9020    1.9710 c3        1 2B5     -0.080000
      6 OAC        -4.1400   -4.9860   -0.3050 o         1 2B5     -0.373000
      7 CAE         2.9380   -5.1210   -4.5760 c2        1 2B5     -0.041000
      8 CAF         1.6830   -5.0600   -4.2220 c1        1 2B5     -0.166000
      9 CAG        -2.8420    2.9630    0.3580 c2        1 2B5     -0.091000
     10 CAH         0.4780   -4.9850   -3.8640 c1        1 2B5      0.122000
     11 CAI        -1.7820   -3.1620   -5.0500 c2        1 2B5     -0.230000
     12 CAJ        -2.0770    1.9260   -0.0580 c2        1 2B5     -0.127000
     13 CAK        -4.7460    1.5170    0.9780 c2        1 2B5     -0.173000
     14 CAL        -4.2120   -1.0240    0.7040 c2        1 2B5     -0.128000
     15 CAM        -1.3380   -5.6660   -2.3670 c1        1 2B5      0.051000
     16 NAP        -2.2560   -3.6720   -0.3630 ns        1 2B5     -0.374000
     17 OAR        -3.0020   -4.1810   -3.2870 os        1 2B5     -0.229000
     18 CAT        -3.1160   -4.6060   -0.9050 c2        1 2B5      0.337000
     19 CAU        -4.1420    2.7360    0.9750 c2        1 2B5      0.047000
     20 CAV        -2.9590   -1.5750    0.6890 c2        1 2B5     -0.066000
     21 CAW        -2.7600   -5.1930   -2.2690 c3        1 2B5     -0.088000
     22 CAX        -0.7810   -4.9130   -3.4710 c2        1 2B5     -0.151000
     23 CAY        -4.1170    0.4060    0.2400 c3        1 2B5     -0.067000
     24 CAZ        -1.8160   -4.0190   -4.0270 c2        1 2B5      0.039000
     25 CBA        -2.6040    0.5970    0.1410 c2        1 2B5      0.078000
     26 OXT        -0.0010   -2.0580   -1.6970 o         1 2B5     -0.495500
     27 HA         -0.2910   -1.7500    0.7800 h1        1 2B5      0.126500
     28 HAA        -0.0090    0.0710    0.7210 h1        1 2B5      0.126500
     29 HAAA       -3.1770    4.5920    2.5420 h1        1 2B5      0.090000
     30 HAAB       -3.8020    5.5190    1.0830 h1        1 2B5      0.090000
     31 HAAC       -4.7930    5.4660    2.6290 h1        1 2B5      0.090000
     32 HAE         3.6510   -5.7980   -4.0800 ha        1 2B5      0.140500
     33 HAF        -0.8650   -3.0110   -5.6300 ha        1 2B5      0.131500
     34 HAG        -2.4950    4.0020    0.2360 ha        1 2B5      0.163000
     35 HAH         3.3460   -4.4960   -5.3860 ha        1 2B5      0.140500
     36 HAI        -2.6530   -2.5610   -5.3350 ha        1 2B5      0.131500
     37 HAJ        -1.0850    2.0270   -0.5390 ha        1 2B5      0.215000
     38 HAK        -5.7280    1.3460    1.4390 ha        1 2B5      0.172000
     39 HAL        -4.5340    0.4180   -0.8230 hc        1 2B5      0.194000
     40 HAM        -3.4710   -6.0430   -2.4850 h1        1 2B5      0.171000
     41 HAN        -5.1550   -1.5220    0.9280 ha        1 2B5      0.193000
     42 HANA       -1.6840   -3.0840    1.5630 h1        1 2B5      0.126000
     43 HNAP       -3.4460   -3.5390    1.3670 h1        1 2B5      0.126000
     44 CAN        -2.5740   -3.0170    0.8700 c3        1 2B5      0.027000
     45 OAQ        -4.8490    3.7720    1.5580 os        1 2B5     -0.205000
     46 HAP2       -1.4800   -3.3260   -0.8990 hn        1 2B5      0.285000
@<TRIPOS>BOND
     1    1    3 1   
     2    1    4 1   
     3    1   26 1   
     4    2    4 1   
     5    2   20 1   
     6    2   25 1   
     7    4   27 1   
     8    4   28 1   
     9    5   29 1   
    10    5   30 1   
    11    5   31 1   
    12    5   45 1   
    13    6   18 1   
    14    7    8 1   
    15    7   32 1   
    16    7   35 1   
    17    8   10 1   
    18    9   12 1   
    19    9   19 1   
    20    9   34 1   
    21   10   22 1   
    22   11   24 1   
    23   11   33 1   
    24   11   36 1   
    25   12   25 1   
    26   12   37 1   
    27   13   19 1   
    28   13   23 1   
    29   13   38 1   
    30   14   20 1   
    31   14   23 1   
    32   14   41 1   
    33   15   21 1   
    34   15   22 1   
    35   16   18 1   
    36   16   44 1   
    37   16   46 1   
    38   17   21 1   
    39   17   24 1   
    40   18   21 1   
    41   19   45 1   
    42   20   44 1   
    43   21   40 1   
    44   22   24 1   
    45   23   25 1   
    46   23   39 1   
    47   42   44 1   
    48   43   44 1   
@<TRIPOS>SUBSTRUCTURE
     1 2B5         1 TEMP              0 ****  ****    0 ROOT
