@<TRIPOS>MOLECULE
2B5
   45    48     1     0     0
SMALL
bcc


@<TRIPOS>ATOM
      1 C          -0.6070   -0.0510   -2.5010 c         1 2B5      0.913600
      2 N          -1.9910    1.0890   -0.7190 na        1 2B5     -0.007400
      3 O           0.5660   -0.1580   -2.0470 o         1 2B5     -0.815300
      4 CA         -1.4410    1.1880   -2.0400 c3        1 2B5     -0.115700
      5 CAA        -7.0380   -2.4330    0.8780 c3        1 2B5      0.121700
      6 OAC         2.0270    2.3500    2.1940 o         1 2B5     -0.651100
      7 CAE         6.7390   -2.0150    0.1980 ca        1 2B5     -0.163000
      8 CAF         5.9510   -2.3570   -0.9140 ca        1 2B5     -0.122000
      9 CAG        -5.1540   -0.9060   -0.5890 ca        1 2B5     -0.187000
     10 CAH         6.3220   -1.0660    1.1250 ca        1 2B5     -0.088000
     11 CAI         4.7150   -1.7610   -1.1450 ca        1 2B5     -0.109000
     12 CAJ        -4.0350   -0.3560   -1.1860 ca        1 2B5     -0.087000
     13 CAK        -4.5500    0.0160    1.6100 ca        1 2B5     -0.118000
     14 CAL        -2.3250    1.3750    1.5360 cc        1 2B5     -0.209200
     15 CAM         4.3110    0.5550    1.6310 cc        1 2B5     -0.129200
     16 NAP         0.9790    1.6680    0.2560 n         1 2B5     -0.540900
     17 OAR         3.1180   -0.0880   -0.2380 os        1 2B5     -0.138200
     18 CAT         2.0000    1.6280    1.1670 c         1 2B5      0.690300
     19 CAU        -5.4060   -0.7140    0.7890 ca        1 2B5      0.064100
     20 CAV        -1.4760    1.6510    0.4540 cd        1 2B5     -0.078300
     21 CAW         3.1520    0.7350    0.9050 cd        1 2B5     -0.016100
     22 CAX         5.0890   -0.4460    0.9300 ca        1 2B5     -0.124800
     23 CAY        -3.4170    0.5910    1.0290 ca        1 2B5     -0.081800
     24 CAZ         4.3070   -0.8090   -0.2120 ca        1 2B5      0.077100
     25 CBA        -3.1680    0.4110   -0.3880 ca        1 2B5     -0.061200
     26 OXT        -1.1510   -0.8210   -3.3300 o         1 2B5     -0.815300
     27 HA         -0.7730    2.0920   -2.0820 h1        1 2B5      0.047200
     28 HAA        -2.2930    1.3230   -2.7630 h1        1 2B5      0.047200
     29 HAAA       -6.2060   -3.1560    0.6990 h1        1 2B5      0.030700
     30 HAAB       -7.7320   -2.8150    1.6680 h1        1 2B5      0.030700
     31 HAAC       -7.5980   -2.2490   -0.0720 h1        1 2B5      0.030700
     32 HAE         7.7080   -2.5160    0.3360 ha        1 2B5      0.120000
     33 HAF         6.3210   -3.1160   -1.6200 ha        1 2B5      0.126000
     34 HAG        -5.8490   -1.5090   -1.1890 ha        1 2B5      0.123000
     35 HAH         6.9460   -0.8100    1.9920 ha        1 2B5      0.128000
     36 HAI         4.0810   -2.0160   -2.0050 ha        1 2B5      0.170000
     37 HAJ        -3.7980   -0.5290   -2.2480 ha        1 2B5      0.165000
     38 HAK        -4.7640    0.1380    2.6790 ha        1 2B5      0.134000
     39 HAL        -2.1770    1.6850    2.5640 ha        1 2B5      0.146000
     40 HAM         4.5850    1.0640    2.5520 ha        1 2B5      0.171000
     41 HAN        -0.1420    2.9150    1.5370 h1        1 2B5      0.062200
     42 HANA       -0.2530    3.2720   -0.2540 h1        1 2B5      0.062200
     43 HNAP        0.9510    1.0020   -0.5090 hn        1 2B5      0.394500
     44 CAN        -0.2080    2.4410    0.5130 c3        1 2B5      0.153200
     45 OAQ        -6.5570   -1.2040    1.4040 os        1 2B5     -0.347900
@<TRIPOS>BOND
     1    1    3 1   
     2    1    4 1   
     3    1   26 1   
     4    2    4 1   
     5    2   20 1   
     6    2   25 1   
     7    4   27 1   
     8    4   28 1   
     9    5   29 1   
    10    5   30 1   
    11    5   31 1   
    12    5   45 1   
    13    6   18 2   
    14    7    8 ar  
    15    7   10 ar  
    16    7   32 1   
    17    8   11 ar  
    18    8   33 1   
    19    9   12 ar  
    20    9   19 ar  
    21    9   34 1   
    22   10   22 ar  
    23   10   35 1   
    24   11   24 ar  
    25   11   36 1   
    26   12   25 ar  
    27   12   37 1   
    28   13   19 ar  
    29   13   23 ar  
    30   13   38 1   
    31   14   20 2   
    32   14   23 1   
    33   14   39 1   
    34   15   21 2   
    35   15   22 1   
    36   15   40 1   
    37   16   18 1   
    38   16   43 1   
    39   16   44 1   
    40   17   21 1   
    41   17   24 1   
    42   18   21 1   
    43   19   45 1   
    44   20   44 1   
    45   22   24 ar  
    46   23   25 ar  
    47   41   44 1   
    48   42   44 1   
@<TRIPOS>SUBSTRUCTURE
     1 2B5         1 TEMP              0 ****  ****    0 ROOT
