@<TRIPOS>MOLECULE
2B5
   46    48     1     0     0
SMALL
bcc


@<TRIPOS>ATOM
      1 C           0.6440   -0.3690   -0.2950 c2        1 2B5      0.362000
      2 N          -1.5730   -0.2590    0.9460 nh        1 2B5      0.052000
      3 O           1.4930    0.5030   -0.5520 o         1 2B5     -0.501000
      4 CA         -0.1500   -0.1270    1.0740 c3        1 2B5     -0.212000
      5 CAA        -5.4900    4.8430    1.0810 c3        1 2B5     -0.081000
      6 OAC        -4.0070   -3.9070   -0.5800 o         1 2B5     -0.379000
      7 CAE         1.8210   -7.3900   -5.0630 c2        1 2B5     -0.037000
      8 CAF         0.8430   -6.6200   -4.6700 c1        1 2B5     -0.169000
      9 CAG        -3.2900    3.1010    1.1490 ca        1 2B5     -0.205000
     10 CAH        -0.0970   -5.8770   -4.2820 c1        1 2B5      0.102000
     11 CAI        -0.7200   -2.9210   -5.1330 c2        1 2B5     -0.216000
     12 CAJ        -2.2100    2.2120    1.1580 ca        1 2B5     -0.033000
     13 CAK        -4.8780    1.2600    0.7660 ca        1 2B5     -0.124000
     14 CAL        -3.7540   -1.0980    0.5800 c3        1 2B5     -0.132000
     15 CAM        -2.0720   -5.5200   -2.8750 c1        1 2B5      0.066000
     16 NAP        -1.8010   -3.2880   -0.7800 n         1 2B5     -0.342000
     17 OAR        -2.4990   -3.2580   -3.5970 os        1 2B5     -0.228000
     18 CAT        -2.9780   -3.8110   -1.2760 c2        1 2B5      0.322000
     19 CAU        -4.5970    2.6360    0.9610 ca        1 2B5      0.111000
     20 CAV        -2.2610   -1.3770    0.7010 c2        1 2B5      0.047000
     21 CAW        -2.9620   -4.3190   -2.7170 c3        1 2B5     -0.093000
     22 CAX        -1.0860   -5.1120   -3.8590 c2        1 2B5     -0.162000
     23 CAY        -3.8180    0.3860    0.7750 ca        1 2B5     -0.056000
     24 CAZ        -1.3560   -3.7230   -4.2750 c2        1 2B5      0.020000
     25 CBA        -2.4790    0.8600    0.9820 ca        1 2B5     -0.090000
     26 OXT         0.3450   -1.4130   -0.9200 o         1 2B5     -0.501000
     27 HA          0.2280   -0.8950    1.8000 h1        1 2B5      0.123000
     28 HAA         0.0980    0.9020    1.4440 h1        1 2B5      0.123000
     29 HAAA       -5.0300    5.0730    2.0720 h1        1 2B5      0.092000
     30 HAAB       -4.8480    5.2220    0.2480 h1        1 2B5      0.092000
     31 HAAC       -6.5220    5.2720    1.0140 h1        1 2B5      0.092000
     32 HAE         1.9430   -8.4160   -4.6810 ha        1 2B5      0.144500
     33 HAF         0.1710   -3.2600   -5.6720 ha        1 2B5      0.136500
     34 HAG        -3.0890    4.1740    1.2860 ha        1 2B5      0.155000
     35 HAH         2.5730   -7.0520   -5.7950 ha        1 2B5      0.144500
     36 HAI        -1.0490   -1.8920   -5.3200 ha        1 2B5      0.136500
     37 HAJ        -1.1840    2.5910    1.2880 ha        1 2B5      0.169000
     38 HAK        -5.9150    0.9290    0.6100 ha        1 2B5      0.170000
     39 HAL        -4.1270   -1.4250   -0.4280 hc        1 2B5      0.169500
     40 HAM        -4.0180   -4.5620   -3.0270 h1        1 2B5      0.176000
     41 HAN        -4.3250   -1.6700    1.3560 hc        1 2B5      0.169500
     42 HANA       -0.6180   -2.7910    0.8420 h1        1 2B5      0.140000
     43 HNAP       -2.3120   -3.4320    1.2500 h1        1 2B5      0.140000
     44 CAN        -1.7110   -2.7760    0.5520 c3        1 2B5      0.015000
     45 OAQ        -5.7120    3.4420    0.9460 os        1 2B5     -0.201000
     46 HAP2       -1.0830   -2.9860   -1.4150 hn        1 2B5      0.289000
@<TRIPOS>BOND
     1    1    3 1   
     2    1    4 1   
     3    1   26 1   
     4    2    4 1   
     5    2   20 1   
     6    2   25 1   
     7    4   27 1   
     8    4   28 1   
     9    5   29 1   
    10    5   30 1   
    11    5   31 1   
    12    5   45 1   
    13    6   18 1   
    14    7    8 1   
    15    7   32 1   
    16    7   35 1   
    17    8   10 1   
    18    9   12 1   
    19    9   19 1   
    20    9   34 1   
    21   10   22 1   
    22   11   24 1   
    23   11   33 1   
    24   11   36 1   
    25   12   25 1   
    26   12   37 1   
    27   13   19 1   
    28   13   23 1   
    29   13   38 1   
    30   14   20 1   
    31   14   23 1   
    32   14   39 1   
    33   14   41 1   
    34   15   21 1   
    35   15   22 1   
    36   16   18 1   
    37   16   44 1   
    38   16   46 1   
    39   17   21 1   
    40   17   24 1   
    41   18   21 1   
    42   19   45 1   
    43   20   44 1   
    44   21   40 1   
    45   22   24 1   
    46   23   25 1   
    47   42   44 1   
    48   43   44 1   
@<TRIPOS>SUBSTRUCTURE
     1 2B5         1 TEMP              0 ****  ****    0 ROOT
