@<TRIPOS>MOLECULE
2B5
   45    38     1     0     0
SMALL
bcc


@<TRIPOS>ATOM
      1 C          -4.0680    2.2930   -1.7850 c1        1 2B5      0.338000
      2 N          -1.9620    1.1670   -1.5720 n2        1 2B5     -0.105000
      3 O          -4.5780    1.3680   -1.0930 o         1 2B5     -0.560000
      4 CA         -2.6640    2.1520   -2.3220 c1        1 2B5     -0.119000
      5 CAA        -1.2130   -5.0310   -3.0630 c3        1 2B5     -0.068000
      6 OAC         0.5550    4.1160    2.2400 o         1 2B5     -0.385000
      7 CAE         4.0680   -1.4370    3.2130 c1        1 2B5     -0.125000
      8 CAF         5.0020   -0.4710    2.8440 c1        1 2B5     -0.125000
      9 CAG        -2.0740   -2.0760   -3.4680 c1        1 2B5     -0.125000
     10 CAH         2.7610   -1.0510    3.5890 c1        1 2B5     -0.125000
     11 CAI         4.6450    0.8920    2.8460 c1        1 2B5     -0.125000
     12 CAJ        -2.4630   -0.7820   -3.1340 c1        1 2B5     -0.125000
     13 CAK        -0.3080   -1.9710   -1.8260 c1        1 2B5     -0.102000
     14 CAL        -0.2520    0.2210   -0.5370 c1        1 2B5     -0.213000
     15 CAM         1.1780    0.9420    3.7780 c1        1 2B5     -0.112000
     16 CAN        -0.7550    2.5330    0.2500 c3        1 2B5      0.030000
     17 NAP        -0.3290    2.0900    1.6000 n         1 2B5     -0.362000
     18 OAQ        -0.3790   -3.8950   -3.2120 os        1 2B5     -0.237000
     19 OAR         2.6870    2.5070    3.1820 os        1 2B5     -0.086000
     20 CAT         0.5660    2.9150    2.3840 c2        1 2B5      0.368000
     21 CAU        -1.0010   -2.6700   -2.8190 c1        1 2B5     -0.002000
     22 CAV        -1.0340    1.3480   -0.5930 c2        1 2B5     -0.055000
     23 CAW         1.3540    2.3010    3.5250 c2        1 2B5     -0.069000
     24 CAX         2.4020    0.3090    3.5920 c1        1 2B5     -0.106000
     25 CAY        -0.7020   -0.6520   -1.4830 c1        1 2B5     -0.084000
     26 CAZ         3.3370    1.2790    3.2220 c1        1 2B5      0.022000
     27 CBA        -1.7620   -0.0670   -2.1250 c1        1 2B5     -0.004000
     28 OXT        -4.7250    3.3400   -2.0150 o         1 2B5     -0.560000
     29 HA         -2.1930    3.0220   -2.2460 ha        1 2B5      0.089000
     30 HAA        -2.7020    1.8730   -3.2910 ha        1 2B5      0.089000
     31 HAAA       -2.1470   -4.7760   -3.2380 h1        1 2B5      0.068667
     32 HAAB       -0.9330   -5.7400   -3.7110 h1        1 2B5      0.068667
     33 HAAC       -1.1340   -5.3760   -2.1470 h1        1 2B5      0.068667
     34 HAE         4.3060   -2.3940    3.1660 ha        1 2B5      0.137500
     35 HAF         5.9180   -0.7440    2.5810 ha        1 2B5      0.137500
     36 HAG        -2.5400   -2.5550   -4.1740 ha        1 2B5      0.137500
     37 HAH         2.1120   -1.7250    3.8460 ha        1 2B5      0.137500
     38 HAI         5.3030    1.5710    2.5860 ha        1 2B5      0.137500
     39 HAJ        -3.2110   -0.3700   -3.5880 ha        1 2B5      0.137500
     40 HAK         0.3870   -2.4350   -1.2900 ha        1 2B5      0.132000
     41 HAL         0.4760    0.0430    0.1270 DU        1 2B5      0.192500
     42 HAM         0.3390    0.5080    4.0400 DU        1 2B5      0.192500
     43 HAN        -1.5810    3.0890    0.3260 h1        1 2B5      0.104000
     44 HANA       -0.0480    3.0590   -0.1550 h1        1 2B5      0.104000
     45 HNAP       -0.6390    1.2800    1.9460 hn        1 2B5      0.289000
@<TRIPOS>BOND
     1    1    3 1   
     2    1   28 1   
     3    2   22 1   
     4    2   27 1   
     5    4   29 1   
     6    4   30 1   
     7    5   18 1   
     8    5   31 1   
     9    5   32 1   
    10    5   33 1   
    11    6   20 1   
    12    7   10 1   
    13    7   34 1   
    14    8   11 1   
    15    8   35 1   
    16    9   12 1   
    17    9   36 1   
    18   10   37 1   
    19   11   38 1   
    20   12   39 1   
    21   13   21 1   
    22   13   40 1   
    23   14   22 1   
    24   14   25 1   
    25   15   23 1   
    26   15   24 1   
    27   16   17 1   
    28   16   22 1   
    29   16   43 1   
    30   16   44 1   
    31   17   20 1   
    32   17   45 1   
    33   18   21 1   
    34   19   23 1   
    35   19   26 1   
    36   20   23 1   
    37   24   26 1   
    38   25   27 1   
@<TRIPOS>SUBSTRUCTURE
     1 2B5         1 TEMP              0 ****  ****    0 ROOT
