@<TRIPOS>MOLECULE
2B6
   41    43     1     0     0
SMALL
bcc


@<TRIPOS>ATOM
      1 OAE        -0.6840    1.4300   -0.3230 o         1 2B6     -0.912833
      2 PBB         0.6340    2.0530    0.0120 p5        1 2B6      1.313900
      3 OAF         0.7640    3.5460   -0.1840 o         1 2B6     -0.912833
      4 OAC         1.3780    1.4970    1.1970 o         1 2B6     -0.912833
      5 OAR         1.6620    1.5400   -1.3070 os        1 2B6     -0.551200
      6 CAM         2.9850    1.3930   -1.0090 c3        1 2B6      0.239700
      7 CAW         3.8450    2.5110   -1.5530 ca        1 2B6     -0.127600
      8 CAL         3.2310    3.7920   -1.7450 ca        1 2B6      0.390200
      9 NAQ         3.8610    4.8520   -2.2410 nb        1 2B6     -0.664000
     10 CAU         5.1860    4.7280   -2.5590 ca        1 2B6      0.286600
     11 CAA         5.9070    5.9030   -3.1310 c3        1 2B6     -0.127400
     12 CAV         5.8800    3.5230   -2.3530 ca        1 2B6     -0.031200
     13 OAD         7.2410    3.4000   -2.5880 oh        1 2B6     -0.532100
     14 CAY         5.2030    2.3880   -1.8400 ca        1 2B6     -0.130300
     15 CAG         5.9680    1.1420   -1.5280 c3        1 2B6      0.148100
     16 NAN         6.6340    0.5690   -2.7080 n2        1 2B6     -0.118200
     17 NAO         7.8250    0.3060   -2.6580 ne        1 2B6     -0.313400
     18 CAT         8.5110   -0.3290   -3.7600 c         1 2B6      0.630200
     19 OAB         8.3810   -1.5190   -4.0590 o         1 2B6     -0.505100
     20 CAX         9.5900    0.5200   -4.3540 cc        1 2B6      0.304200
     21 NAP         9.9770    0.4300   -5.6220 nd        1 2B6     -0.490100
     22 CAZ        11.0110    1.3470   -5.8480 ca        1 2B6      0.076400
     23 CAJ        11.6780    1.5530   -7.0750 ca        1 2B6     -0.071000
     24 CAH        12.6880    2.4940   -7.1380 ca        1 2B6     -0.145000
     25 CAI        13.0550    3.2460   -6.0050 ca        1 2B6     -0.130000
     26 CAK        12.4120    3.0640   -4.7930 ca        1 2B6     -0.089000
     27 CBA        11.3860    2.1180   -4.6940 ca        1 2B6     -0.125100
     28 SAS        10.4240    1.6840   -3.3870 ss        1 2B6      0.102900
     29 H3          3.3560    0.4250   -1.4690 h1        1 2B6      0.023700
     30 H4          3.1440    1.3540    0.1160 h1        1 2B6      0.023700
     31 H5          2.1380    3.8840   -1.3900 h4        1 2B6      0.173100
     32 H6          6.2370    5.6780   -4.1770 hc        1 2B6      0.026033
     33 H7          6.8120    6.1320   -2.5150 hc        1 2B6      0.026033
     34 H8          5.2600    6.8140   -3.1580 hc        1 2B6      0.026033
     35 H9          7.4720    4.0580   -3.2570 ho        1 2B6      0.398000
     36 H10         5.2610    0.3240   -1.1930 h1        1 2B6      0.084700
     37 H11         6.6700    1.3730   -0.6730 h1        1 2B6      0.084700
     38 H12        11.3860    0.9680   -7.9600 ha        1 2B6      0.147000
     39 H13        13.2160    2.6670   -8.0870 ha        1 2B6      0.125000
     40 H14        13.8600    3.9890   -6.0920 ha        1 2B6      0.124000
     41 H15        12.6970    3.6580   -3.9130 ha        1 2B6      0.135000
@<TRIPOS>BOND
     1    1    2 1   
     2    2    3 1   
     3    2    4 1   
     4    2    5 1   
     5    5    6 1   
     6    6    7 1   
     7    6   29 1   
     8    6   30 1   
     9    7    8 ar  
    10    7   14 ar  
    11    8    9 ar  
    12    8   31 1   
    13    9   10 ar  
    14   10   11 1   
    15   10   12 ar  
    16   11   32 1   
    17   11   33 1   
    18   11   34 1   
    19   12   13 1   
    20   12   14 ar  
    21   13   35 1   
    22   14   15 1   
    23   15   16 1   
    24   15   36 1   
    25   15   37 1   
    26   16   17 2   
    27   17   18 1   
    28   18   19 2   
    29   18   20 1   
    30   20   21 2   
    31   20   28 1   
    32   21   22 1   
    33   22   23 ar  
    34   22   27 ar  
    35   23   24 ar  
    36   23   38 1   
    37   24   25 ar  
    38   24   39 1   
    39   25   26 ar  
    40   25   40 1   
    41   26   27 ar  
    42   26   41 1   
    43   27   28 1   
@<TRIPOS>SUBSTRUCTURE
     1 2B6         1 TEMP              0 ****  ****    0 ROOT
