@<TRIPOS>MOLECULE
2B6
   41    43     1     0     0
SMALL
bcc


@<TRIPOS>ATOM
      1 OAE        -0.6420    1.3520   -0.2350 o         1 2B6     -0.912833
      2 PBB         0.6570    2.0360    0.0570 p5        1 2B6      1.313900
      3 OAF         0.7380    3.5180   -0.2280 o         1 2B6     -0.912833
      4 OAC         1.4210    1.5760    1.2690 o         1 2B6     -0.912833
      5 OAR         1.6970    1.4790   -1.2350 os        1 2B6     -0.551200
      6 CAM         3.0250    1.3930   -0.9340 c3        1 2B6      0.239700
      7 CAW         3.8470    2.5030   -1.5480 ca        1 2B6     -0.127600
      8 CAL         3.1910    3.7500   -1.8130 ca        1 2B6      0.390200
      9 NAQ         3.7860    4.7980   -2.3730 nb        1 2B6     -0.664000
     10 CAU         5.1120    4.6990   -2.6900 ca        1 2B6      0.286600
     11 CAA         5.7930    5.8600   -3.3340 c3        1 2B6     -0.127400
     12 CAV         5.8450    3.5300   -2.4170 ca        1 2B6     -0.031200
     13 OAD         7.2090    3.4380   -2.6500 oh        1 2B6     -0.532100
     14 CAY         5.2070    2.4070   -1.8340 ca        1 2B6     -0.130300
     15 CAG         6.0120    1.2070   -1.4520 c3        1 2B6      0.148100
     16 NAN         6.6950    0.5870   -2.5980 n2        1 2B6     -0.118200
     17 NAO         7.8930    0.3660   -2.5370 ne        1 2B6     -0.313400
     18 CAT         8.5980   -0.3100   -3.6030 c         1 2B6      0.630200
     19 OAB         8.5050   -1.5200   -3.8320 o         1 2B6     -0.505100
     20 CAX         9.6490    0.5360   -4.2490 cc        1 2B6      0.304200
     21 NAP        10.0370    0.3840   -5.5100 nd        1 2B6     -0.490100
     22 CAZ        11.0410    1.3180   -5.7930 ca        1 2B6      0.076400
     23 CAJ        11.7020    1.4720   -7.0310 ca        1 2B6     -0.071000
     24 CAH        12.6810    2.4400   -7.1510 ca        1 2B6     -0.145000
     25 CAI        13.0230    3.2690   -6.0660 ca        1 2B6     -0.130000
     26 CAK        12.3880    3.1380   -4.8440 ca        1 2B6     -0.089000
     27 CBA        11.3920    2.1670   -4.6860 ca        1 2B6     -0.125100
     28 SAS        10.4460    1.7810   -3.3540 ss        1 2B6      0.103900
     29 H3          3.4250    0.4110   -1.3390 h1        1 2B6      0.023700
     30 H4          3.1880    1.4250    0.1890 h1        1 2B6      0.023700
     31 H5          2.0970    3.8280   -1.4590 h4        1 2B6      0.173100
     32 H6          6.1270    5.5840   -4.3660 hc        1 2B6      0.026033
     33 H7          6.6930    6.1530   -2.7370 hc        1 2B6      0.026033
     34 H8          5.1180    6.7470   -3.4110 hc        1 2B6      0.026033
     35 H9          7.4170    4.0610   -3.3590 ho        1 2B6      0.398000
     36 H10         5.3330    0.3880   -1.0670 h1        1 2B6      0.084700
     37 H11         6.7080    1.5100   -0.6150 h1        1 2B6      0.084700
     38 H12        11.4280    0.8270   -7.8790 ha        1 2B6      0.147000
     39 H13        13.2030    2.5740   -8.1100 ha        1 2B6      0.125000
     40 H14        13.8050    4.0310   -6.1990 ha        1 2B6      0.124000
     41 H15        12.6540    3.7920   -4.0000 ha        1 2B6      0.135000
@<TRIPOS>BOND
     1    1    2 1   
     2    2    3 1   
     3    2    4 1   
     4    2    5 1   
     5    5    6 1   
     6    6    7 1   
     7    6   29 1   
     8    6   30 1   
     9    7    8 ar  
    10    7   14 ar  
    11    8    9 ar  
    12    8   31 1   
    13    9   10 ar  
    14   10   11 1   
    15   10   12 ar  
    16   11   32 1   
    17   11   33 1   
    18   11   34 1   
    19   12   13 1   
    20   12   14 ar  
    21   13   35 1   
    22   14   15 1   
    23   15   16 1   
    24   15   36 1   
    25   15   37 1   
    26   16   17 2   
    27   17   18 1   
    28   18   19 2   
    29   18   20 1   
    30   20   21 2   
    31   20   28 1   
    32   21   22 1   
    33   22   23 ar  
    34   22   27 ar  
    35   23   24 ar  
    36   23   38 1   
    37   24   25 ar  
    38   24   39 1   
    39   25   26 ar  
    40   25   40 1   
    41   26   27 ar  
    42   26   41 1   
    43   27   28 1   
@<TRIPOS>SUBSTRUCTURE
     1 2B6         1 TEMP              0 ****  ****    0 ROOT
