@<TRIPOS>MOLECULE
2B7
   53    55     1     0     0
SMALL
bcc


@<TRIPOS>ATOM
      1 C1          0.7970   -0.1480    0.7160 c3        1 2B7     -0.102100
      2 C2          1.1320    0.3380   -0.6780 c3        1 2B7     -0.055700
      3 C3          1.6950    1.7430   -0.6240 c3        1 2B7     -0.102100
      4 N6          2.2900   -2.8540   -2.4850 n         1 2B7     -0.277000
      5 C7          1.6470   -4.0880   -2.9070 c         1 2B7      0.689700
      6 C9          2.4940   -5.1240   -3.5510 cc        1 2B7     -0.004400
      7 C10         3.8130   -4.9100   -3.7850 cd        1 2B7     -0.196800
      8 C11         4.4320   -3.6680   -3.3860 cd        1 2B7      0.366100
      9 C12         3.5980   -2.6580   -2.7130 cc        1 2B7      0.059200
     10 C14         5.9340   -2.0700   -3.0200 cc        1 2B7      0.124300
     11 C20         9.1290   -2.4790   -6.2120 c3        1 2B7      0.178000
     12 C21         9.1570   -3.6790   -7.0780 c2        1 2B7     -0.308200
     13 C22         8.9090   -3.6270   -8.3910 c2        1 2B7     -0.047000
     14 C24         2.5250   -7.6010   -3.7360 ca        1 2B7     -0.063000
     15 C4          2.1330   -0.5910   -1.3670 c3        1 2B7     -0.114400
     16 C5          1.4400   -1.8720   -1.8100 c3        1 2B7      0.046000
     17 O8          0.4380   -4.1700   -2.6920 o         1 2B7     -0.483500
     18 S13         4.5510   -1.3180   -2.3390 ss        1 2B7      0.140700
     19 N15         5.7180   -3.3240   -3.5480 nd        1 2B7     -0.618000
     20 N16         7.2570   -1.5100   -2.9980 n4        1 2B7     -0.526500
     21 C17         7.8490   -1.3690   -4.3820 c         1 2B7      0.482100
     22 O18         8.2060   -0.2680   -4.7720 o         1 2B7     -0.320100
     23 N19         7.9520   -2.5760   -5.2390 n4        1 2B7     -0.639800
     24 C23         1.8500   -6.3770   -3.9060 ca        1 2B7     -0.242100
     25 C25         1.8890   -8.7830   -4.1010 ca        1 2B7     -0.243300
     26 C26         0.5860   -8.7120   -4.6350 ca        1 2B7      0.449200
     27 N27        -0.0770   -7.5520   -4.8060 nb        1 2B7     -0.642000
     28 C28         0.5400   -6.4150   -4.4430 ca        1 2B7      0.455200
     29 H1          0.0740    0.5570    1.1970 hc        1 2B7      0.049700
     30 H2          1.7130   -0.1960    1.3520 hc        1 2B7      0.049700
     31 H3          0.3270   -1.1600    0.6880 hc        1 2B7      0.049700
     32 H4          0.1860    0.3570   -1.2920 hc        1 2B7      0.071700
     33 H5          2.6490    1.7660   -0.0440 hc        1 2B7      0.049700
     34 H6          1.8880    2.1340   -1.6520 hc        1 2B7      0.049700
     35 H7          0.9650    2.4240   -0.1220 hc        1 2B7      0.049700
     36 H8          4.4390   -5.6770   -4.2720 ha        1 2B7      0.181000
     37 H9         10.0650   -2.4090   -5.5850 hx        1 2B7      0.123700
     38 H10         9.0000   -1.5220   -6.7990 hx        1 2B7      0.123700
     39 H11         9.4940   -4.6140   -6.5960 ha        1 2B7      0.168000
     40 H12         8.6020   -2.7110   -8.9210 ha        1 2B7      0.160000
     41 H13         9.0240   -4.5190   -9.0330 ha        1 2B7      0.160000
     42 H14         3.5370   -7.6240   -3.3030 ha        1 2B7      0.136000
     43 H15         2.5520   -0.0450   -2.2590 hc        1 2B7      0.048200
     44 H16         2.9600   -0.8130   -0.6360 hc        1 2B7      0.048200
     45 H17         0.5960   -1.6230   -2.5220 h1        1 2B7      0.113200
     46 H18         0.9860   -2.3930   -0.9130 h1        1 2B7      0.113200
     47 H19         7.8850   -2.1010   -2.4250 hn        1 2B7      0.497800
     48 H20         7.0740   -2.6630   -5.7840 hn        1 2B7      0.495800
     49 H21         2.3820   -9.7570   -3.9710 ha        1 2B7      0.168000
     50 H22         0.0410   -9.6280   -4.9370 h4        1 2B7      0.053100
     51 H23        -0.0490   -5.4880   -4.5840 h4        1 2B7      0.042100
     52 H162        7.2160   -0.5600   -2.5830 hn        1 2B7      0.497800
     53 H192        8.0510   -3.4380   -4.6790 hn        1 2B7      0.495800
@<TRIPOS>BOND
     1    1    2 1   
     2    1   29 1   
     3    1   30 1   
     4    1   31 1   
     5    2    3 1   
     6    2   15 1   
     7    2   32 1   
     8    3   33 1   
     9    3   34 1   
    10    3   35 1   
    11    4    5 1   
    12    4    9 1   
    13    4   16 1   
    14    5    6 1   
    15    5   17 2   
    16    6    7 2   
    17    6   24 1   
    18    7    8 1   
    19    7   36 1   
    20    8    9 2   
    21    8   19 1   
    22    9   18 1   
    23   10   18 1   
    24   10   19 2   
    25   10   20 1   
    26   11   12 1   
    27   11   23 1   
    28   11   37 1   
    29   11   38 1   
    30   12   13 2   
    31   12   39 1   
    32   13   40 1   
    33   13   41 1   
    34   14   24 ar  
    35   14   25 ar  
    36   14   42 1   
    37   15   16 1   
    38   15   43 1   
    39   15   44 1   
    40   16   45 1   
    41   16   46 1   
    42   20   21 1   
    43   20   47 1   
    44   20   52 1   
    45   21   22 2   
    46   21   23 1   
    47   23   48 1   
    48   23   53 1   
    49   24   28 ar  
    50   25   26 ar  
    51   25   49 1   
    52   26   27 ar  
    53   26   50 1   
    54   27   28 ar  
    55   28   51 1   
@<TRIPOS>SUBSTRUCTURE
     1 2B7         1 TEMP              0 ****  ****    0 ROOT
