@<TRIPOS>MOLECULE
2B7
   51    46     1     0     0
SMALL
bcc


@<TRIPOS>ATOM
      1 C1         -2.9420   -4.7500   -0.0620 c3        1 2B7     -0.210000
      2 C2         -1.6750   -4.0800    0.5010 c3        1 2B7     -0.103000
      3 C3         -1.3040   -4.7340    1.8500 c3        1 2B7     -0.210000
      4 N6         -0.8240   -0.3740    0.9240 n         1 2B7     -0.200000
      5 C7         -1.7570    0.2190    1.8740 c2        1 2B7      0.340000
      6 C9         -1.9210    1.7070    1.9340 c2        1 2B7     -0.131000
      7 C10        -1.1440    2.5630    1.0380 c1        1 2B7      0.010000
      8 C11        -0.1880    1.9500    0.0660 c1        1 2B7     -0.144000
      9 C12        -0.0310    0.4990    0.0120 c2        1 2B7     -0.254000
     10 C14         1.4810    1.5360   -1.6780 c1        1 2B7     -0.168000
     11 C20         5.0500    1.2680   -5.0690 c3        1 2B7     -0.017000
     12 C21         6.5580    1.1600   -4.8490 c2        1 2B7     -0.220000
     13 C22         7.2000   -0.0120   -5.1020 c1        1 2B7     -0.178000
     14 C24        -2.2960    2.7830    4.1720 c1        1 2B7     -0.138000
     15 C4         -1.9430   -2.5580    0.7170 c3        1 2B7     -0.176000
     16 C5         -0.5960   -1.8190    0.9310 c3        1 2B7     -0.036000
     17 O8         -2.4010   -0.4930    2.6160 o         1 2B7     -0.359000
     18 S13         1.0080    0.1810   -1.0690 ss        1 2B7      0.603000
     19 N15         0.7720    2.5950   -1.0070 n2        1 2B7     -0.112000
     20 N16         2.7940    1.8630   -2.1390 n2        1 2B7     -0.291000
     21 C17         3.1480    1.6370   -3.5080 c1        1 2B7      0.376000
     22 O18         2.3290    1.1670   -4.2810 o         1 2B7     -0.388000
     23 N19         4.4570    1.9940   -3.9790 n2        1 2B7     -0.322000
     24 C23        -2.8290    2.3330    2.9920 c1        1 2B7     -0.077000
     25 C25        -3.1180    3.3000    5.1410 c1        1 2B7     -0.138000
     26 C26        -4.4910    3.3660    4.9250 c1        1 2B7     -0.070000
     27 N27        -5.0210    2.9160    3.7460 n1        1 2B7     -0.140000
     28 C28        -4.2020    2.4000    2.7780 c1        1 2B7     -0.038000
     29 H1         -3.1100   -4.4210   -0.9720 hc        1 2B7      0.076167
     30 H2         -2.8150   -5.7280   -0.0840 hc        1 2B7      0.076167
     31 H3         -3.7110   -4.5330    0.5130 hc        1 2B7      0.076167
     32 H4         -0.9290   -4.1970   -0.1390 hc        1 2B7      0.083000
     33 H5         -1.8400   -5.2650    2.4950 hc        1 2B7      0.076167
     34 H6         -1.9230   -4.0280    2.1720 hc        1 2B7      0.076167
     35 H7         -1.4600   -5.5560    1.3030 hc        1 2B7      0.076167
     36 H8         -1.2500    3.5370    1.0760 ha        1 2B7      0.157000
     37 H9          4.8750    1.7430   -5.9120 h1        1 2B7      0.119000
     38 H10         4.6590    0.3650   -5.1130 h1        1 2B7      0.119000
     39 H11         7.0640    1.9370   -4.5250 ha        1 2B7      0.121000
     40 H12         6.6950   -0.7880   -5.4260 DU        1 2B7      0.122000
     41 H13         8.1680   -0.0810   -4.9610 ha        1 2B7      0.118000
     42 H14        -1.3240    2.7360    4.3240 ha        1 2B7      0.139000
     43 H15        -2.5130   -2.4350    1.5070 hc        1 2B7      0.096500
     44 H16        -2.3970   -2.1890   -0.0760 hc        1 2B7      0.096500
     45 H17        -0.2090   -2.0860    1.7970 h1        1 2B7      0.111000
     46 H18         0.0280   -2.0560    0.2060 h1        1 2B7      0.111000
     47 H19         3.3910    2.2710   -1.5720 hn        1 2B7      0.251000
     48 H20         4.8890    2.7240   -3.6250 hn        1 2B7      0.211000
     49 H21        -2.7360    3.6240    5.9890 ha        1 2B7      0.139000
     50 H22        -5.0810    3.7360    5.6190 ha        1 2B7      0.157000
     51 H23        -4.5850    2.0770    1.9300 ha        1 2B7      0.182000
@<TRIPOS>BOND
     1    1    2 1   
     2    1   29 1   
     3    1   30 1   
     4    1   31 1   
     5    2    3 1   
     6    2   15 1   
     7    2   32 1   
     8    3   33 1   
     9    3   34 1   
    10    3   35 1   
    11    4    5 1   
    12    4    9 1   
    13    4   16 1   
    14    5    6 1   
    15    5   17 1   
    16    6    7 1   
    17    6   24 1   
    18    7   36 1   
    19    8    9 1   
    20    8   19 1   
    21    9   18 1   
    22   10   18 1   
    23   10   19 1   
    24   11   12 1   
    25   11   23 1   
    26   11   37 1   
    27   11   38 1   
    28   12   13 1   
    29   12   39 1   
    30   13   41 1   
    31   14   25 1   
    32   14   42 1   
    33   15   16 1   
    34   15   43 1   
    35   15   44 1   
    36   16   45 1   
    37   16   46 1   
    38   20   21 1   
    39   20   47 1   
    40   21   22 1   
    41   23   48 1   
    42   24   28 1   
    43   25   49 1   
    44   26   27 1   
    45   26   50 1   
    46   28   51 1   
@<TRIPOS>SUBSTRUCTURE
     1 2B7         1 TEMP              0 ****  ****    0 ROOT
