@<TRIPOS>MOLECULE
2B7
   51    53     1     0     0
SMALL
bcc


@<TRIPOS>ATOM
      1 C1          3.3900   -4.5200    0.5230 c3        1 2B7     -0.093100
      2 C2          1.9370   -4.1600    0.7520 c3        1 2B7     -0.063700
      3 C3          1.4350   -4.8010    2.0310 c3        1 2B7     -0.093100
      4 N6          1.5930   -0.5960   -0.6060 n         1 2B7     -0.303000
      5 C7          2.6820    0.3050   -0.4600 c         1 2B7      0.704700
      6 C9          2.3820    1.7510   -0.4400 cc        1 2B7     -0.134400
      7 C10         1.1050    2.2110   -0.5720 cd        1 2B7     -0.097800
      8 C11         0.0270    1.2810   -0.7160 cd        1 2B7      0.287100
      9 C12         0.3140   -0.1170   -0.7140 cc        1 2B7     -0.005800
     10 C14        -2.0390    0.4900   -0.9650 cc        1 2B7      0.475300
     11 C20        -6.5650    0.1940    0.8320 c3        1 2B7      0.101200
     12 C21        -7.3420   -1.0240    0.4360 c2        1 2B7     -0.219200
     13 C22        -7.4200   -2.1120    1.1960 c2        1 2B7     -0.184000
     14 C24         3.3360    3.8390    0.5100 ca        1 2B7     -0.086000
     15 C4          1.7410   -2.6520    0.8210 c3        1 2B7     -0.099400
     16 C5          1.8270   -2.0300   -0.5730 c3        1 2B7      0.077000
     17 O8          3.8250   -0.1820   -0.3710 o         1 2B7     -0.624500
     18 S13        -1.1190   -0.9990   -0.8910 ss        1 2B7     -0.053300
     19 N15        -1.3120    1.6100   -0.8530 nd        1 2B7     -0.600000
     20 N16        -3.4290    0.4130   -1.1860 n         1 2B7     -0.497400
     21 C17        -4.2690    0.2930   -0.0280 c         1 2B7      0.729100
     22 O18        -3.8080   -0.1320    1.0530 o         1 2B7     -0.597100
     23 N19        -5.6210    0.6670   -0.1550 n         1 2B7     -0.523900
     24 C23         3.4930    2.6760   -0.2610 ca        1 2B7     -0.159100
     25 C25         4.4080    4.7230    0.6370 ca        1 2B7     -0.251300
     26 C26         5.6140    4.4150   -0.0170 ca        1 2B7      0.398200
     27 N27         5.7910    3.3020   -0.7560 nb        1 2B7     -0.666000
     28 C28         4.7530    2.4550   -0.8670 ca        1 2B7      0.429200
     29 H1          3.5100   -5.6300    0.4870 hc        1 2B7      0.037700
     30 H2          3.7570   -4.0940   -0.4420 hc        1 2B7      0.037700
     31 H3          4.0280   -4.1220    1.3490 hc        1 2B7      0.037700
     32 H4          1.3290   -4.5640   -0.1070 hc        1 2B7      0.042700
     33 H5          0.3470   -4.5960    2.1710 hc        1 2B7      0.037700
     34 H6          1.5870   -5.9060    1.9920 hc        1 2B7      0.037700
     35 H7          1.9890   -4.3970    2.9120 hc        1 2B7      0.037700
     36 H8          0.8760    3.2900   -0.5690 ha        1 2B7      0.161000
     37 H9         -7.2980    1.0390    0.9970 h1        1 2B7      0.078200
     38 H10        -6.0170    0.0130    1.8020 h1        1 2B7      0.078200
     39 H11        -7.8800   -0.9550   -0.5240 ha        1 2B7      0.119000
     40 H12        -8.0250   -2.9830    0.9110 ha        1 2B7      0.118500
     41 H13        -6.8890   -2.2100    2.1530 ha        1 2B7      0.118500
     42 H14         2.3820    4.0470    1.0160 ha        1 2B7      0.138000
     43 H15         0.7410   -2.4290    1.2770 hc        1 2B7      0.059200
     44 H16         2.5250   -2.2000    1.4840 hc        1 2B7      0.059200
     45 H17         1.0690   -2.5220   -1.2510 h1        1 2B7      0.073200
     46 H18         2.8580   -2.2150   -0.9950 h1        1 2B7      0.073200
     47 H19        -3.7460    1.0690   -1.8760 hn        1 2B7      0.304500
     48 H20        -5.9890    0.7230   -1.0800 hn        1 2B7      0.292500
     49 H21         4.3160    5.6380    1.2350 ha        1 2B7      0.143000
     50 H22         6.4860    5.0880    0.0540 h4        1 2B7      0.021100
     51 H23         4.9370    1.5370   -1.4590 h4        1 2B7      0.044100
@<TRIPOS>BOND
     1    1    2 1   
     2    1   29 1   
     3    1   30 1   
     4    1   31 1   
     5    2    3 1   
     6    2   15 1   
     7    2   32 1   
     8    3   33 1   
     9    3   34 1   
    10    3   35 1   
    11    4    5 1   
    12    4    9 1   
    13    4   16 1   
    14    5    6 1   
    15    5   17 2   
    16    6    7 2   
    17    6   24 1   
    18    7    8 1   
    19    7   36 1   
    20    8    9 2   
    21    8   19 1   
    22    9   18 1   
    23   10   18 1   
    24   10   19 2   
    25   10   20 1   
    26   11   12 1   
    27   11   23 1   
    28   11   37 1   
    29   11   38 1   
    30   12   13 2   
    31   12   39 1   
    32   13   40 1   
    33   13   41 1   
    34   14   24 ar  
    35   14   25 ar  
    36   14   42 1   
    37   15   16 1   
    38   15   43 1   
    39   15   44 1   
    40   16   45 1   
    41   16   46 1   
    42   20   21 1   
    43   20   47 1   
    44   21   22 2   
    45   21   23 1   
    46   23   48 1   
    47   24   28 ar  
    48   25   26 ar  
    49   25   49 1   
    50   26   27 ar  
    51   26   50 1   
    52   27   28 ar  
    53   28   51 1   
@<TRIPOS>SUBSTRUCTURE
     1 2B7         1 TEMP              0 ****  ****    0 ROOT
