@<TRIPOS>MOLECULE
2B7
   52    54     1     0     0
SMALL
bcc


@<TRIPOS>ATOM
      1 C1          0.0570    0.1470    0.0020 c3        1 2B7     -0.094600
      2 C2          1.5670    0.0780   -0.0870 c3        1 2B7     -0.062700
      3 C3          2.1800    0.2470    1.2900 c3        1 2B7     -0.094600
      4 N6          2.2420   -2.4600   -2.8760 n         1 2B7     -0.301000
      5 C7          1.3840   -3.6000   -2.9870 c         1 2B7      0.702700
      6 C9          1.9250   -4.8080   -3.6530 cc        1 2B7     -0.085400
      7 C10         3.1880   -4.8330   -4.1570 cd        1 2B7     -0.127800
      8 C11         4.0300   -3.6750   -4.0320 cd        1 2B7      0.294100
      9 C12         3.5110   -2.5090   -3.3670 cc        1 2B7      0.020200
     10 C14         5.7850   -2.3260   -4.1850 cc        1 2B7      0.313300
     11 C20         9.3250   -3.1590   -6.3530 c3        1 2B7      0.155000
     12 C21        10.6790   -3.2440   -6.9670 c2        1 2B7     -0.274200
     13 C22        11.7500   -3.6690   -6.2980 c2        1 2B7     -0.103000
     14 C24         1.5790   -7.2670   -3.5710 ca        1 2B7     -0.078000
     15 C4          2.0300   -1.2400   -0.6940 c3        1 2B7     -0.097400
     16 C5          1.7670   -1.2610   -2.1990 c3        1 2B7      0.068000
     17 O8          0.2390   -3.4950   -2.5250 o         1 2B7     -0.570500
     18 S13         4.6850   -1.2910   -3.3470 ss        1 2B7      0.034700
     19 N15         5.3150   -3.5550   -4.4940 nd        1 2B7     -0.569000
     20 N16         7.0900   -1.8740   -4.5020 ns        1 2B7     -0.417400
     21 C17         7.3600   -1.6810   -5.8570 c         1 2B7      0.626100
     22 O18         6.5960   -1.3340   -6.7550 o         1 2B7     -0.437100
     23 N19         8.8300   -1.7460   -6.3060 ny        1 2B7     -0.679800
     24 C23         1.0570   -5.9740   -3.7410 ca        1 2B7     -0.192100
     25 C25         0.7290   -8.3650   -3.6890 ca        1 2B7     -0.248300
     26 C26        -0.6290   -8.1350   -3.9780 ca        1 2B7      0.418200
     27 N27        -1.1530   -6.9050   -4.1400 nb        1 2B7     -0.655000
     28 C28        -0.3260   -5.8520   -4.0180 ca        1 2B7      0.439200
     29 H1         -0.2540    1.1100    0.4760 hc        1 2B7      0.041867
     30 H2         -0.3400   -0.6940    0.6200 hc        1 2B7      0.041867
     31 H3         -0.4040    0.0900   -1.0120 hc        1 2B7      0.041867
     32 H4          1.9270    0.9230   -0.7400 hc        1 2B7      0.041700
     33 H5          1.8390    1.2080    1.7460 hc        1 2B7      0.041867
     34 H6          1.8710   -0.5910    1.9610 hc        1 2B7      0.041867
     35 H7          3.2940    0.2590    1.2260 hc        1 2B7      0.041867
     36 H8          3.5890   -5.7250   -4.6670 ha        1 2B7      0.169000
     37 H9          8.5870   -3.7550   -6.9690 hx        1 2B7      0.108700
     38 H10         9.3240   -3.5630   -5.3000 hx        1 2B7      0.108700
     39 H11        10.7300   -2.9970   -8.0410 ha        1 2B7      0.158000
     40 H12        11.7320   -3.9470   -5.2340 ha        1 2B7      0.144500
     41 H13        12.7300   -3.7820   -6.7900 ha        1 2B7      0.144500
     42 H14         2.6440   -7.4120   -3.3370 ha        1 2B7      0.135000
     43 H15         1.4860   -2.0900   -0.2040 hc        1 2B7      0.056700
     44 H16         3.1250   -1.3760   -0.4930 hc        1 2B7      0.056700
     45 H17         2.2610   -0.3690   -2.6840 h1        1 2B7      0.080200
     46 H18         0.6530   -1.1930   -2.3780 h1        1 2B7      0.080200
     47 H19         7.8060   -2.3170   -3.9520 hn        1 2B7      0.326500
     48 H20         8.8730   -1.3410   -7.2530 hn        1 2B7      0.462800
     49 H21         1.1040   -9.3880   -3.5560 ha        1 2B7      0.152000
     50 H22        -1.3390   -8.9770   -4.0820 h4        1 2B7      0.034100
     51 H23        -0.7930   -4.8560   -4.1350 h4        1 2B7      0.043100
     52 H192        9.4280   -1.1860   -5.6920 hn        1 2B7      0.462800
@<TRIPOS>BOND
     1    1    2 1   
     2    1   29 1   
     3    1   30 1   
     4    1   31 1   
     5    2    3 1   
     6    2   15 1   
     7    2   32 1   
     8    3   33 1   
     9    3   34 1   
    10    3   35 1   
    11    4    5 1   
    12    4    9 1   
    13    4   16 1   
    14    5    6 1   
    15    5   17 2   
    16    6    7 2   
    17    6   24 1   
    18    7    8 1   
    19    7   36 1   
    20    8    9 2   
    21    8   19 1   
    22    9   18 1   
    23   10   18 1   
    24   10   19 2   
    25   10   20 1   
    26   11   12 1   
    27   11   23 1   
    28   11   37 1   
    29   11   38 1   
    30   12   13 2   
    31   12   39 1   
    32   13   40 1   
    33   13   41 1   
    34   14   24 ar  
    35   14   25 ar  
    36   14   42 1   
    37   15   16 1   
    38   15   43 1   
    39   15   44 1   
    40   16   45 1   
    41   16   46 1   
    42   20   21 1   
    43   20   47 1   
    44   21   22 2   
    45   21   23 1   
    46   23   48 1   
    47   23   52 1   
    48   24   28 ar  
    49   25   26 ar  
    50   25   49 1   
    51   26   27 ar  
    52   26   50 1   
    53   27   28 ar  
    54   28   51 1   
@<TRIPOS>SUBSTRUCTURE
     1 2B7         1 TEMP              0 ****  ****    0 ROOT
