@<TRIPOS>MOLECULE
2B7
   52    54     1     0     0
SMALL
bcc


@<TRIPOS>ATOM
      1 C1          0.0370    0.1800   -0.0520 c3        1 2B7     -0.094600
      2 C2          1.5480    0.1100   -0.1310 c3        1 2B7     -0.062700
      3 C3          2.1520    0.2960    1.2470 c3        1 2B7     -0.094600
      4 N6          2.2390   -2.4610   -2.8860 n         1 2B7     -0.301000
      5 C7          1.3860   -3.6050   -2.9850 c         1 2B7      0.702700
      6 C9          1.9330   -4.8190   -3.6340 cc        1 2B7     -0.085400
      7 C10         3.1980   -4.8450   -4.1350 cd        1 2B7     -0.127800
      8 C11         4.0350   -3.6830   -4.0230 cd        1 2B7      0.294100
      9 C12         3.5100   -2.5100   -3.3740 cc        1 2B7      0.020200
     10 C14         5.7850   -2.3300   -4.1890 cc        1 2B7      0.313300
     11 C20         9.3330   -3.1770   -6.3380 c3        1 2B7      0.155000
     12 C21        10.6890   -3.2650   -6.9470 c2        1 2B7     -0.274200
     13 C22        11.7600   -3.6780   -6.2710 c2        1 2B7     -0.103000
     14 C24         1.5970   -7.2790   -3.5220 ca        1 2B7     -0.078000
     15 C4          2.0150   -1.2140   -0.7200 c3        1 2B7     -0.097400
     16 C5          1.7580   -1.2550   -2.2260 c3        1 2B7      0.068000
     17 O8          0.2400   -3.4990   -2.5270 o         1 2B7     -0.570500
     18 S13         4.6790   -1.2880   -3.3660 ss        1 2B7      0.034700
     19 N15         5.3200   -3.5640   -4.4830 nd        1 2B7     -0.569000
     20 N16         7.0900   -1.8770   -4.5080 n         1 2B7     -0.417400
     21 C17         7.3620   -1.7000   -5.8650 c         1 2B7      0.626100
     22 O18         6.5980   -1.3670   -6.7690 o         1 2B7     -0.437100
     23 N19         8.8330   -1.7650   -6.3090 n4        1 2B7     -0.679800
     24 C23         1.0700   -5.9890   -3.7090 ca        1 2B7     -0.192100
     25 C25         0.7510   -8.3810   -3.6280 ca        1 2B7     -0.249300
     26 C26        -0.6080   -8.1600   -3.9230 ca        1 2B7      0.418200
     27 N27        -1.1350   -6.9340   -4.1010 nb        1 2B7     -0.655000
     28 C28        -0.3130   -5.8760   -3.9910 ca        1 2B7      0.439200
     29 H1         -0.2780    1.1480    0.4100 hc        1 2B7      0.041867
     30 H2         -0.3630   -0.6550    0.5720 hc        1 2B7      0.041867
     31 H3         -0.4180    0.1120   -1.0690 hc        1 2B7      0.041867
     32 H4          1.9110    0.9480   -0.7930 hc        1 2B7      0.041700
     33 H5          1.8390   -0.5340    1.9250 hc        1 2B7      0.041867
     34 H6          1.8090    1.2620    1.6890 hc        1 2B7      0.041867
     35 H7          3.2670    0.3070    1.1900 hc        1 2B7      0.041867
     36 H8          3.6030   -5.7420   -4.6320 ha        1 2B7      0.169000
     37 H9          8.5980   -3.7830   -6.9490 hx        1 2B7      0.108700
     38 H10         9.3310   -3.5680   -5.2800 hx        1 2B7      0.108700
     39 H11        10.7420   -3.0300   -8.0240 ha        1 2B7      0.158000
     40 H12        11.7390   -3.9440   -5.2030 ha        1 2B7      0.144500
     41 H13        12.7410   -3.7940   -6.7580 ha        1 2B7      0.144500
     42 H14         2.6620   -7.4160   -3.2840 ha        1 2B7      0.135000
     43 H15         3.1090   -1.3460   -0.5130 hc        1 2B7      0.056700
     44 H16         1.4700   -2.0590   -0.2230 hc        1 2B7      0.056700
     45 H17         0.6450   -1.1920   -2.4100 h1        1 2B7      0.079700
     46 H18         2.2510   -0.3670   -2.7200 h1        1 2B7      0.079700
     47 H19         7.8050   -2.3100   -3.9510 hn        1 2B7      0.326500
     48 H20         8.8780   -1.3720   -7.2610 hn        1 2B7      0.462800
     49 H21         1.1300   -9.4010   -3.4820 ha        1 2B7      0.152000
     50 H22        -1.3140   -9.0060   -4.0180 h4        1 2B7      0.034100
     51 H23        -0.7840   -4.8830   -4.1210 h4        1 2B7      0.043100
     52 H192        9.4280   -1.1950   -5.7020 hn        1 2B7      0.462800
@<TRIPOS>BOND
     1    1    2 1   
     2    1   29 1   
     3    1   30 1   
     4    1   31 1   
     5    2    3 1   
     6    2   15 1   
     7    2   32 1   
     8    3   33 1   
     9    3   34 1   
    10    3   35 1   
    11    4    5 1   
    12    4    9 1   
    13    4   16 1   
    14    5    6 1   
    15    5   17 2   
    16    6    7 2   
    17    6   24 1   
    18    7    8 1   
    19    7   36 1   
    20    8    9 2   
    21    8   19 1   
    22    9   18 1   
    23   10   18 1   
    24   10   19 2   
    25   10   20 1   
    26   11   12 1   
    27   11   23 1   
    28   11   37 1   
    29   11   38 1   
    30   12   13 2   
    31   12   39 1   
    32   13   40 1   
    33   13   41 1   
    34   14   24 ar  
    35   14   25 ar  
    36   14   42 1   
    37   15   16 1   
    38   15   43 1   
    39   15   44 1   
    40   16   45 1   
    41   16   46 1   
    42   20   21 1   
    43   20   47 1   
    44   21   22 2   
    45   21   23 1   
    46   23   48 1   
    47   23   52 1   
    48   24   28 ar  
    49   25   26 ar  
    50   25   49 1   
    51   26   27 ar  
    52   26   50 1   
    53   27   28 ar  
    54   28   51 1   
@<TRIPOS>SUBSTRUCTURE
     1 2B7         1 TEMP              0 ****  ****    0 ROOT
