@<TRIPOS>MOLECULE
2B8
   42    36     1     0     0
SMALL
bcc


@<TRIPOS>ATOM
      1 C1         -1.4510    1.0790   -2.2280 c3        1 2B8     -0.108800
      2 C2          1.9730    0.6370    0.5710 c2        1 2B8     -0.298000
      3 C3          2.0110   -0.3570    1.4720 c2        1 2B8      0.048000
      4 N6          5.6730   -1.5510    3.1960 n1        1 2B8     -1.100500
      5 C7          5.3060   -0.2390    3.0810 ce        1 2B8      0.371700
      6 C8          8.4600    1.5370    3.1890 c1        1 2B8     -0.167500
      7 C9          8.3920    2.2190    2.2090 c1        1 2B8     -0.167500
      8 C10         5.7620    2.6820   -1.1080 c3        1 2B8     -0.082900
      9 C11         5.8580    1.4670   -1.9400 c2        1 2B8     -0.159200
     10 C12         5.6090    1.4330   -3.2480 c2        1 2B8     -0.245000
     11 C14         4.8160    2.5590    2.3190 c2        1 2B8     -0.201000
     12 C15         3.8620    1.6780    2.6230 cf        1 2B8     -0.137000
     13 C16         4.0740    0.2230    2.6840 cf        1 2B8      0.146000
     14 N4          2.9800   -0.6160    2.4410 nh        1 2B8     -0.633800
     15 C5          6.0260   -2.6760    3.3000 c1        1 2B8      0.424800
     16 N13         8.6040    3.2690   -3.1570 n3        1 2B8     -1.038400
     17 H1         -1.4110    1.9900   -2.8640 hc        1 2B8      0.027200
     18 H2          1.1100    0.7460   -0.0970 ha        1 2B8      0.125500
     19 H3         -0.5460    1.0380   -1.5830 hc        1 2B8      0.027200
     20 H4         -2.3610    1.1130   -1.5900 hc        1 2B8      0.027200
     21 H5         -1.4860    0.1760   -2.8760 hc        1 2B8      0.027200
     22 H6          1.1810   -1.0940    1.5280 h4        1 2B8      0.136000
     23 H7          2.7660    1.3840    0.4440 ha        1 2B8      0.125500
     24 H8          6.1030    0.4800    3.3580 h4        1 2B8      0.167000
     25 H9          8.5280    0.9330    4.0590 ha        1 2B8      0.168500
     26 H10         5.3730    3.5540   -1.6890 hc        1 2B8      0.048367
     27 H11         6.7720    2.9530   -0.7010 hc        1 2B8      0.048367
     28 H12         6.1620    0.5540   -1.3980 ha        1 2B8      0.123000
     29 H13         5.0770    2.5020   -0.2390 hc        1 2B8      0.048367
     30 H14         5.2960    2.3190   -3.8160 ha        1 2B8      0.111000
     31 H15         5.6870    0.5100   -3.8360 ha        1 2B8      0.111000
     32 H16         8.3390    2.8260    1.3370 ha        1 2B8      0.168500
     33 H17         4.6150    3.6390    2.3090 ha        1 2B8      0.124500
     34 H18         2.8360    2.0130    2.8580 ha        1 2B8      0.144000
     35 H19         5.8490    2.2780    2.0650 ha        1 2B8      0.124500
     36 H20         3.1230   -1.5850    2.6300 hn        1 2B8      0.429800
     37 H21         7.7140    2.8790   -2.9170 hn        1 2B8      0.347133
     38 H22         8.5210    3.7870   -4.0060 hn        1 2B8      0.347133
     39 H133        9.2610    2.5290   -3.2910 hn        1 2B8      0.347133
     40 C17         9.3900    4.9260   -1.1810 c1        1 2B8      0.915000
     41 O18        10.0850    5.5390   -1.9260 o         1 2B8     -0.461000
     42 O19         8.7080    4.3500   -0.3910 o         1 2B8     -0.461000
@<TRIPOS>BOND
     1    1   17 1   
     2    1   19 1   
     3    1   20 1   
     4    1   21 1   
     5    2    3 2   
     6    2   18 1   
     7    2   23 1   
     8    3   14 1   
     9    3   22 1   
    10    4    5 1   
    11    4   15 3   
    12    5   13 2   
    13    5   24 1   
    14    6    7 3   
    15    6   25 1   
    16    7   32 1   
    17    8    9 1   
    18    8   26 1   
    19    8   27 1   
    20    8   29 1   
    21    9   10 2   
    22    9   28 1   
    23   10   30 1   
    24   10   31 1   
    25   11   12 2   
    26   11   33 1   
    27   11   35 1   
    28   12   13 1   
    29   12   34 1   
    30   13   14 1   
    31   14   36 1   
    32   16   37 1   
    33   16   38 1   
    34   16   39 1   
    35   40   41 2   
    36   40   42 2   
@<TRIPOS>SUBSTRUCTURE
     1 2B8         1 TEMP              0 ****  ****    0 ROOT
