@<TRIPOS>MOLECULE
2B8
   42    39     1     0     0
SMALL
bcc


@<TRIPOS>ATOM
      1 C1         -1.2400   -0.4740    1.1160 c3        1 2B8     -0.218000
      2 C2         -1.0560   -0.4740   -0.3730 c3        1 2B8     -0.218000
      3 C3          1.6190    0.8030    2.7170 c1        1 2B8     -0.140000
      4 N6          4.8510   -1.2320    4.1520 n2        1 2B8     -0.356000
      5 C7          5.1920   -0.0130    3.5540 c3        1 2B8      0.033000
      6 C8          6.8410    1.2280    0.8330 c1        1 2B8      0.230000
      7 C9          6.6830    2.3310    0.1390 c2        1 2B8     -0.531000
      8 C10         6.7280    3.3380   -3.2340 cx        1 2B8     -0.227000
      9 C11         8.0840    2.6910   -3.2160 cx        1 2B8     -0.227000
     10 C12         7.7240    3.6570   -4.3090 cx        1 2B8     -0.227000
     11 C14         5.6280    2.7520    2.7420 c3        1 2B8      0.010000
     12 C15         4.3240    2.0690    2.5420 c2        1 2B8     -0.241000
     13 C16         4.0650    0.8040    2.9420 c2        1 2B8     -0.065000
     14 N4          2.7780    0.2120    2.7740 n7        1 2B8     -0.141000
     15 C5          4.5980   -2.2630    4.6740 c1        1 2B8      0.149000
     16 N13        10.7410    2.0570   -4.7680 n9        1 2B8     -0.398000
     17 H1         -2.1000    0.1780    1.4050 hc        1 2B8      0.072167
     18 H2         -0.8490    0.5580   -0.7450 hc        1 2B8      0.072167
     19 H3         -1.4480   -1.5070    1.4860 hc        1 2B8      0.072167
     20 H4         -1.9720   -0.8530   -0.8880 hc        1 2B8      0.072167
     21 H5         -0.3220   -0.0940    1.6340 hc        1 2B8      0.072167
     22 H6          1.5850    1.9070    2.8120 ha        1 2B8      0.057000
     23 H7         -0.1980   -1.1280   -0.6640 hc        1 2B8      0.072167
     24 H8          5.9470   -0.2090    2.7270 h1        1 2B8      0.122000
     25 H9          5.6910    0.6330    4.3390 h1        1 2B8      0.122000
     26 H10         5.8450    2.7260   -3.4900 hc        1 2B8      0.114333
     27 H11         6.9660    2.3160   -0.9470 ha        1 2B8      0.246000
     28 H12         8.8180    3.0010   -2.4520 hc        1 2B8      0.114333
     29 H13         7.5530    3.2710   -5.3300 hc        1 2B8      0.114333
     30 H14         8.1960    4.6550   -4.3200 hc        1 2B8      0.114333
     31 H15         8.1730    1.6170   -3.4600 hc        1 2B8      0.114333
     32 H16         5.6640    3.2350    3.7630 h1        1 2B8      0.116000
     33 H17         6.4880    4.1090   -2.4750 hc        1 2B8      0.114333
     34 H18         3.5530    2.6960    2.0580 ha        1 2B8      0.165000
     35 H19         6.5100    2.0480    2.6600 h1        1 2B8      0.116000
     36 H20         2.7880   -0.7870    2.6930 hn        1 2B8      0.254000
     37 H21        11.4820    2.5110   -5.2600 hn        1 2B8      0.132000
     38 H22         9.8650    2.4030   -5.1020 hn        1 2B8      0.132000
     39 H133       10.8170    2.2720   -3.7950 hn        1 2B8      0.132000
     40 C17         6.1870    3.6380    0.5650 c2        1 2B8      0.381000
     41 O18         6.1140    4.6500   -0.1300 o         1 2B8     -0.283000
     42 O19         5.7710    3.8580    1.8590 os        1 2B8     -0.241000
@<TRIPOS>BOND
     1    1    2 1   
     2    1   17 1   
     3    1   19 1   
     4    1   21 1   
     5    2   18 1   
     6    2   20 1   
     7    2   23 1   
     8    3   14 1   
     9    3   22 1   
    10    4    5 1   
    11    4   15 1   
    12    5   13 1   
    13    5   24 1   
    14    5   25 1   
    15    6    7 1   
    16    7   27 1   
    17    7   40 1   
    18    8    9 1   
    19    8   10 1   
    20    8   26 1   
    21    8   33 1   
    22    9   10 1   
    23    9   28 1   
    24    9   31 1   
    25   10   29 1   
    26   10   30 1   
    27   11   12 1   
    28   11   32 1   
    29   11   35 1   
    30   11   42 1   
    31   12   13 1   
    32   12   34 1   
    33   13   14 1   
    34   14   36 1   
    35   16   37 1   
    36   16   38 1   
    37   16   39 1   
    38   40   41 1   
    39   40   42 1   
@<TRIPOS>SUBSTRUCTURE
     1 2B8         1 TEMP              0 ****  ****    0 ROOT
