@<TRIPOS>MOLECULE
2B8
   42    38     1     0     0
SMALL
bcc


@<TRIPOS>ATOM
      1 C1          1.8030   -0.0540   -2.0070 c3        1 2B8     -0.282000
      2 C2          2.4810   -0.3580   -0.7740 c1        1 2B8     -0.097000
      3 C3          1.9080    0.0630    0.5070 c3        1 2B8     -0.122000
      4 N6          5.3200   -1.1950    2.6810 n2        1 2B8     -0.283000
      5 C7          4.8650    0.0940    2.6560 c2        1 2B8     -0.106000
      6 C8          8.2500    2.1780    1.7370 c2        1 2B8     -0.226000
      7 C9          7.7790    2.6700    0.5930 c2        1 2B8     -0.163000
      8 C10         6.4250    2.3760    0.0630 c3        1 2B8     -0.134000
      9 C11         6.4730    2.0030   -1.4040 c3        1 2B8     -0.192000
     10 C12         5.0620    1.7700   -1.9460 c3        1 2B8     -0.100000
     11 C14         2.2510    2.4990    2.6660 c2        1 2B8     -0.190000
     12 C15         3.3940    1.9640    2.2390 c2        1 2B8     -0.147000
     13 C16         3.6570    0.5160    2.1580 c2        1 2B8      0.034000
     14 N4          2.6470   -0.3420    1.6890 n3        1 2B8     -0.246000
     15 C5          5.7380   -2.3020    2.7130 c1        1 2B8      0.105000
     16 N13         4.9580    1.4840   -3.3550 n3        1 2B8     -0.344000
     17 H1          2.0250    3.2110   -1.2510 ha        1 2B8      0.000500
     18 H2          0.8120    0.4610   -1.9240 hc        1 2B8      0.117667
     19 H3          2.0540    2.5430   -1.3650 ha        1 2B8      0.000500
     20 H4          1.6700   -1.0100   -2.5840 hc        1 2B8      0.117667
     21 H5          2.4970    0.5940   -2.6180 hc        1 2B8      0.117667
     22 H6          0.8750   -0.3960    0.6160 h1        1 2B8      0.125500
     23 H7          1.7690    1.1890    0.5130 h1        1 2B8      0.125500
     24 H8          5.5570    0.8270    3.1130 h4        1 2B8      0.154000
     25 H9          9.2520    2.4230    2.1110 ha        1 2B8      0.109000
     26 H10         5.7840    3.2920    0.1940 hc        1 2B8      0.086500
     27 H11         7.6730    1.4950    2.3740 ha        1 2B8      0.109000
     28 H12         7.0890    1.0750   -1.5340 hc        1 2B8      0.083000
     29 H13         5.9390    1.5470    0.6480 hc        1 2B8      0.086500
     30 H14         4.4410    2.6890   -1.7420 h1        1 2B8      0.095000
     31 H15         6.9750    2.8230   -1.9820 hc        1 2B8      0.083000
     32 H16         8.3870    3.3480   -0.0320 ha        1 2B8      0.130000
     33 H17         2.1120    3.5860    2.7350 ha        1 2B8      0.122000
     34 H18         4.2520    2.5950    1.9410 ha        1 2B8      0.136000
     35 H19         1.3890    1.8950    2.9810 ha        1 2B8      0.122000
     36 H20         2.9600   -1.2910    1.5970 hn        1 2B8      0.197000
     37 H21         5.3830    2.2090   -3.8990 hn        1 2B8      0.141000
     38 H22         4.5910    0.9100   -1.3840 h1        1 2B8      0.095000
     39 H133        5.4060    0.6160   -3.5750 hn        1 2B8      0.141000
     40 C17        10.9140    5.3390   -1.4280 c1        1 2B8      0.414000
     41 O18        11.9560    5.8920   -1.5770 o         1 2B8     -0.206500
     42 O19         9.8710    4.7870   -1.2790 o         1 2B8     -0.206500
@<TRIPOS>BOND
     1    1    2 1   
     2    1   18 1   
     3    1   20 1   
     4    1   21 1   
     5    2    3 1   
     6    3   14 1   
     7    3   22 1   
     8    3   23 1   
     9    4    5 1   
    10    4   15 1   
    11    5   13 1   
    12    5   24 1   
    13    6    7 1   
    14    6   25 1   
    15    6   27 1   
    16    7    8 1   
    17    7   32 1   
    18    8    9 1   
    19    8   26 1   
    20    8   29 1   
    21    9   10 1   
    22    9   28 1   
    23    9   31 1   
    24   10   16 1   
    25   10   30 1   
    26   10   38 1   
    27   11   12 1   
    28   11   33 1   
    29   11   35 1   
    30   12   13 1   
    31   12   34 1   
    32   13   14 1   
    33   14   36 1   
    34   16   37 1   
    35   16   39 1   
    36   17   19 1   
    37   40   41 1   
    38   40   42 1   
@<TRIPOS>SUBSTRUCTURE
     1 2B8         1 TEMP              0 ****  ****    0 ROOT
