@<TRIPOS>MOLECULE
2B9
   38    39     1     0     0
SMALL
bcc


@<TRIPOS>ATOM
      1 OAE         0.8120   -1.0210   -0.6850 o         1 2B9     -0.849500
      2 PAY         1.7790    0.0700   -0.4390 p5        1 2B9      1.436800
      3 OAF         2.4000    0.3240    0.8810 o         1 2B9     -0.849500
      4 OAC         2.9410    0.0170   -1.5740 oh        1 2B9     -0.806400
      5 OAR         1.0800    1.4870   -0.9480 os        1 2B9     -0.578200
      6 CAM         1.4010    2.6690   -0.2900 c3        1 2B9      0.238600
      7 CAW         2.1840    3.6310   -1.1420 ce        1 2B9     -0.202300
      8 CAL         3.0860    3.0510   -2.0990 c1        1 2B9     -0.111900
      9 NAP         3.7750    3.8550   -2.9080 nu        1 2B9     -0.121600
     10 CAT         3.6710    5.2460   -2.8880 c2        1 2B9     -0.203300
     11 CAA         4.4500    6.0670   -3.8500 c3        1 2B9     -0.028900
     12 CAV         2.8370    5.8280   -1.9320 ce        1 2B9      0.119100
     13 OAD         2.8140    7.2010   -1.9580 oh        1 2B9     -0.543100
     14 CAX         2.0830    5.0120   -1.0070 ce        1 2B9     -0.008000
     15 CAG         1.2760    5.5960    0.0630 cf        1 2B9     -0.074400
     16 NAN         0.9070    6.8600    0.0540 nf        1 2B9     -0.224600
     17 NAQ         0.1790    7.3620    1.0160 ne        1 2B9     -0.529400
     18 CAS        -0.1250    8.7080    0.9630 c         1 2B9      0.668100
     19 OAB         0.2260    9.5890    0.1270 o         1 2B9     -0.713100
     20 CAU        -0.9910    9.1780    2.1080 ca        1 2B9     -0.042600
     21 CAJ        -0.9690   10.5380    2.4530 ca        1 2B9     -0.209300
     22 CAH        -1.7800   10.9850    3.5060 ca        1 2B9      0.351200
     23 NAO        -2.5950   10.1790    4.2180 nb        1 2B9     -0.700000
     24 CAI        -2.6070    8.8760    3.8750 ca        1 2B9      0.351200
     25 CAK        -1.8310    8.3280    2.8370 ca        1 2B9     -0.209300
     26 H3          0.4220    3.1570   -0.0040 h1        1 2B9      0.045200
     27 H4          1.9970    2.4470    0.6440 h1        1 2B9      0.045200
     28 H5          3.1640    0.8810   -1.9250 ho        1 2B9      0.460000
     29 H6          5.5080    6.1750   -3.5000 hc        1 2B9      0.033033
     30 H7          4.0010    7.0880   -3.9290 hc        1 2B9      0.033033
     31 H8          4.4630    5.6040   -4.8690 hc        1 2B9      0.033033
     32 H9          2.1150    7.5240   -1.3560 ho        1 2B9      0.478000
     33 H10         1.0100    4.8880    0.8740 h4        1 2B9      0.123000
     34 H14        -0.3280   11.2290    1.8870 ha        1 2B9      0.163000
     35 H15        -1.7840   12.0480    3.8010 h4        1 2B9     -0.004400
     36 H16        -3.2780    8.2320    4.4690 h4        1 2B9     -0.004400
     37 H17        -1.8810    7.2530    2.6120 ha        1 2B9      0.163000
     38 H18         4.3950    3.4520   -3.5730 hn        1 2B9      0.275700
@<TRIPOS>BOND
     1    1    2 1   
     2    2    3 1   
     3    2    4 1   
     4    2    5 1   
     5    4   28 1   
     6    5    6 1   
     7    6    7 1   
     8    6   26 1   
     9    6   27 1   
    10    7    8 2   
    11    7   14 1   
    12    8    9 2   
    13    9   10 1   
    14    9   38 1   
    15   10   11 1   
    16   10   12 2   
    17   11   29 1   
    18   11   30 1   
    19   11   31 1   
    20   12   13 1   
    21   12   14 1   
    22   13   32 1   
    23   14   15 2   
    24   15   16 1   
    25   15   33 1   
    26   16   17 2   
    27   17   18 1   
    28   18   19 2   
    29   18   20 1   
    30   20   21 ar  
    31   20   25 ar  
    32   21   22 ar  
    33   21   34 1   
    34   22   23 ar  
    35   22   35 1   
    36   23   24 ar  
    37   24   25 ar  
    38   24   36 1   
    39   25   37 1   
@<TRIPOS>SUBSTRUCTURE
     1 2B9         1 TEMP              0 ****  ****    0 ROOT
