@<TRIPOS>MOLECULE
2B9
   38    39     1     0     0
SMALL
bcc


@<TRIPOS>ATOM
      1 OAE         0.8350   -1.0340   -0.5240 o         1 2B9     -0.849500
      2 PAY         1.8010    0.0670   -0.3260 p5        1 2B9      1.436800
      3 OAF         2.4530    0.3530    0.9720 o         1 2B9     -0.849500
      4 OAC         2.9340   -0.0060   -1.4890 oh        1 2B9     -0.806400
      5 OAR         1.0820    1.4690   -0.8490 os        1 2B9     -0.578200
      6 CAM         1.4130    2.6670   -0.2260 c3        1 2B9      0.238600
      7 CAW         2.1700    3.6130   -1.1180 ce        1 2B9     -0.202300
      8 CAL         3.0500    3.0160   -2.0850 c1        1 2B9     -0.111900
      9 NAP         3.7150    3.8050   -2.9280 nh        1 2B9     -0.121600
     10 CAT         3.6040    5.1960   -2.9350 c2        1 2B9     -0.203300
     11 CAA         4.3550    5.9990   -3.9350 c3        1 2B9     -0.028900
     12 CAV         2.7910    5.7950   -1.9730 ce        1 2B9      0.119100
     13 OAD         2.7600    7.1670   -2.0280 oh        1 2B9     -0.543100
     14 CAX         2.0650    4.9970   -1.0110 ce        1 2B9     -0.008000
     15 CAG         1.2820    5.6000    0.0660 cf        1 2B9     -0.074400
     16 NAN         0.9060    6.8620    0.0380 nf        1 2B9     -0.224600
     17 NAQ         0.2000    7.3820    1.0060 ne        1 2B9     -0.529400
     18 CAS        -0.1120    8.7250    0.9320 c         1 2B9      0.668100
     19 OAB         0.2140    9.5890    0.0690 o         1 2B9     -0.713100
     20 CAU        -0.9530    9.2160    2.0880 ca        1 2B9     -0.042600
     21 CAJ        -0.9280   10.5830    2.4020 ca        1 2B9     -0.209300
     22 CAH        -1.7160   11.0500    3.4650 ca        1 2B9      0.351200
     23 NAO        -2.5090   10.2560    4.2140 nb        1 2B9     -0.700000
     24 CAI        -2.5230    8.9450    3.9000 ca        1 2B9      0.351200
     25 CAK        -1.7710    8.3790    2.8550 ca        1 2B9     -0.209300
     26 H3          0.4390    3.1560    0.0740 h1        1 2B9      0.045200
     27 H4          2.0330    2.4690    0.6980 h1        1 2B9      0.045200
     28 H5          3.1450    0.8510   -1.8640 ho        1 2B9      0.460000
     29 H6          5.4200    6.1200   -3.6140 hc        1 2B9      0.033033
     30 H7          3.8970    7.0160   -4.0250 hc        1 2B9      0.033033
     31 H8          4.3450    5.5130   -4.9430 hc        1 2B9      0.033033
     32 H9          2.0750    7.5000   -1.4160 ho        1 2B9      0.478000
     33 H10         1.0390    4.9090    0.8980 h4        1 2B9      0.123000
     34 H14        -0.3050   11.2640    1.8060 ha        1 2B9      0.163000
     35 H15        -1.7170   12.1180    3.7370 h4        1 2B9     -0.004400
     36 H16        -3.1760    8.3120    4.5240 h4        1 2B9     -0.004400
     37 H17        -1.8210    7.2980    2.6540 ha        1 2B9      0.163000
     38 H18         4.3200    3.3910   -3.5990 hn        1 2B9      0.275700
@<TRIPOS>BOND
     1    1    2 1   
     2    2    3 1   
     3    2    4 1   
     4    2    5 1   
     5    4   28 1   
     6    5    6 1   
     7    6    7 1   
     8    6   26 1   
     9    6   27 1   
    10    7    8 2   
    11    7   14 1   
    12    8    9 2   
    13    9   10 1   
    14    9   38 1   
    15   10   11 1   
    16   10   12 2   
    17   11   29 1   
    18   11   30 1   
    19   11   31 1   
    20   12   13 1   
    21   12   14 1   
    22   13   32 1   
    23   14   15 2   
    24   15   16 1   
    25   15   33 1   
    26   16   17 2   
    27   17   18 1   
    28   18   19 2   
    29   18   20 1   
    30   20   21 ar  
    31   20   25 ar  
    32   21   22 ar  
    33   21   34 1   
    34   22   23 ar  
    35   22   35 1   
    36   23   24 ar  
    37   24   25 ar  
    38   24   36 1   
    39   25   37 1   
@<TRIPOS>SUBSTRUCTURE
     1 2B9         1 TEMP              0 ****  ****    0 ROOT
