@<TRIPOS>MOLECULE
2B9
   38    39     1     0     0
SMALL
bcc


@<TRIPOS>ATOM
      1 OAE         0.4530    0.2010   -0.7430 o         1 2B9     -0.849500
      2 PAY         1.8810    0.0770   -0.3690 p5        1 2B9      1.436800
      3 OAF         2.3840   -0.9220    0.5970 o         1 2B9     -0.849500
      4 OAC         2.7830    0.0110   -1.7200 oh        1 2B9     -0.806400
      5 OAR         2.4010    1.5710    0.1330 os        1 2B9     -0.578200
      6 CAM         1.6070    2.6830   -0.1280 c3        1 2B9      0.238600
      7 CAW         2.2240    3.6360   -1.1150 ce        1 2B9     -0.202300
      8 CAL         3.0400    3.0530   -2.1450 c1        1 2B9     -0.111900
      9 NAP         3.6430    3.8540   -3.0220 nh        1 2B9     -0.121600
     10 CAT         3.5360    5.2450   -3.0000 c2        1 2B9     -0.203300
     11 CAA         4.2730    6.0660   -3.9970 c3        1 2B9     -0.028900
     12 CAV         2.7100    5.8250   -2.0370 ce        1 2B9      0.119100
     13 OAD         2.6350    7.1950   -2.1030 oh        1 2B9     -0.543100
     14 CAX         2.0050    5.0100   -1.0750 ce        1 2B9     -0.008000
     15 CAG         1.0600    5.5820   -0.1170 cf        1 2B9     -0.074400
     16 NAN         1.0400    6.8680    0.1670 nf        1 2B9     -0.224600
     17 NAQ         0.1950    7.3600    1.0320 ne        1 2B9     -0.529400
     18 CAS         0.1980    8.7250    1.2380 c         1 2B9      0.668100
     19 OAB         0.8840    9.6300    0.6800 o         1 2B9     -0.713100
     20 CAU        -0.7990    9.1840    2.2750 ca        1 2B9     -0.042600
     21 CAJ        -1.2480   10.5130    2.2340 ca        1 2B9     -0.209300
     22 CAH        -2.1640   10.9500    3.2030 ca        1 2B9      0.351200
     23 NAO        -2.6470   10.1640    4.1870 nb        1 2B9     -0.700000
     24 CAI        -2.2050    8.8910    4.2150 ca        1 2B9      0.351200
     25 CAK        -1.2890    8.3550    3.2910 ca        1 2B9     -0.209300
     26 H3          0.5980    2.3580   -0.5220 h1        1 2B9      0.045200
     27 H4          1.4710    3.2220    0.8560 h1        1 2B9      0.045200
     28 H5          3.0190    0.8770   -2.0580 ho        1 2B9      0.460000
     29 H6          3.7270    6.0710   -4.9730 hc        1 2B9      0.033033
     30 H7          5.3040    5.6690   -4.1720 hc        1 2B9      0.033033
     31 H8          4.3540    7.1200   -3.6330 hc        1 2B9      0.033033
     32 H9          2.1490    7.5290   -1.3240 ho        1 2B9      0.478000
     33 H10         0.3700    4.8460    0.3420 h4        1 2B9      0.123000
     34 H14        -0.8680   11.1890    1.4550 ha        1 2B9      0.163000
     35 H15        -2.5370   11.9890    3.1960 h4        1 2B9     -0.004400
     36 H16        -2.6110    8.2630    5.0260 h4        1 2B9     -0.004400
     37 H17        -0.9750    7.3040    3.3640 ha        1 2B9      0.163000
     38 H18         4.2110    3.4500   -3.7310 hn        1 2B9      0.275700
@<TRIPOS>BOND
     1    1    2 1   
     2    2    3 1   
     3    2    4 1   
     4    2    5 1   
     5    4   28 1   
     6    5    6 1   
     7    6    7 1   
     8    6   26 1   
     9    6   27 1   
    10    7    8 2   
    11    7   14 1   
    12    8    9 2   
    13    9   10 1   
    14    9   38 1   
    15   10   11 1   
    16   10   12 2   
    17   11   29 1   
    18   11   30 1   
    19   11   31 1   
    20   12   13 1   
    21   12   14 1   
    22   13   32 1   
    23   14   15 2   
    24   15   16 1   
    25   15   33 1   
    26   16   17 2   
    27   17   18 1   
    28   18   19 2   
    29   18   20 1   
    30   20   21 ar  
    31   20   25 ar  
    32   21   22 ar  
    33   21   34 1   
    34   22   23 ar  
    35   22   35 1   
    36   23   24 ar  
    37   24   25 ar  
    38   24   36 1   
    39   25   37 1   
@<TRIPOS>SUBSTRUCTURE
     1 2B9         1 TEMP              0 ****  ****    0 ROOT
