@<TRIPOS>MOLECULE
2BB
   58    50     1     0     0
SMALL
bcc


@<TRIPOS>ATOM
      1 C1       -948.3130 -511.6200 -564.6970 c2        1 2BB      0.157000
      2 N1        639.0540 -764.5740  908.6390 n         1 2BB     -0.146000
      3 O1        638.2750 -768.0500  909.4830 oh        1 2BB     -0.047000
      4 C2          4.2040    5.8270   -2.8330 c3        1 2BB     -0.271667
      5 N2       -946.7200 -512.8160 -568.9590 n4        1 2BB     -0.140000
      6 C3         11.6040   -6.4600    5.8030 c3        1 2BB     -0.271667
      7 O3        639.8630 -764.3770  909.6780 oh        1 2BB     -0.241000
      8 C4       -947.6920 -512.5770 -565.4660 c2        1 2BB     -0.172000
      9 C5       -947.0290 -512.2020 -566.5880 c1        1 2BB     -0.145000
     10 C6        638.8760 -766.9160  909.5270 c2        1 2BB      0.275000
     11 C7        638.3360 -765.7660  908.6860 c2        1 2BB      0.218000
     12 C8       -946.1260 -512.5560 -567.5700 c2        1 2BB      0.276000
     13 C9        224.7290  627.4700 -106.4620 c1        1 2BB     -0.341000
     14 C10       224.1260  627.2120 -107.7030 c2        1 2BB      0.369000
     15 C11       221.8940  626.6820 -108.8150 c1        1 2BB      0.058000
     16 C12       222.2020  628.7580 -107.7170 c3        1 2BB     -0.168000
     17 C13       225.3370  627.6730 -105.4440 c1        1 2BB      0.089000
     18 C14       227.1560  627.0010 -103.8840 c1        1 2BB      0.016000
     19 C15       222.4680  624.3200 -108.7690 c3        1 2BB     -0.271667
     20 C16       226.0680  627.8940 -104.2280 c3        1 2BB     -0.196000
     21 H1          4.1100    6.8310   -2.3640 hc        1 2BB      0.080500
     22 H1A      -948.8140 -511.8850 -563.7480 ha        1 2BB      0.167500
     23 H1B         5.0250    5.2640   -2.3380 hc        1 2BB      0.080500
     24 HN1       638.5030 -763.7500  908.3960 hn        1 2BB      0.283000
     25 HO1       637.4860 -768.0770  908.8590 ho        1 2BB      0.345000
     26 H2       -948.3190 -510.5520 -564.9830 ha        1 2BB      0.167500
     27 HN2      -947.2630 -513.6790 -568.9580 hn        1 2BB      0.256333
     28 H3         12.5230   -6.1040    5.2890 hc        1 2BB      0.080500
     29 H3A        10.7120   -5.9860    5.3390 hc        1 2BB      0.080500
     30 H3B         3.2490    5.2720   -2.7140 hc        1 2BB      0.080500
     31 HO3       640.7050 -764.0310  909.3000 ho        1 2BB      0.277000
     32 H4       -947.7090 -513.6360 -565.1330 ha        1 2BB      0.159000
     33 H4A         4.4340    5.9440   -3.9140 hc        1 2BB      0.080500
     34 H5         11.5290   -7.5650    5.7060 hc        1 2BB      0.080500
     35 H6        639.7590 -766.8490  910.2110 h4        1 2BB      0.269000
     36 H9       -947.3190 -512.0390 -569.2450 hn        1 2BB      0.256333
     37 H11        97.5680   58.2350  -10.1720 ha        1 2BB      0.000000
     38 H11A      222.2500  626.8940 -106.8350 hn        1 2BB      0.273000
     39 H11B      222.4810  626.6860 -109.7650 hx        1 2BB      0.106000
     40 H12       222.6420  629.2530 -106.8110 hx        1 2BB      0.153667
     41 H12A      221.0800  628.8340 -107.6910 hx        1 2BB      0.153667
     42 H12B      222.5950  629.2460 -108.6500 hx        1 2BB      0.153667
     43 H14       -17.6860  -22.6660   -7.3680 ha        1 2BB      0.000000
     44 H14A      227.4170  626.1860 -104.5720 ha        1 2BB      0.073000
     45 H14B      -17.2430  -22.7300   -6.8610 ha        1 2BB      0.000000
     46 H15       222.3430  623.9730 -109.8180 hc        1 2BB      0.080500
     47 H15A      221.6710  625.1390 -108.5700 hc        1 2BB      0.080500
     48 H15B      222.2210  623.5010 -108.0560 hc        1 2BB      0.080500
     49 H16       225.3540  627.8930 -103.3410 hc        1 2BB      0.202000
     50 H16A      223.5050  624.6800 -108.6030 hc        1 2BB      0.080500
     51 H16B      226.5220  628.9410 -104.2450 hc        1 2BB      0.202000
     52 O4       -944.8940 -512.4850 -567.5700 o         1 2BB     -0.239000
     53 O2        637.3410 -766.0270  907.9930 o         1 2BB     -0.235000
     54 H121       11.6510   -6.1850    6.8800 hc        1 2BB      0.080500
     55 H22      -945.9440 -512.9050 -569.6270 hn        1 2BB      0.256333
     56 H31        98.1570   58.1450   -9.8510 ha        1 2BB      0.000000
     57 N3        222.5990  627.3120 -107.7110 n4        1 2BB     -0.124000
     58 O5        224.6460  626.9080 -108.7690 o         1 2BB     -0.176000
@<TRIPOS>BOND
     1    1    8 1   
     2    1   22 1   
     3    1   26 1   
     4    2    7 1   
     5    2   11 1   
     6    2   24 1   
     7    3   10 1   
     8    3   25 1   
     9    4   21 1   
    10    4   23 1   
    11    4   30 1   
    12    4   33 1   
    13    5   12 1   
    14    5   27 1   
    15    5   36 1   
    16    5   55 1   
    17    6   28 1   
    18    6   29 1   
    19    6   34 1   
    20    6   54 1   
    21    7   31 1   
    22    8    9 1   
    23    8   32 1   
    24    9   12 1   
    25   10   11 1   
    26   10   35 1   
    27   11   53 1   
    28   12   52 1   
    29   13   14 1   
    30   13   17 1   
    31   14   57 1   
    32   14   58 1   
    33   15   39 1   
    34   15   57 1   
    35   16   40 1   
    36   16   41 1   
    37   16   42 1   
    38   16   57 1   
    39   17   20 1   
    40   18   20 1   
    41   18   44 1   
    42   19   46 1   
    43   19   47 1   
    44   19   48 1   
    45   19   50 1   
    46   20   49 1   
    47   20   51 1   
    48   37   56 1   
    49   38   57 1   
    50   43   45 1   
@<TRIPOS>SUBSTRUCTURE
     1 2BB         1 TEMP              0 ****  ****    0 ROOT
