@<TRIPOS>MOLECULE
2BB
   58    53     1     0     0
SMALL
bcc


@<TRIPOS>ATOM
      1 C1        -70.8530 -681.1960  175.0490 c3        1 2BB     -0.238000
      2 N1        -69.0490 -687.1840  177.8480 n7        1 2BB     -0.099000
      3 O1        -67.2870 -685.9430  175.9240 oh        1 2BB     -0.321000
      4 C2        -69.6710 -682.0540  174.8770 c2        1 2BB      0.003000
      5 N2        -69.1070 -684.3750  172.0740 nz        1 2BB     -0.131000
      6 C3          1.3060   -4.6660    4.0500 c3        1 2BB     -0.266000
      7 O3        -68.1150 -686.3270  178.2200 oh        1 2BB     -0.182000
      8 C4        -69.7390 -683.3830  174.6880 c2        1 2BB     -0.360000
      9 C5        -68.5410 -684.2520  174.5770 c3        1 2BB     -0.091000
     10 C6        -68.4210 -685.1600  175.8170 c3        1 2BB      0.172000
     11 C7        -69.7380 -687.0190  176.7210 c2        1 2BB      0.277000
     12 C8        -68.5430 -685.0520  173.2920 c2        1 2BB      0.257000
     13 C9        105.3030  973.1730 -250.6200 c1        1 2BB     -0.332000
     14 C10       104.0830  973.5840 -250.0640 c2        1 2BB      0.408000
     15 C11       102.7890  973.4970 -252.1790 c3        1 2BB     -0.190000
     16 C12       103.7620  975.6240 -251.4340 c3        1 2BB     -0.190000
     17 C13       106.3760  972.7700 -250.9870 c1        1 2BB      0.087000
     18 C14       108.4560  971.4960 -250.4860 c1        1 2BB      0.016000
     19 C15         9.7200   13.0520   -9.9650 c3        1 2BB     -0.266000
     20 C16       107.6590  972.2800 -251.4070 c3        1 2BB     -0.195000
     21 H1        -68.6970 -681.5280  174.9180 ha        1 2BB      0.147000
     22 H1A       -71.8150 -681.7570  174.9520 hc        1 2BB      0.130000
     23 H1B       -70.8420 -680.3660  174.2930 hc        1 2BB      0.130000
     24 HN1       -69.3550 -687.8320  178.5760 hn        1 2BB      0.341000
     25 HO1       -67.0220 -686.3090  175.0630 ho        1 2BB      0.263000
     26 H2        -70.8240 -680.7190  176.0660 hc        1 2BB      0.130000
     27 HN2       -70.0030 -683.9260  172.3090 hn        1 2BB      0.283000
     28 H3          0.9450   -5.7160    3.9990 hc        1 2BB      0.066000
     29 H3A         0.9910   -4.2120    5.0140 hc        1 2BB      0.066000
     30 H3B         0.8730   -4.0850    3.2070 hc        1 2BB      0.066000
     31 HO3       -67.2290 -686.7300  178.0260 ho        1 2BB      0.288000
     32 H4        -70.7070 -683.9130  174.6980 ha        1 2BB      0.157000
     33 H4A         2.4150   -4.6520    3.9780 hc        1 2BB      0.066000
     34 H5        -67.5880 -683.6310  174.5710 hc        1 2BB      0.189000
     35 H6        -68.5130 -684.5510  176.7660 h2        1 2BB      0.208000
     36 H9        -68.4540 -683.6530  171.7420 hn        1 2BB      0.283000
     37 H11       102.0840  974.0620 -252.8460 hx        1 2BB      0.146667
     38 H11A      102.2900  972.5580 -251.8150 hx        1 2BB      0.146667
     39 H11B      103.7170  973.2340 -252.7520 hx        1 2BB      0.146667
     40 H12       103.9700  976.2490 -250.5230 hx        1 2BB      0.146667
     41 H12A      104.7220  975.4200 -251.9790 hx        1 2BB      0.146667
     42 H12B      103.0540  976.1730 -252.1130 hx        1 2BB      0.146667
     43 H14         2.6080   -3.1620   -7.0840 ha        1 2BB      0.000000
     44 H14A      108.0680  971.2910 -249.4790 ha        1 2BB      0.074000
     45 H14B        2.6270   -3.3240   -6.4270 ha        1 2BB      0.000000
     46 H15        10.3040   12.2650  -10.4900 hc        1 2BB      0.066000
     47 H15A        9.2890   12.6320   -9.0310 hc        1 2BB      0.066000
     48 H15B       10.3890   13.9030   -9.7140 hc        1 2BB      0.066000
     49 H16       108.3160  973.1540 -251.7280 hc        1 2BB      0.201500
     50 H16A        8.9000   13.4070  -10.6260 hc        1 2BB      0.066000
     51 H16B      107.5360  971.6410 -252.3430 hc        1 2BB      0.201500
     52 O4        -68.1140 -686.1840  173.1280 o         1 2BB     -0.167000
     53 O2        -69.5040 -686.1450  175.7410 os        1 2BB     -0.231000
     54 H121      -70.6130 -687.6870  176.4880 h5        1 2BB      0.276000
     55 H22       -69.2510 -685.0610  171.3170 hn        1 2BB      0.283000
     56 H31       102.2840  974.5520 -250.4840 hn        1 2BB      0.261000
     57 N3        103.1470  974.3420 -251.0130 nx        1 2BB     -0.069000
     58 O5        103.6450  973.4320 -248.9340 o         1 2BB     -0.155000
@<TRIPOS>BOND
     1    1    4 1   
     2    1   22 1   
     3    1   23 1   
     4    1   26 1   
     5    2    7 1   
     6    2   11 1   
     7    2   24 1   
     8    3   10 1   
     9    3   25 1   
    10    4    8 1   
    11    4   21 1   
    12    5   12 1   
    13    5   27 1   
    14    5   36 1   
    15    5   55 1   
    16    6   28 1   
    17    6   29 1   
    18    6   30 1   
    19    6   33 1   
    20    7   31 1   
    21    8    9 1   
    22    8   32 1   
    23    9   10 1   
    24    9   12 1   
    25    9   34 1   
    26   10   35 1   
    27   10   53 1   
    28   11   53 1   
    29   11   54 1   
    30   12   52 1   
    31   13   14 1   
    32   13   17 1   
    33   14   57 1   
    34   14   58 1   
    35   15   37 1   
    36   15   38 1   
    37   15   39 1   
    38   15   57 1   
    39   16   40 1   
    40   16   41 1   
    41   16   42 1   
    42   16   57 1   
    43   17   20 1   
    44   18   20 1   
    45   18   44 1   
    46   19   46 1   
    47   19   47 1   
    48   19   48 1   
    49   19   50 1   
    50   20   49 1   
    51   20   51 1   
    52   43   45 1   
    53   56   57 1   
@<TRIPOS>SUBSTRUCTURE
     1 2BB         1 TEMP              0 ****  ****    0 ROOT
