@<TRIPOS>MOLECULE
2BB
   58    55     1     0     0
SMALL
bcc


@<TRIPOS>ATOM
      1 C1         -1.0750   -0.9910   -1.6610 c3        1 2BB     -0.250000
      2 N1          4.8330   -4.2190    0.9390 n3        1 2BB     -0.251000
      3 O1          4.4370   -1.6570   -0.9480 oh        1 2BB     -0.299000
      4 C2          0.0680   -0.5500   -0.8490 c2        1 2BB      0.039000
      5 N2          3.0990    1.1710   -2.2630 n3        1 2BB     -0.250000
      6 C3          3.5330   -0.7500    3.5550 c3        1 2BB     -0.271000
      7 O3          3.9410   -3.7410    1.8080 oh        1 2BB     -0.346000
      8 C4          1.3510   -0.8100   -1.1710 c2        1 2BB     -0.419000
      9 C5          2.5030   -0.3770   -0.3480 c3        1 2BB     -0.027000
     10 C6          3.4200   -1.5810    0.0060 c3        1 2BB      0.112000
     11 C7          2.6050   -2.8320   -0.0250 c1        1 2BB      0.421000
     12 C8          3.3410    0.7030   -1.0410 c2        1 2BB      0.335000
     13 C9          3.8410    2.2810   -2.9100 c3        1 2BB      0.064000
     14 C10         2.7550    3.1840   -3.5860 c2        1 2BB      0.216000
     15 C11         1.7720    5.4290   -3.3670 c3        1 2BB     -0.196500
     16 C12         3.3080    4.9370   -5.2130 c3        1 2BB     -0.196500
     17 C13         4.7070    3.0400   -1.8680 c3        1 2BB     -0.161000
     18 C14         4.6980    1.7380   -4.0680 c3        1 2BB     -0.252000
     19 C15         5.8820    3.7880   -2.4740 c3        1 2BB     -0.243000
     20 C16         5.2990    2.0750   -0.8440 c3        1 2BB     -0.037000
     21 H1         -0.1910    0.0140    0.0700 ha        1 2BB      0.153000
     22 H1A        -0.7680   -1.5350   -2.5880 hc        1 2BB      0.140000
     23 H1B        -1.6960   -0.1030   -1.9570 hc        1 2BB      0.140000
     24 HN1         4.6770   -5.2100    0.7640 hn        1 2BB      0.181500
     25 HO1         5.1610   -2.2230   -0.6140 ho        1 2BB      0.295000
     26 H2         -1.7390   -1.6650   -1.0530 hc        1 2BB      0.140000
     27 HN2         0.5010    0.4130   -3.5330 ha        1 2BB      0.003500
     28 H3          2.7610   -0.7500    4.3570 hc        1 2BB      0.069250
     29 H3A         4.4580   -0.2690    3.9440 hc        1 2BB      0.069250
     30 H3B         3.1550   -0.1780    2.6780 hc        1 2BB      0.069250
     31 HO3         3.9520   -4.2280    2.6600 ho        1 2BB      0.251000
     32 H4          1.5990   -1.3680   -2.0910 ha        1 2BB      0.159000
     33 H4A         3.7560   -1.8000    3.2560 hc        1 2BB      0.069250
     34 H5          2.1610    0.0870    0.6320 hc        1 2BB      0.194000
     35 H6          3.8180   -1.5080    1.0780 h1        1 2BB      0.228000
     36 H9          2.3620    0.7480   -2.8210 hn        1 2BB      0.320000
     37 H11         1.5710    5.2530   -2.2780 hx        1 2BB      0.166333
     38 H11A        3.7740    4.9610   -3.1960 hn        1 2BB      0.260000
     39 H11B        1.9640    6.5240   -3.5470 hx        1 2BB      0.166333
     40 H12         4.2570    4.4080   -5.4970 hx        1 2BB      0.166333
     41 H12A        3.4440    6.0480   -5.3420 hx        1 2BB      0.166333
     42 H12B        2.4600    4.5900   -5.8660 hx        1 2BB      0.166333
     43 H14         5.1510    2.5880   -4.6380 hc        1 2BB      0.139000
     44 H14A        5.5300    1.1050   -3.6700 hc        1 2BB      0.139000
     45 H14B        4.0860    1.1240   -4.7770 hc        1 2BB      0.139000
     46 H15         6.3050    4.4930   -1.7120 hc        1 2BB      0.124000
     47 H15A        5.6140    4.3780   -3.3810 hc        1 2BB      0.124000
     48 H15B        6.6990    3.0810   -2.7750 hc        1 2BB      0.124000
     49 H16         6.0970    1.4200   -1.2920 h1        1 2BB      0.178000
     50 H16A        4.0400    3.7630   -1.3150 hc        1 2BB      0.126000
     51 H16B        5.7000    2.6240    0.0580 h1        1 2BB      0.178000
     52 O4          4.3150    1.1850   -0.2580 os        1 2BB     -0.146000
     53 O2          2.0120   -3.8170   -0.0140 o         1 2BB      0.167000
     54 H121        5.7780   -4.1330    1.3080 hn        1 2BB      0.181500
     55 H22         0.3790    0.6630   -4.1530 ha        1 2BB      0.003500
     56 H31         0.8860    5.1010   -3.9800 hx        1 2BB      0.166333
     57 N3          2.9830    4.6520   -3.7800 n4        1 2BB     -0.052000
     58 O5          1.7120    2.7170   -4.0270 o         1 2BB     -0.152000
@<TRIPOS>BOND
     1    1    4 1   
     2    1   22 1   
     3    1   23 1   
     4    1   26 1   
     5    2    7 1   
     6    2   24 1   
     7    2   54 1   
     8    3   10 1   
     9    3   25 1   
    10    4    8 1   
    11    4   21 1   
    12    5   12 1   
    13    5   13 1   
    14    5   36 1   
    15    6   28 1   
    16    6   29 1   
    17    6   30 1   
    18    6   33 1   
    19    7   31 1   
    20    8    9 1   
    21    8   32 1   
    22    9   10 1   
    23    9   12 1   
    24    9   34 1   
    25   10   11 1   
    26   10   35 1   
    27   11   53 1   
    28   12   52 1   
    29   13   14 1   
    30   13   17 1   
    31   13   18 1   
    32   14   57 1   
    33   14   58 1   
    34   15   37 1   
    35   15   39 1   
    36   15   56 1   
    37   15   57 1   
    38   16   40 1   
    39   16   41 1   
    40   16   42 1   
    41   16   57 1   
    42   17   19 1   
    43   17   20 1   
    44   17   50 1   
    45   18   43 1   
    46   18   44 1   
    47   18   45 1   
    48   19   46 1   
    49   19   47 1   
    50   19   48 1   
    51   20   49 1   
    52   20   51 1   
    53   20   52 1   
    54   27   55 1   
    55   38   57 1   
@<TRIPOS>SUBSTRUCTURE
     1 2BB         1 TEMP              0 ****  ****    0 ROOT
