@<TRIPOS>MOLECULE
2BB
   55    54     1     0     0
SMALL
bcc


@<TRIPOS>ATOM
      1 C1          0.2650    0.0310    5.2450 c3        1 2BB     -0.096600
      2 N1          3.5350    2.8690    2.4530 n         1 2BB     -0.343400
      3 O1          0.7070    2.7920    1.0980 oh        1 2BB     -0.618800
      4 C2          0.6660   -0.6060    3.9040 c3        1 2BB     -0.069700
      5 N2          0.1240   -0.3890   -0.7240 n         1 2BB     -0.540900
      6 O2          3.3070    0.9440    1.2160 o         1 2BB     -0.560100
      7 C3          0.4530   -2.1260    3.9760 c3        1 2BB     -0.096600
      8 N3         -3.0690   -0.4060   -2.4270 n         1 2BB     -0.469800
      9 O3          4.8980    2.8970    2.2770 oh        1 2BB     -0.434100
     10 C4         -0.2070   -0.0150    2.7700 c3        1 2BB     -0.089400
     11 O4         -0.9810    1.4120    0.2280 o         1 2BB     -0.646100
     12 C5          0.6910    0.4730    1.6380 c3        1 2BB     -0.159700
     13 O5         -1.8750   -2.1380   -1.4630 o         1 2BB     -0.624100
     14 C6          1.2380    1.8370    1.9820 c3        1 2BB      0.091100
     15 C7          2.7570    1.8220    1.8590 c         1 2BB      0.597100
     16 C8         -0.1170    0.5590    0.3500 c         1 2BB      0.665100
     17 C9         -0.5500   -0.2400   -1.9720 c3        1 2BB      0.042700
     18 C10        -1.8470   -1.0170   -1.9410 c         1 2BB      0.639100
     19 C11        -4.1970   -1.2340   -2.7810 c3        1 2BB      0.072800
     20 C12        -3.1880    1.0300   -2.4720 c3        1 2BB      0.072800
     21 C13         0.3390   -0.7720   -3.1000 c3        1 2BB     -0.046000
     22 C14         0.4650   -2.3020   -2.9760 c3        1 2BB     -0.096767
     23 C15        -0.2900   -0.4180   -4.4590 c3        1 2BB     -0.096767
     24 C16         1.7340   -0.1330   -2.9990 c3        1 2BB     -0.096767
     25 H1          0.4930    0.9870    5.2350 hc        1 2BB      0.038367
     26 H1A        -0.7030   -0.0730    5.3810 hc        1 2BB      0.038367
     27 H1B         0.7490   -0.4140    5.9780 hc        1 2BB      0.038367
     28 HN1         3.1240    3.5210    2.9500 hn        1 2BB      0.319500
     29 HO1         0.6770    3.5880    1.5020 ho        1 2BB      0.447000
     30 H2          1.6120   -0.4160    3.7220 hc        1 2BB      0.055700
     31 HN2         0.6830   -1.1040   -0.5880 hn        1 2BB      0.330500
     32 H3         -0.4920   -2.3160    4.1720 hc        1 2BB      0.038367
     33 H3A         1.0180   -2.5030    4.6880 hc        1 2BB      0.038367
     34 H3B         0.6970   -2.5320    3.1150 hc        1 2BB      0.038367
     35 HO3         5.2350    3.6170    2.6810 ho        1 2BB      0.431000
     36 H4         -0.7330    0.7400    3.1210 hc        1 2BB      0.066200
     37 H4A        -0.8160   -0.7080    2.4300 hc        1 2BB      0.066200
     38 H5          1.4350   -0.1560    1.5160 hc        1 2BB      0.095700
     39 H6          0.9870    2.0690    2.9030 h1        1 2BB      0.087700
     40 H9         -0.7410    0.7110   -2.1280 h1        1 2BB      0.097700
     41 H11        -4.8880   -1.1610   -2.0850 h1        1 2BB      0.047700
     42 H11A       -4.5660   -0.9340   -3.6430 h1        1 2BB      0.047700
     43 H11B       -3.9050   -2.1690   -2.8580 h1        1 2BB      0.047700
     44 H12        -3.7250    0.8440   -1.6690 h1        1 2BB      0.047700
     45 H12A       -3.3390    0.8210   -3.4220 h1        1 2BB      0.047700
     46 H12B       -3.9600    1.6180   -2.6500 h1        1 2BB      0.047700
     47 H14         1.1810   -2.6220   -3.5720 hc        1 2BB      0.043478
     48 H14A       -0.3860   -2.7230   -3.2310 hc        1 2BB      0.043478
     49 H14B        0.6810   -2.5390   -2.0480 hc        1 2BB      0.043478
     50 H15        -1.1170   -0.9340   -4.5820 hc        1 2BB      0.043478
     51 H15A        0.3430   -0.6360   -5.1810 hc        1 2BB      0.043478
     52 H15B       -0.4970    0.5430   -4.4840 hc        1 2BB      0.043478
     53 H16         1.6420    0.8310   -2.8340 hc        1 2BB      0.043478
     54 H16A        2.2230   -0.2770   -3.8420 hc        1 2BB      0.043478
     55 H16B        2.2310   -0.5460   -2.2590 hc        1 2BB      0.043478
@<TRIPOS>BOND
     1    1    4 1   
     2    1   25 1   
     3    1   26 1   
     4    1   27 1   
     5    2    9 1   
     6    2   15 1   
     7    2   28 1   
     8    3   14 1   
     9    3   29 1   
    10    4    7 1   
    11    4   10 1   
    12    4   30 1   
    13    5   16 1   
    14    5   17 1   
    15    5   31 1   
    16    6   15 2   
    17    7   32 1   
    18    7   33 1   
    19    7   34 1   
    20    8   18 1   
    21    8   19 1   
    22    8   20 1   
    23    9   35 1   
    24   10   12 1   
    25   10   36 1   
    26   10   37 1   
    27   11   16 2   
    28   12   14 1   
    29   12   16 1   
    30   12   38 1   
    31   13   18 2   
    32   14   15 1   
    33   14   39 1   
    34   17   18 1   
    35   17   21 1   
    36   17   40 1   
    37   19   41 1   
    38   19   42 1   
    39   19   43 1   
    40   20   44 1   
    41   20   45 1   
    42   20   46 1   
    43   21   22 1   
    44   21   23 1   
    45   21   24 1   
    46   22   47 1   
    47   22   48 1   
    48   22   49 1   
    49   23   50 1   
    50   23   51 1   
    51   23   52 1   
    52   24   53 1   
    53   24   54 1   
    54   24   55 1   
@<TRIPOS>SUBSTRUCTURE
     1 2BB         1 TEMP              0 ****  ****    0 ROOT
