@<TRIPOS>MOLECULE
2BB
   55    54     1     0     0
SMALL
bcc


@<TRIPOS>ATOM
      1 C1         -0.7480    3.5740   -0.6220 c3        1 2BB     -0.095100
      2 N1         -4.8540    0.4710    0.7270 n         1 2BB     -0.345400
      3 O1         -2.3660   -1.9590    1.1650 oh        1 2BB     -0.568800
      4 C2         -1.2290    2.3980    0.2090 c3        1 2BB     -0.076700
      5 N2          0.8920   -0.7540   -0.4580 n         1 2BB     -0.549900
      6 C3         -2.3300    2.8560    1.1430 c3        1 2BB     -0.095100
      7 N3          3.6110    1.1480    0.7130 n         1 2BB     -0.470800
      8 O3         -5.9030    0.7710   -0.0420 oh        1 2BB     -0.435100
      9 C4         -1.6790    1.2720   -0.7150 c3        1 2BB     -0.075400
     10 C5         -1.5000   -0.1520   -0.2110 c3        1 2BB     -0.162700
     11 O5          3.0990    0.8650   -1.4970 o         1 2BB     -0.626100
     12 C6         -2.5580   -0.6070    0.8050 c3        1 2BB      0.090100
     13 C7         -3.9500   -0.4740    0.1720 c         1 2BB      0.560100
     14 C8         -0.1110   -0.3390    0.3990 c         1 2BB      0.674100
     15 C9          2.2600   -0.8740   -0.0200 c3        1 2BB      0.045700
     16 C10         3.0260    0.4430   -0.3230 c         1 2BB      0.638100
     17 C11         4.3470    2.3530    0.4460 c3        1 2BB      0.073300
     18 C12         3.3980    0.8030    2.0910 c3        1 2BB      0.073300
     19 C13         3.0140   -2.0730   -0.6670 c3        1 2BB     -0.047000
     20 C14         2.8450   -2.1140   -2.1770 c3        1 2BB     -0.096433
     21 C15         4.4930   -1.9440   -0.3280 c3        1 2BB     -0.096433
     22 C16         2.4780   -3.3650   -0.0640 c3        1 2BB     -0.096433
     23 H1         -0.4310    4.4120    0.0440 hc        1 2BB      0.037533
     24 H1A         0.1230    3.2780   -1.2550 hc        1 2BB      0.037533
     25 H1B        -1.5640    3.9420   -1.2900 hc        1 2BB      0.037533
     26 HN1        -4.4060    1.3420    0.9970 hn        1 2BB      0.309500
     27 HO1        -2.5490   -2.5030    0.3840 ho        1 2BB      0.417000
     28 H2         -0.3660    2.0400    0.8400 hc        1 2BB      0.071700
     29 HN2         0.7460   -0.7080   -1.4410 hn        1 2BB      0.322500
     30 H3         -2.5980    2.0470    1.8650 hc        1 2BB      0.037533
     31 H3A        -1.9840    3.7390    1.7340 hc        1 2BB      0.037533
     32 H3B        -3.2400    3.1570    0.5700 hc        1 2BB      0.037533
     33 HO3        -6.4970   -0.0050    0.0030 ho        1 2BB      0.437000
     34 H4         -2.7590    1.4230   -0.9850 hc        1 2BB      0.053700
     35 H4A        -1.0940    1.3510   -1.6740 hc        1 2BB      0.053700
     36 H5         -1.6150   -0.8360   -1.1050 hc        1 2BB      0.077700
     37 H6         -2.4480   -0.0420    1.7740 h1        1 2BB      0.121700
     38 H9          2.2360   -1.0730    1.0950 h1        1 2BB      0.098700
     39 H11         3.7900    3.2460    0.8390 h1        1 2BB      0.047033
     40 H11A        5.3480    2.3010    0.9520 h1        1 2BB      0.047033
     41 H11B        4.5010    2.4800   -0.6590 h1        1 2BB      0.047033
     42 H12         3.9320   -0.1540    2.3400 h1        1 2BB      0.047033
     43 H12A        3.8020    1.6150    2.7520 h1        1 2BB      0.047033
     44 H12B        2.3000    0.6780    2.3090 h1        1 2BB      0.047033
     45 H14         3.0250   -1.1030   -2.6190 hc        1 2BB      0.043144
     46 H14A        3.5780   -2.8320   -2.6180 hc        1 2BB      0.043144
     47 H14B        1.8190   -2.4560   -2.4550 hc        1 2BB      0.043144
     48 H15         4.6330   -1.7950    0.7700 hc        1 2BB      0.043144
     49 H15A        5.0340   -2.8720   -0.6330 hc        1 2BB      0.043144
     50 H15B        4.9440   -1.0780   -0.8720 hc        1 2BB      0.043144
     51 H16         1.3850   -3.4700   -0.2580 hc        1 2BB      0.043144
     52 H16A        3.0040   -4.2390   -0.5190 hc        1 2BB      0.043144
     53 H16B        2.6480   -3.3820    1.0390 hc        1 2BB      0.043144
     54 O4          0.1090   -0.1510    1.6120 o         1 2BB     -0.607100
     55 O2         -4.3200   -1.2880   -0.6910 o         1 2BB     -0.570100
@<TRIPOS>BOND
     1    1    4 1   
     2    1   23 1   
     3    1   24 1   
     4    1   25 1   
     5    2    8 1   
     6    2   13 1   
     7    2   26 1   
     8    3   12 1   
     9    3   27 1   
    10    4    6 1   
    11    4    9 1   
    12    4   28 1   
    13    5   14 1   
    14    5   15 1   
    15    5   29 1   
    16    6   30 1   
    17    6   31 1   
    18    6   32 1   
    19    7   16 1   
    20    7   17 1   
    21    7   18 1   
    22    8   33 1   
    23    9   10 1   
    24    9   34 1   
    25    9   35 1   
    26   10   12 1   
    27   10   14 1   
    28   10   36 1   
    29   11   16 2   
    30   12   13 1   
    31   12   37 1   
    32   13   55 2   
    33   14   54 2   
    34   15   16 1   
    35   15   19 1   
    36   15   38 1   
    37   17   39 1   
    38   17   40 1   
    39   17   41 1   
    40   18   42 1   
    41   18   43 1   
    42   18   44 1   
    43   19   20 1   
    44   19   21 1   
    45   19   22 1   
    46   20   45 1   
    47   20   46 1   
    48   20   47 1   
    49   21   48 1   
    50   21   49 1   
    51   21   50 1   
    52   22   51 1   
    53   22   52 1   
    54   22   53 1   
@<TRIPOS>SUBSTRUCTURE
     1 2BB         1 TEMP              0 ****  ****    0 ROOT
