@<TRIPOS>MOLECULE
2BC
   37    39     1     0     0
SMALL
bcc


@<TRIPOS>ATOM
      1 CAN        -5.5530   -0.7530    0.0510 ca        1 2BC     -0.051000
      2 CAY        -6.8850   -0.2680    0.1530 ca        1 2BC     -0.049000
      3 CAK        -7.9240   -1.0620    0.7120 ca        1 2BC     -0.108000
      4 CAH        -9.2030   -0.5700    0.8000 ca        1 2BC     -0.126000
      5 CAG        -9.5020    0.7330    0.3340 ca        1 2BC     -0.113000
      6 CAJ        -8.5180    1.5210   -0.2110 ca        1 2BC     -0.124000
      7 CAX        -7.1850    1.0370   -0.3150 ca        1 2BC     -0.021000
      8 CAL        -6.1460    1.8250   -0.8820 ca        1 2BC     -0.116000
      9 CAI        -4.8640    1.3420   -0.9650 ca        1 2BC     -0.114000
     10 CAV        -4.5630    0.0400   -0.4860 ca        1 2BC     -0.154600
     11 CAQ        -3.1830   -0.5140   -0.5870 c         1 2BC      0.698700
     12 OAA        -2.9520   -1.6670   -0.9760 o         1 2BC     -0.536100
     13 NAP        -2.1630    0.3800   -0.1850 n         1 2BC     -0.334900
     14 NAO        -0.8770    0.0450   -0.2040 n2        1 2BC     -0.473300
     15 CAF         0.0530    0.8530    0.2310 ce        1 2BC      0.390800
     16 CAU         1.4760    0.5100    0.2080 ca        1 2BC     -0.253900
     17 CAM         2.3490    1.4980    0.6850 ca        1 2BC     -0.012000
     18 CAR         3.7260    1.3140    0.7250 ca        1 2BC     -0.107900
     19 BRAD        4.7870    2.7090    1.3840 br        1 2BC     -0.056100
     20 CAS         4.2620    0.0890    0.2680 ca        1 2BC      0.230100
     21 OAB         5.6210   -0.0430    0.3270 oh        1 2BC     -0.472100
     22 CAW         3.4190   -0.9280   -0.2180 ca        1 2BC     -0.171900
     23 BRAE        4.1700   -2.5450   -0.8170 br        1 2BC     -0.055100
     24 CAT         2.0180   -0.7140   -0.2480 ca        1 2BC      0.261100
     25 OAC         1.2790   -1.7480   -0.7330 oh        1 2BC     -0.479100
     26 HAN        -5.3240   -1.7740    0.3980 ha        1 2BC      0.155000
     27 HAK        -7.6810   -2.0750    1.0690 ha        1 2BC      0.140000
     28 HAH       -10.0100   -1.1820    1.2300 ha        1 2BC      0.138000
     29 HAG       -10.5350    1.1040    0.4150 ha        1 2BC      0.137000
     30 HAJ        -8.7420    2.5340   -0.5770 ha        1 2BC      0.137000
     31 HAL        -6.3910    2.8310   -1.2570 ha        1 2BC      0.140000
     32 HAI        -4.0720    1.9510   -1.4260 ha        1 2BC      0.138000
     33 HNAP       -2.4520    1.2670    0.1870 hn        1 2BC      0.304500
     34 HAF        -0.1560    1.8630    0.6510 h4        1 2BC     -0.006200
     35 HAM         1.9250    2.4530    1.0410 ha        1 2BC      0.149000
     36 HOAB        5.8650   -0.9240   -0.0130 ho        1 2BC      0.441000
     37 HOAC        0.3290   -1.5310   -0.7250 ho        1 2BC      0.474000
@<TRIPOS>BOND
     1    1    2 ar  
     2    1   10 ar  
     3    1   26 1   
     4    2    3 ar  
     5    2    7 ar  
     6    3    4 ar  
     7    3   27 1   
     8    4    5 ar  
     9    4   28 1   
    10    5    6 ar  
    11    5   29 1   
    12    6    7 ar  
    13    6   30 1   
    14    7    8 ar  
    15    8    9 ar  
    16    8   31 1   
    17    9   10 ar  
    18    9   32 1   
    19   10   11 1   
    20   11   12 2   
    21   11   13 1   
    22   13   14 1   
    23   13   33 1   
    24   14   15 2   
    25   15   16 1   
    26   15   34 1   
    27   16   17 ar  
    28   16   24 ar  
    29   17   18 ar  
    30   17   35 1   
    31   18   19 1   
    32   18   20 ar  
    33   20   21 1   
    34   20   22 ar  
    35   21   36 1   
    36   22   23 1   
    37   22   24 ar  
    38   24   25 1   
    39   25   37 1   
@<TRIPOS>SUBSTRUCTURE
     1 2BC         1 TEMP              0 ****  ****    0 ROOT
