@<TRIPOS>MOLECULE
2BC
   37    31     1     0     0
SMALL
bcc


@<TRIPOS>ATOM
      1 CAN         2.1210    0.2520    1.8710 c1        1 2BC     -0.085500
      2 CAY         3.5290    0.2790    1.8650 c1        1 2BC     -0.035500
      3 CAK         4.2400    0.2470    3.0790 c1        1 2BC     -0.118250
      4 CAH         5.6290    0.2730    3.0720 c1        1 2BC     -0.118250
      5 CAG         6.3180    0.3320    1.8640 c1        1 2BC     -0.118250
      6 CAJ         5.6170    0.3630    0.6650 c1        1 2BC     -0.118250
      7 CAX         4.2100    0.3360    0.6720 c1        1 2BC     -0.035500
      8 CAL         3.4980    0.3690   -0.5430 c1        1 2BC     -0.085500
      9 CAI         2.1080    0.3420   -0.5360 c1        1 2BC     -0.111000
     10 CAV         1.4190    0.2840    0.6710 c1        1 2BC     -0.133000
     11 CAQ        -0.0930    0.4000    0.7890 c2        1 2BC      0.368000
     12 OAA        -0.6130    0.4590    1.8850 o         1 2BC     -0.294000
     13 NAP        -0.8920    0.5510   -0.3900 n         1 2BC     -0.325000
     14 NAO        -1.5240    1.7630   -0.6500 n2        1 2BC      0.011000
     15 CAF        -2.7560    1.7770   -1.1300 c1        1 2BC     -0.127000
     16 CAU        -3.4820    0.4690   -1.3990 c1        1 2BC     -0.192500
     17 CAM        -3.2210   -0.2410   -2.5610 c2        1 2BC     -0.028000
     18 CAR        -3.9410   -1.3930   -2.8460 c1        1 2BC     -0.192500
     19 BRAD       -3.6420   -2.3240   -4.4890 br        1 2BC      0.080000
     20 CAS        -4.9210   -1.8340   -1.9690 c2        1 2BC      0.184500
     21 OAB        -5.6890   -2.9720   -2.2860 oh        1 2BC     -0.225000
     22 CAW        -5.1810   -1.1230   -0.8070 c1        1 2BC     -0.353000
     23 BRAE       -6.5390   -1.7260    0.3980 br        1 2BC      0.080000
     24 CAT        -4.4620    0.0280   -0.5210 c2        1 2BC      0.184500
     25 OAC        -4.7210    0.7440    0.6640 oh        1 2BC     -0.225000
     26 HAN         1.6370    0.2110    2.7180 ha        1 2BC      0.147000
     27 HAK         3.7570    0.2060    3.9260 ha        1 2BC      0.137000
     28 HAH         6.1220    0.2510    3.9140 ha        1 2BC      0.137000
     29 HAG         7.2930    0.3500    1.8600 ha        1 2BC      0.137000
     30 HAJ         6.1000    0.4040   -0.1810 ha        1 2BC      0.137000
     31 HAL         3.9810    0.4090   -1.3900 ha        1 2BC      0.147000
     32 HAI         1.6160    0.3640   -1.3760 ha        1 2BC      0.138000
     33 HNAP       -0.9300   -0.1240   -1.0030 hn        1 2BC      0.215000
     34 HAF        -3.2010    2.6290   -1.3130 ha        1 2BC      0.183000
     35 HAM        -2.5780    0.1040   -3.2090 ha        1 2BC      0.161000
     36 HOAB       -5.3450   -3.6830   -1.8810 ho        1 2BC      0.238500
     37 HOAC       -5.4650    1.2220    0.5660 ho        1 2BC      0.238500
@<TRIPOS>BOND
     1    1    2 1   
     2    1   26 1   
     3    2    7 1   
     4    3    4 1   
     5    3   27 1   
     6    4   28 1   
     7    5    6 1   
     8    5   29 1   
     9    6   30 1   
    10    7    8 1   
    11    8   31 1   
    12    9   10 1   
    13    9   32 1   
    14   10   11 1   
    15   11   12 1   
    16   11   13 1   
    17   13   14 1   
    18   13   33 1   
    19   14   15 1   
    20   15   34 1   
    21   16   17 1   
    22   16   24 1   
    23   17   18 1   
    24   17   35 1   
    25   18   20 1   
    26   20   21 1   
    27   20   22 1   
    28   21   36 1   
    29   22   24 1   
    30   24   25 1   
    31   25   37 1   
@<TRIPOS>SUBSTRUCTURE
     1 2BC         1 TEMP              0 ****  ****    0 ROOT
