@<TRIPOS>MOLECULE
2BC
   38    40     1     0     0
SMALL
bcc


@<TRIPOS>ATOM
      1 CAN        -0.0070    0.9850   -0.9770 ca        1 2BC      0.017000
      2 CAY         1.2810    0.7480   -0.4370 ca        1 2BC     -0.067000
      3 CAK         1.8650    1.6410    0.5030 ca        1 2BC     -0.098000
      4 CAH         3.1170    1.3870    1.0120 ca        1 2BC     -0.109000
      5 CAG         3.8350    0.2360    0.6070 ca        1 2BC     -0.075000
      6 CAJ         3.2920   -0.6440   -0.3020 ca        1 2BC     -0.128000
      7 CAX         2.0040   -0.4060   -0.8440 ca        1 2BC      0.003000
      8 CAL         1.4160   -1.2910   -1.7940 ca        1 2BC     -0.082000
      9 CAI         0.1670   -1.0520   -2.3030 ca        1 2BC     -0.135000
     10 CAV        -0.5660    0.0960   -1.8850 ca        1 2BC     -0.218600
     11 CAQ        -1.8970    0.4100   -2.3900 c         1 2BC      0.564700
     12 OAA        -2.4620    1.4960   -2.4180 o         1 2BC     -0.455100
     13 NAP        -2.6920   -0.7860   -2.9410 n4        1 2BC     -0.365900
     14 NAO        -4.0820   -0.8330   -2.8230 n2        1 2BC     -0.546400
     15 CAF        -4.8540    0.1560   -3.2050 ce        1 2BC      0.580800
     16 CAU        -6.3010    0.1240   -3.1080 ca        1 2BC     -0.286900
     17 CAM        -6.9520    1.3770   -3.1000 ca        1 2BC      0.014000
     18 CAR        -8.3250    1.4950   -2.9810 ca        1 2BC     -0.108900
     19 BRAD       -9.0750    3.2070   -2.9680 br        1 2BC     -0.005100
     20 CAS        -9.1080    0.3110   -2.8740 ca        1 2BC      0.288100
     21 OAB       -10.4480    0.4860   -2.7490 oh        1 2BC     -0.443100
     22 CAW        -8.4960   -0.9580   -2.9040 ca        1 2BC     -0.246900
     23 BRAE       -9.5360   -2.5160   -2.7840 br        1 2BC     -0.033100
     24 CAT        -7.0910   -1.0470   -3.0250 ca        1 2BC      0.287100
     25 OAC        -6.4400   -2.2390   -3.1020 oh        1 2BC     -0.468100
     26 HAN        -0.5630    1.8870   -0.6640 ha        1 2BC      0.165000
     27 HAK         1.3000    2.5340    0.8120 ha        1 2BC      0.151000
     28 HAH         3.5750    2.0760    1.7400 ha        1 2BC      0.159000
     29 HAG         4.8370    0.0550    1.0300 ha        1 2BC      0.158000
     30 HAJ         3.8480   -1.5400   -0.6200 ha        1 2BC      0.154000
     31 HAL         1.9930   -2.1740   -2.1170 ha        1 2BC      0.160000
     32 HAI        -0.2400   -1.7410   -3.0570 ha        1 2BC      0.124000
     33 HNAP       -2.4080   -0.9070   -3.9270 hn        1 2BC      0.466800
     34 HAF        -4.4580    1.1250   -3.6060 h4        1 2BC      0.033800
     35 HAM        -6.3360    2.2920   -3.1830 ha        1 2BC      0.164000
     36 HOAB      -10.8910   -0.3820   -2.6870 ho        1 2BC      0.457000
     37 HOAC       -7.0870   -2.9670   -3.0320 ho        1 2BC      0.457000
     38 HAP2       -2.3880   -1.6260   -2.4130 hn        1 2BC      0.466800
@<TRIPOS>BOND
     1    1    2 ar  
     2    1   10 ar  
     3    1   26 1   
     4    2    3 ar  
     5    2    7 ar  
     6    3    4 ar  
     7    3   27 1   
     8    4    5 ar  
     9    4   28 1   
    10    5    6 ar  
    11    5   29 1   
    12    6    7 ar  
    13    6   30 1   
    14    7    8 ar  
    15    8    9 ar  
    16    8   31 1   
    17    9   10 ar  
    18    9   32 1   
    19   10   11 1   
    20   11   12 2   
    21   11   13 1   
    22   13   14 1   
    23   13   33 1   
    24   13   38 1   
    25   14   15 2   
    26   15   16 1   
    27   15   34 1   
    28   16   17 ar  
    29   16   24 ar  
    30   17   18 ar  
    31   17   35 1   
    32   18   19 1   
    33   18   20 ar  
    34   20   21 1   
    35   20   22 ar  
    36   21   36 1   
    37   22   23 1   
    38   22   24 ar  
    39   24   25 1   
    40   25   37 1   
@<TRIPOS>SUBSTRUCTURE
     1 2BC         1 TEMP              0 ****  ****    0 ROOT
