@<TRIPOS>MOLECULE
2BC
   38    40     1     0     0
SMALL
bcc


@<TRIPOS>ATOM
      1 CAN        -0.0090    0.9770   -0.9620 ca        1 2BC      0.017000
      2 CAY         1.2820    0.7330   -0.4320 ca        1 2BC     -0.067000
      3 CAK         1.8640    1.6050    0.5270 ca        1 2BC     -0.098000
      4 CAH         3.1190    1.3460    1.0260 ca        1 2BC     -0.109000
      5 CAG         3.8420    0.2100    0.5910 ca        1 2BC     -0.075000
      6 CAJ         3.3010   -0.6510   -0.3380 ca        1 2BC     -0.128000
      7 CAX         2.0100   -0.4070   -0.8700 ca        1 2BC      0.003000
      8 CAL         1.4230   -1.2710   -1.8390 ca        1 2BC     -0.082000
      9 CAI         0.1710   -1.0270   -2.3380 ca        1 2BC     -0.135000
     10 CAV        -0.5660    0.1070   -1.8900 ca        1 2BC     -0.218600
     11 CAQ        -1.9010    0.4260   -2.3840 c         1 2BC      0.564700
     12 OAA        -2.4710    1.5100   -2.3830 o         1 2BC     -0.455100
     13 NAP        -2.6910   -0.7600   -2.9610 ny        1 2BC     -0.365900
     14 NAO        -4.0810   -0.8170   -2.8390 n2        1 2BC     -0.546400
     15 CAF        -4.8590    0.1770   -3.1950 ce        1 2BC      0.580800
     16 CAU        -6.3060    0.1350   -3.0940 ca        1 2BC     -0.286900
     17 CAM        -6.9630    1.3830   -3.0540 ca        1 2BC      0.014000
     18 CAR        -8.3360    1.4910   -2.9270 ca        1 2BC     -0.108900
     19 BrAD       -9.0950    3.1980   -2.8710 br        1 2BC     -0.005100
     20 CAS        -9.1130    0.3010   -2.8460 ca        1 2BC      0.288100
     21 OAB       -10.4530    0.4660   -2.7120 oh        1 2BC     -0.443100
     22 CAW        -8.4940   -0.9640   -2.9090 ca        1 2BC     -0.247900
     23 BrAE       -9.5260   -2.5300   -2.8220 br        1 2BC     -0.033100
     24 CAT        -7.0890   -1.0430   -3.0360 ca        1 2BC      0.287100
     25 OAC        -6.4320   -2.2280   -3.1430 oh        1 2BC     -0.468100
     26 HAN        -0.5690    1.8680   -0.6250 ha        1 2BC      0.165000
     27 HAK         1.2960    2.4880    0.8610 ha        1 2BC      0.151000
     28 HAH         3.5760    2.0190    1.7700 ha        1 2BC      0.159000
     29 HAG         4.8460    0.0230    1.0060 ha        1 2BC      0.158000
     30 HAJ         3.8610   -1.5350   -0.6800 ha        1 2BC      0.154000
     31 HAL         2.0040   -2.1420   -2.1860 ha        1 2BC      0.160000
     32 HAI        -0.2340   -1.6980   -3.1090 ha        1 2BC      0.124000
     33 HNAP       -2.3810   -1.6110   -2.4550 hn        1 2BC      0.466800
     34 HAF        -4.4700    1.1570   -3.5730 h4        1 2BC      0.033800
     35 HAM        -6.3530    2.3030   -3.1160 ha        1 2BC      0.164000
     36 HOAB      -10.8910   -0.4060   -2.6690 ho        1 2BC      0.457000
     37 HOAC       -7.0750   -2.9620   -3.0890 ho        1 2BC      0.457000
     38 HAP2       -2.4100   -0.8550   -3.9500 hn        1 2BC      0.466800
@<TRIPOS>BOND
     1    1    2 ar  
     2    1   10 ar  
     3    1   26 1   
     4    2    3 ar  
     5    2    7 ar  
     6    3    4 ar  
     7    3   27 1   
     8    4    5 ar  
     9    4   28 1   
    10    5    6 ar  
    11    5   29 1   
    12    6    7 ar  
    13    6   30 1   
    14    7    8 ar  
    15    8    9 ar  
    16    8   31 1   
    17    9   10 ar  
    18    9   32 1   
    19   10   11 1   
    20   11   12 2   
    21   11   13 1   
    22   13   14 1   
    23   13   33 1   
    24   13   38 1   
    25   14   15 2   
    26   15   16 1   
    27   15   34 1   
    28   16   17 ar  
    29   16   24 ar  
    30   17   18 ar  
    31   17   35 1   
    32   18   19 1   
    33   18   20 ar  
    34   20   21 1   
    35   20   22 ar  
    36   21   36 1   
    37   22   23 1   
    38   22   24 ar  
    39   24   25 1   
    40   25   37 1   
@<TRIPOS>SUBSTRUCTURE
     1 2BC         1 TEMP              0 ****  ****    0 ROOT
