@<TRIPOS>MOLECULE
2BC
   38    40     1     0     0
SMALL
bcc


@<TRIPOS>ATOM
      1 CAN        -0.0190    0.9630   -0.9190 ca        1 2BC      0.017000
      2 CAY         1.2770    0.7100   -0.4050 ca        1 2BC     -0.067000
      3 CAK         1.8520    1.5420    0.5950 ca        1 2BC     -0.098000
      4 CAH         3.1120    1.2740    1.0760 ca        1 2BC     -0.109000
      5 CAG         3.8480    0.1710    0.5840 ca        1 2BC     -0.075000
      6 CAJ         3.3140   -0.6500   -0.3850 ca        1 2BC     -0.128000
      7 CAX         2.0180   -0.3970   -0.9000 ca        1 2BC      0.003000
      8 CAL         1.4390   -1.2200   -1.9090 ca        1 2BC     -0.082000
      9 CAI         0.1820   -0.9680   -2.3920 ca        1 2BC     -0.135000
     10 CAV        -0.5680    0.1320   -1.8870 ca        1 2BC     -0.218600
     11 CAQ        -1.9080    0.4580   -2.3600 c         1 2BC      0.564700
     12 OAA        -2.4930    1.5330   -2.3030 o         1 2BC     -0.455100
     13 NAP        -2.6850   -0.7070   -2.9940 n4        1 2BC     -0.365900
     14 NAO        -4.0730   -0.7880   -2.8740 n2        1 2BC     -0.546400
     15 CAF        -4.8640    0.2130   -3.1800 ce        1 2BC      0.580800
     16 CAU        -6.3110    0.1480   -3.0800 ca        1 2BC     -0.286900
     17 CAM        -6.9830    1.3840   -2.9780 ca        1 2BC      0.014000
     18 CAR        -8.3570    1.4690   -2.8450 ca        1 2BC     -0.108900
     19 BRAD       -9.1370    3.1620   -2.7030 br        1 2BC     -0.005100
     20 CAS        -9.1190    0.2670   -2.8240 ca        1 2BC      0.288100
     21 OAB       -10.4610    0.4080   -2.6820 oh        1 2BC     -0.443100
     22 CAW        -8.4850   -0.9850   -2.9500 ca        1 2BC     -0.246900
     23 BRAE       -9.4970   -2.5670   -2.9420 br        1 2BC     -0.033100
     24 CAT        -7.0790   -1.0400   -3.0820 ca        1 2BC      0.287100
     25 OAC        -6.4080   -2.2110   -3.2490 oh        1 2BC     -0.468100
     26 HAN        -0.5880    1.8290   -0.5370 ha        1 2BC      0.165000
     27 HAK         1.2730    2.3990    0.9730 ha        1 2BC      0.151000
     28 HAH         3.5620    1.9160    1.8510 ha        1 2BC      0.159000
     29 HAG         4.8560   -0.0230    0.9860 ha        1 2BC      0.158000
     30 HAJ         3.8840   -1.5090   -0.7720 ha        1 2BC      0.154000
     31 HAL         2.0300   -2.0660   -2.3000 ha        1 2BC      0.160000
     32 HAI        -0.2170   -1.6070   -3.1930 ha        1 2BC      0.124000
     33 HNAP       -2.3640   -1.5790   -2.5300 hn        1 2BC      0.466800
     34 HAF        -4.4880    1.2150   -3.5100 h4        1 2BC      0.033800
     35 HAM        -6.3840    2.3140   -2.9940 ha        1 2BC      0.164000
     36 HOAB      -10.8890   -0.4700   -2.6830 ho        1 2BC      0.457000
     37 HOAC       -7.0410   -2.9550   -3.2310 ho        1 2BC      0.457000
     38 HAP2       -2.4040   -0.7510   -3.9870 hn        1 2BC      0.466800
@<TRIPOS>BOND
     1    1    2 ar  
     2    1   10 ar  
     3    1   26 1   
     4    2    3 ar  
     5    2    7 ar  
     6    3    4 ar  
     7    3   27 1   
     8    4    5 ar  
     9    4   28 1   
    10    5    6 ar  
    11    5   29 1   
    12    6    7 ar  
    13    6   30 1   
    14    7    8 ar  
    15    8    9 ar  
    16    8   31 1   
    17    9   10 ar  
    18    9   32 1   
    19   10   11 1   
    20   11   12 2   
    21   11   13 1   
    22   13   14 1   
    23   13   33 1   
    24   13   38 1   
    25   14   15 2   
    26   15   16 1   
    27   15   34 1   
    28   16   17 ar  
    29   16   24 ar  
    30   17   18 ar  
    31   17   35 1   
    32   18   19 1   
    33   18   20 ar  
    34   20   21 1   
    35   20   22 ar  
    36   21   36 1   
    37   22   23 1   
    38   22   24 ar  
    39   24   25 1   
    40   25   37 1   
@<TRIPOS>SUBSTRUCTURE
     1 2BC         1 TEMP              0 ****  ****    0 ROOT
