@<TRIPOS>MOLECULE
2BD
   44    40     1     0     0
SMALL
bcc


@<TRIPOS>ATOM
      1 P          -2.6040   -5.8390    1.7040 p3        1 2BD      2.536000
      2 OP1        -1.5640   -6.2670    0.6970 o         1 2BD     -1.258000
      3 OP2        -2.3560   -6.5450    3.0140 os        1 2BD     -1.217000
      4 OP3        -3.9780   -6.1970    1.1910 o         1 2BD     -1.258000
      5 O5'        -2.5140   -4.2770    1.9210 os        1 2BD     -0.729000
      6 C5'        -2.4210   -3.4450    0.7850 c3        1 2BD      0.073000
      7 C4'        -3.0860   -2.0940    1.0840 c3        1 2BD     -0.049000
      8 O4'        -2.0160   -0.9510    1.0840 os        1 2BD     -0.293000
      9 C1'        -2.2570   -0.1670   -0.2040 c3        1 2BD      0.160000
     10 O6          2.6810    2.3640   -2.2790 o         1 2BD     -0.381000
     11 C6          2.0700    1.9300   -1.3220 c1        1 2BD      0.384000
     12 C5          0.7860    1.1490   -1.5310 c1        1 2BD     -0.206000
     13 N7          0.1180    0.7810   -2.6520 n2        1 2BD     -0.121000
     14 C8         -0.9920    0.0850   -2.2730 c1        1 2BD     -0.020000
     15 N9         -1.0070    0.0240   -0.9180 n3        1 2BD     -0.146000
     16 C4          0.0910    0.6810   -0.4550 c1        1 2BD     -0.046000
     17 N3          0.5850    0.9330    0.9020 n1        1 2BD     -0.141000
     18 C2          1.8120    1.6800    1.1030 c1        1 2BD      0.012000
     19 N1          2.5410    2.1700   -0.0190 n2        1 2BD     -0.302000
     20 CAN         3.7730    2.9020    0.1830 c3        1 2BD      0.029000
     21 CAL         4.7210    2.6020   -0.9320 c2        1 2BD     -0.159000
     22 CAM         5.8260    1.8810   -0.6960 c1        1 2BD     -0.233000
     23 CAO         3.4810    4.3840    0.2110 c3        1 2BD     -0.035000
     24 OAP         3.1440    4.7730    1.5250 oh        1 2BD     -0.342000
     25 C2'        -3.0760   -0.9110   -0.9100 c3        1 2BD     -0.197000
     26 C3'        -3.9090   -1.7860    0.1470 c3        1 2BD     -0.003000
     27 O3'        -5.0200   -0.9900    0.6950 oh        1 2BD     -0.386000
     28 H5'        -2.8740   -3.8720    0.0300 h1        1 2BD      0.038000
     29 H5''       -1.4780   -3.3010    0.5610 h1        1 2BD      0.038000
     30 H4'        -3.5490   -2.1270    1.9450 h1        1 2BD      0.088000
     31 H1'        -2.6700    0.6980   -0.0030 h2        1 2BD      0.109000
     32 H8         -1.6600   -0.3100   -2.8760 DU        1 2BD      0.224500
     33 H2          2.1400    1.8470    2.0100 ha        1 2BD      0.161000
     34 HAN         4.1770    2.6340    1.0350 h1        1 2BD      0.092000
     35 HAL2        4.5360    2.9310   -1.8300 ha        1 2BD      0.164000
     36 HAM1        6.0110    1.5520    0.2040 DU        1 2BD      0.224500
     37 HAM2        6.4450    1.6840   -1.4240 ha        1 2BD      0.108000
     38 HAO1        4.2790    4.8820   -0.0840 h1        1 2BD      0.105500
     39 HAO2        2.7350    4.5810   -0.3880 h1        1 2BD      0.105500
     40 HAP         3.3680    5.6290    1.6500 ho        1 2BD      0.211000
     41 H2'        -2.5690   -1.4970   -1.5070 hc        1 2BD      0.090500
     42 H2''       -3.6840   -0.3430   -1.4300 hc        1 2BD      0.090500
     43 H3'        -4.2520   -2.5960   -0.2820 h1        1 2BD      0.195000
     44 HO3'       -5.7860   -1.2620    0.3330 ho        1 2BD      0.283000
@<TRIPOS>BOND
     1    1    2 1   
     2    1    4 1   
     3    1    5 1   
     4    5    6 1   
     5    6    7 1   
     6    6   28 1   
     7    6   29 1   
     8    7    8 1   
     9    7   26 1   
    10    7   30 1   
    11    8    9 1   
    12    9   15 1   
    13    9   25 1   
    14    9   31 1   
    15   10   11 1   
    16   11   19 1   
    17   12   13 1   
    18   12   16 1   
    19   13   14 1   
    20   14   15 1   
    21   15   16 1   
    22   17   18 1   
    23   18   33 1   
    24   19   20 1   
    25   20   21 1   
    26   20   23 1   
    27   20   34 1   
    28   21   22 1   
    29   21   35 1   
    30   22   37 1   
    31   23   24 1   
    32   23   38 1   
    33   23   39 1   
    34   24   40 1   
    35   25   26 1   
    36   25   41 1   
    37   25   42 1   
    38   26   27 1   
    39   26   43 1   
    40   27   44 1   
@<TRIPOS>SUBSTRUCTURE
     1 2BD         1 TEMP              0 ****  ****    0 ROOT
