@<TRIPOS>MOLECULE
2BD
   44    46     1     0     0
SMALL
bcc


@<TRIPOS>ATOM
      1 P          -0.8950   -1.5530    4.0300 p5        1 2BD      1.430800
      2 OP1        -1.5920   -2.8450    4.1640 o         1 2BD     -0.843000
      3 OP2        -1.9440   -0.3150    4.2480 oh        1 2BD     -0.786400
      4 OP3         0.2860   -1.0940    4.7980 o         1 2BD     -0.843000
      5 O5'        -0.5490   -1.3130    2.4340 os        1 2BD     -0.579200
      6 C5'         0.1880   -0.1760    2.1030 c3        1 2BD      0.186400
      7 C4'         1.5470   -0.5810    1.5120 c3        1 2BD      0.087100
      8 O4'         1.8690    0.2780    0.4080 os        1 2BD     -0.440600
      9 C1'         3.0480    1.0750    0.7010 c3        1 2BD      0.268800
     10 C6          2.7380    5.1960   -2.0330 c         1 2BD      0.727700
     11 C5          2.7540    4.3750   -0.8410 cc        1 2BD     -0.042600
     12 N7          2.6420    4.7200    0.4980 ne        1 2BD     -0.615000
     13 C8          2.7140    3.5640    1.2120 c1        1 2BD      0.047400
     14 N9          2.8730    2.4510    0.3430 nh        1 2BD     -0.121600
     15 C4          2.9060    2.9370   -0.9760 cd        1 2BD      0.003500
     16 N3          3.0560    2.2900   -2.1890 nd        1 2BD     -0.548300
     17 C2          3.0520    3.0790   -3.2440 cc        1 2BD      0.374800
     18 N1          2.9250    4.4780   -3.2520 n         1 2BD     -0.400300
     19 CAN         2.9630    5.2100   -4.5040 c3        1 2BD      0.092900
     20 CAL         3.8060    4.5510   -5.5630 c2        1 2BD     -0.163200
     21 CAM         5.0830    4.8600   -5.7660 c2        1 2BD     -0.216000
     22 CAO         1.5540    5.4800   -5.0960 c3        1 2BD      0.128400
     23 OAP         1.0180    6.6990   -4.6320 oh        1 2BD     -0.630800
     24 C2'         3.3960    0.8310    2.1860 c3        1 2BD     -0.140400
     25 C3'         2.7030   -0.4900    2.5290 c3        1 2BD      0.099100
     26 O3'         3.6010   -1.5820    2.3920 oh        1 2BD     -0.607800
     27 H5'        -0.3790    0.3940    1.3130 h1        1 2BD      0.038700
     28 H5''        0.3320    0.4770    3.0080 h1        1 2BD      0.038700
     29 H4'         1.4700   -1.6160    1.0810 h1        1 2BD      0.066700
     30 H1'         3.8530    0.6370    0.0320 h2        1 2BD      0.030700
     31 H8         -1.5100    0.4570    4.5930 ho        1 2BD      0.424000
     32 H2          3.1640    2.5980   -4.2330 h5        1 2BD      0.018800
     33 HAN         3.4100    6.2290   -4.2650 h1        1 2BD      0.091700
     34 HAL2        3.2880    3.8010   -6.1810 ha        1 2BD      0.114000
     35 HAM1        5.6810    4.3870   -6.5550 ha        1 2BD      0.108000
     36 HAM2        5.6200    5.5960   -5.1520 ha        1 2BD      0.108000
     37 HAO1        0.8480    4.6390   -4.8650 h1        1 2BD      0.035200
     38 HAO2        1.6270    5.6060   -6.2100 h1        1 2BD      0.035200
     39 HAP         1.1520    6.7370   -3.6700 ho        1 2BD      0.445000
     40 H2'         3.0020    1.6600    2.8290 hc        1 2BD      0.079200
     41 H2''        4.5000    0.7620    2.3210 hc        1 2BD      0.079200
     42 H3'         2.3410   -0.5490    3.5930 h1        1 2BD      0.147700
     43 HO3'        3.8530   -1.6190    1.4610 ho        1 2BD      0.380000
     44 O6          2.5710    6.4360   -2.1080 o         1 2BD     -0.712500
@<TRIPOS>BOND
     1    1    2 1   
     2    1    3 1   
     3    1    4 1   
     4    1    5 1   
     5    3   31 1   
     6    5    6 1   
     7    6    7 1   
     8    6   27 1   
     9    6   28 1   
    10    7    8 1   
    11    7   25 1   
    12    7   29 1   
    13    8    9 1   
    14    9   14 1   
    15    9   24 1   
    16    9   30 1   
    17   10   11 1   
    18   10   18 1   
    19   10   44 2   
    20   11   12 1   
    21   11   15 2   
    22   12   13 2   
    23   13   14 2   
    24   14   15 1   
    25   15   16 1   
    26   16   17 2   
    27   17   18 1   
    28   17   32 1   
    29   18   19 1   
    30   19   20 1   
    31   19   22 1   
    32   19   33 1   
    33   20   21 2   
    34   20   34 1   
    35   21   35 1   
    36   21   36 1   
    37   22   23 1   
    38   22   37 1   
    39   22   38 1   
    40   23   39 1   
    41   24   25 1   
    42   24   40 1   
    43   24   41 1   
    44   25   26 1   
    45   25   42 1   
    46   26   43 1   
@<TRIPOS>SUBSTRUCTURE
     1 2BD         1 TEMP              0 ****  ****    0 ROOT
