@<TRIPOS>MOLECULE
2BE
   32    33     1     0     0
SMALL
bcc


@<TRIPOS>ATOM
      1 CAJ        -0.2840    1.4560    1.1670 ca        1 2BE     -0.056000
      2 CAH         0.8700    1.3780    0.3930 ca        1 2BE     -0.125500
      3 CAP         1.6490    0.2140    0.4170 ca        1 2BE      0.079400
      4 CLAD        3.0460    0.1140   -0.5180 cl        1 2BE     -0.008400
      5 CAI         1.2710   -0.8720    1.2250 ca        1 2BE     -0.125500
      6 CAK         0.1150   -0.7970    1.9920 ca        1 2BE     -0.056000
      7 CAT        -0.6740    0.3640    1.9610 ca        1 2BE     -0.212600
      8 CAO        -1.8900    0.5220    2.7550 c         1 2BE      0.566700
      9 OAA        -2.3740    1.5510    3.2060 o         1 2BE     -0.443100
     10 NAN        -2.6730   -0.7690    3.0420 n4        1 2BE     -0.366900
     11 NAM        -4.0540   -0.7980    2.8260 n2        1 2BE     -0.549400
     12 CAG        -4.8650    0.0770    3.3730 ce        1 2BE      0.577800
     13 CAU        -6.3030    0.0710    3.1920 ca        1 2BE     -0.289900
     14 CAL        -6.9790    1.2560    3.5600 ca        1 2BE      0.015000
     15 CAS        -8.3450    1.4030    3.4200 ca        1 2BE     -0.108900
     16 BRAE       -9.1270    3.0220    3.9310 br        1 2BE     -0.002100
     17 CAQ        -9.1010    0.3170    2.8920 ca        1 2BE      0.292100
     18 OAB       -10.4360    0.5190    2.7690 oh        1 2BE     -0.441100
     19 CAV        -8.4670   -0.8880    2.5330 ca        1 2BE     -0.250900
     20 BRAF       -9.4710   -2.3220    1.8540 br        1 2BE     -0.031100
     21 CAR        -7.0670   -1.0090    2.6870 ca        1 2BE      0.291100
     22 OAC        -6.4000   -2.1550    2.3890 oh        1 2BE     -0.466100
     23 HAJ        -0.8930    2.3770    1.1590 ha        1 2BE      0.152500
     24 HAH         1.1690    2.2370   -0.2340 ha        1 2BE      0.180000
     25 HAI         1.8940   -1.7820    1.2550 ha        1 2BE      0.180000
     26 HAK        -0.1380   -1.6510    2.6390 ha        1 2BE      0.152500
     27 HNAN       -2.4490   -1.0550    4.0080 hn        1 2BE      0.464800
     28 HAG        -4.5030    0.9270    4.0080 h4        1 2BE      0.034800
     29 HAL        -6.3860    2.0960    3.9690 ha        1 2BE      0.164000
     30 HOAB      -10.8620   -0.2820    2.4040 ho        1 2BE      0.458000
     31 HOAC       -7.0310   -2.8220    2.0530 ho        1 2BE      0.458000
     32 HAN2       -2.3290   -1.5040    2.3950 hn        1 2BE      0.464800
@<TRIPOS>BOND
     1    1    2 ar  
     2    1    7 ar  
     3    1   23 1   
     4    2    3 ar  
     5    2   24 1   
     6    3    4 1   
     7    3    5 ar  
     8    5    6 ar  
     9    5   25 1   
    10    6    7 ar  
    11    6   26 1   
    12    7    8 1   
    13    8    9 2   
    14    8   10 1   
    15   10   11 1   
    16   10   27 1   
    17   10   32 1   
    18   11   12 2   
    19   12   13 1   
    20   12   28 1   
    21   13   14 ar  
    22   13   21 ar  
    23   14   15 ar  
    24   14   29 1   
    25   15   16 1   
    26   15   17 ar  
    27   17   18 1   
    28   17   19 ar  
    29   18   30 1   
    30   19   20 1   
    31   19   21 ar  
    32   21   22 1   
    33   22   31 1   
@<TRIPOS>SUBSTRUCTURE
     1 2BE         1 TEMP              0 ****  ****    0 ROOT
