@<TRIPOS>MOLECULE
2BE
   31    26     1     0     0
SMALL
bcc


@<TRIPOS>ATOM
      1 CAJ         3.5830   -1.2670    1.4490 c1        1 2BE     -0.069000
      2 CAH         4.5260   -2.2580    1.2220 c1        1 2BE     -0.131000
      3 CAP         4.5160   -2.9660    0.0300 c1        1 2BE     -0.039000
      4 CLAD        5.6870   -4.2320   -0.2440 cl        1 2BE      0.001000
      5 CAI         3.5620   -2.6830   -0.9360 c2        1 2BE     -0.131000
      6 CAK         2.6190   -1.6910   -0.7090 c1        1 2BE     -0.093000
      7 CAT         2.6290   -0.9830    0.4830 c1        1 2BE     -0.134000
      8 CAO         1.5950    0.1210    0.7280 c2        1 2BE      0.370000
      9 OAA         1.6110    0.7460    1.7680 o         1 2BE     -0.286000
     10 NAN         0.6530    0.4640   -0.3010 n         1 2BE     -0.325000
     11 NAM         0.6430    1.7550   -0.8360 n2        1 2BE      0.029000
     12 CAG        -0.5070    2.3910   -1.0080 c1        1 2BE     -0.171000
     13 CAU        -1.8290    1.7100   -0.6210 c1        1 2BE     -0.224500
     14 CAL        -2.3870    0.7520   -1.4570 c2        1 2BE     -0.022000
     15 CAS        -3.5940    0.1540   -1.1210 c1        1 2BE     -0.224500
     16 BRAE       -4.4190   -1.0730   -2.3300 br        1 2BE      0.090500
     17 CAQ        -4.2450    0.5150    0.0530 c2        1 2BE      0.184000
     18 OAB        -5.4110   -0.1750    0.4520 oh        1 2BE     -0.225500
     19 CAV        -3.6870    1.4730    0.8900 c1        1 2BE     -0.299000
     20 BRAF       -4.5960    1.9910    2.4870 br        1 2BE      0.090500
     21 CAR        -2.4790    2.0710    0.5530 c2        1 2BE      0.184000
     22 OAC        -1.9740    3.1240    1.3370 oh        1 2BE     -0.225500
     23 HAJ         3.5910   -0.7690    2.2870 ha        1 2BE      0.160000
     24 HAH         5.2000   -2.4580    1.9050 ha        1 2BE      0.157000
     25 HAI         3.5550   -3.1820   -1.7750 ha        1 2BE      0.156000
     26 HAK         1.9470   -1.4910   -1.3900 ha        1 2BE      0.144000
     27 HNAN        0.0560   -0.1540   -0.5950 hn        1 2BE      0.221000
     28 HAG        -0.5140    3.2930   -1.3820 ha        1 2BE      0.174000
     29 HAL        -1.9660    0.5490   -2.3130 ha        1 2BE      0.157000
     30 HOAB       -6.1180    0.3680    0.3770 ho        1 2BE      0.240000
     31 HOAC       -2.2470    3.9070    0.9970 ho        1 2BE      0.240000
@<TRIPOS>BOND
     1    1    7 1   
     2    1   23 1   
     3    2    3 1   
     4    2   24 1   
     5    3    5 1   
     6    5    6 1   
     7    5   25 1   
     8    6   26 1   
     9    7    8 1   
    10    8    9 1   
    11    8   10 1   
    12   10   11 1   
    13   10   27 1   
    14   11   12 1   
    15   12   28 1   
    16   13   14 1   
    17   13   21 1   
    18   14   15 1   
    19   14   29 1   
    20   15   17 1   
    21   17   18 1   
    22   17   19 1   
    23   18   30 1   
    24   19   21 1   
    25   21   22 1   
    26   22   31 1   
@<TRIPOS>SUBSTRUCTURE
     1 2BE         1 TEMP              0 ****  ****    0 ROOT
