@<TRIPOS>MOLECULE
2BE
   32    33     1     0     0
SMALL
bcc


@<TRIPOS>ATOM
      1 CAJ        -0.3470    1.4190    1.0110 ca        1 2BE     -0.056000
      2 CAH         0.8120    1.3050    0.2490 ca        1 2BE     -0.125500
      3 CAP         1.6410    0.1870    0.4040 ca        1 2BE      0.079400
      4 CLAD        3.0450    0.0440   -0.5160 cl        1 2BE     -0.008400
      5 CAI         1.3100   -0.8160    1.3310 ca        1 2BE     -0.125500
      6 CAK         0.1490   -0.7060    2.0870 ca        1 2BE     -0.056000
      7 CAT        -0.6910    0.4070    1.9260 ca        1 2BE     -0.212600
      8 CAO        -1.9150    0.6000    2.6990 c         1 2BE      0.566700
      9 OAA        -2.4470    1.6510    3.0300 o         1 2BE     -0.443100
     10 NAN        -2.6410   -0.6840    3.1320 n4        1 2BE     -0.366900
     11 NAM        -4.0180   -0.8000    2.9210 n2        1 2BE     -0.549400
     12 CAG        -4.8700    0.0950    3.3630 ce        1 2BE      0.577800
     13 CAU        -6.3050    0.0020    3.1840 ca        1 2BE     -0.289900
     14 CAL        -7.0360    1.1900    3.4090 ca        1 2BE      0.015000
     15 CAS        -8.4070    1.2580    3.2520 ca        1 2BE     -0.108900
     16 BRAE       -9.2640    2.8890    3.5670 br        1 2BE     -0.002100
     17 CAQ        -9.1100    0.0840    2.8570 ca        1 2BE      0.292100
     18 OAB       -10.4520    0.2090    2.7090 oh        1 2BE     -0.441100
     19 CAV        -8.4200   -1.1260    2.6430 ca        1 2BE     -0.250900
     20 BRAF       -9.3550   -2.6740    2.1380 br        1 2BE     -0.031100
     21 CAR        -7.0170   -1.1640    2.8100 ca        1 2BE      0.291100
     22 OAC        -6.2970   -2.3050    2.6510 oh        1 2BE     -0.466100
     23 HAJ        -0.9960    2.3050    0.9000 ha        1 2BE      0.152500
     24 HAH         1.0740    2.0990   -0.4710 ha        1 2BE      0.180000
     25 HAI         1.9730   -1.6880    1.4620 ha        1 2BE      0.180000
     26 HAK        -0.0670   -1.4920    2.8260 ha        1 2BE      0.152500
     27 HNAN       -2.2600   -1.4720    2.5750 hn        1 2BE      0.465300
     28 HAG        -4.5510    1.0280    3.8950 h4        1 2BE      0.034800
     29 HAL        -6.4840    2.0990    3.7160 ha        1 2BE      0.164000
     30 HOAB      -10.8390   -0.6470    2.4420 ho        1 2BE      0.458000
     31 HOAC       -6.8960   -3.0350    2.3970 ho        1 2BE      0.458000
     32 HAN2       -2.4090   -0.8460    4.1250 hn        1 2BE      0.465300
@<TRIPOS>BOND
     1    1    2 ar  
     2    1    7 ar  
     3    1   23 1   
     4    2    3 ar  
     5    2   24 1   
     6    3    4 1   
     7    3    5 ar  
     8    5    6 ar  
     9    5   25 1   
    10    6    7 ar  
    11    6   26 1   
    12    7    8 1   
    13    8    9 2   
    14    8   10 1   
    15   10   11 1   
    16   10   27 1   
    17   10   32 1   
    18   11   12 2   
    19   12   13 1   
    20   12   28 1   
    21   13   14 ar  
    22   13   21 ar  
    23   14   15 ar  
    24   14   29 1   
    25   15   16 1   
    26   15   17 ar  
    27   17   18 1   
    28   17   19 ar  
    29   18   30 1   
    30   19   20 1   
    31   19   21 ar  
    32   21   22 1   
    33   22   31 1   
@<TRIPOS>SUBSTRUCTURE
     1 2BE         1 TEMP              0 ****  ****    0 ROOT
