@<TRIPOS>MOLECULE
2BE
   31    32     1     0     0
SMALL
bcc


@<TRIPOS>ATOM
      1 CAJ        -5.8190   -1.0220    0.5170 ca        1 2BE     -0.082000
      2 CAH        -7.1380   -0.5850    0.6250 ca        1 2BE     -0.131000
      3 CAP        -7.5160    0.6210    0.0260 ca        1 2BE      0.039400
      4 CLAD       -9.1210    1.1590    0.1560 cl        1 2BE     -0.076400
      5 CAI        -6.5840    1.3870   -0.6830 ca        1 2BE     -0.131000
      6 CAK        -5.2650    0.9490   -0.7820 ca        1 2BE     -0.082000
      7 CAT        -4.8800   -0.2510   -0.1780 ca        1 2BE     -0.153600
      8 CAO        -3.4870   -0.7720   -0.2830 c         1 2BE      0.697700
      9 OAA        -3.2370   -1.9570   -0.5400 o         1 2BE     -0.532100
     10 NAN        -2.4820    0.1970   -0.0550 n         1 2BE     -0.333900
     11 NAM        -1.1870   -0.1030   -0.0950 n2        1 2BE     -0.475300
     12 CAG        -0.2660    0.7750    0.2010 ce        1 2BE      0.394800
     13 CAU         1.1650    0.4730    0.1470 ca        1 2BE     -0.256900
     14 CAL         2.0240    1.5340    0.4660 ca        1 2BE     -0.011000
     15 CAS         3.4070    1.3970    0.4590 ca        1 2BE     -0.107900
     16 BRAE        4.4480    2.8880    0.9030 br        1 2BE     -0.055100
     17 CAQ         3.9630    0.1430    0.1180 ca        1 2BE      0.232100
     18 OAB         5.3280    0.0590    0.1250 oh        1 2BE     -0.471100
     19 CAV         3.1350   -0.9470   -0.2080 ca        1 2BE     -0.171900
     20 BRAF        3.9140   -2.6000   -0.6560 br        1 2BE     -0.054100
     21 CAR         1.7280   -0.7790   -0.1940 ca        1 2BE      0.262100
     22 OAC         1.0040   -1.8830   -0.5210 oh        1 2BE     -0.479100
     23 HAJ        -5.5120   -1.9800    0.9670 ha        1 2BE      0.152500
     24 HAH        -7.8750   -1.1910    1.1730 ha        1 2BE      0.156000
     25 HAI        -6.8890    2.3300   -1.1630 ha        1 2BE      0.156000
     26 HAK        -4.5420    1.5460   -1.3590 ha        1 2BE      0.152500
     27 HNAN       -2.7830    1.1090    0.2380 hn        1 2BE      0.303500
     28 HAG        -0.4910    1.8200    0.5130 h4        1 2BE     -0.006200
     29 HAL         1.5840    2.5120    0.7310 ha        1 2BE      0.149000
     30 HOAB        5.5870   -0.8480   -0.1240 ho        1 2BE      0.442000
     31 HOAC        0.0490   -1.6940   -0.4910 ho        1 2BE      0.473000
@<TRIPOS>BOND
     1    1    2 ar  
     2    1    7 ar  
     3    1   23 1   
     4    2    3 ar  
     5    2   24 1   
     6    3    4 1   
     7    3    5 ar  
     8    5    6 ar  
     9    5   25 1   
    10    6    7 ar  
    11    6   26 1   
    12    7    8 1   
    13    8    9 2   
    14    8   10 1   
    15   10   11 1   
    16   10   27 1   
    17   11   12 2   
    18   12   13 1   
    19   12   28 1   
    20   13   14 ar  
    21   13   21 ar  
    22   14   15 ar  
    23   14   29 1   
    24   15   16 1   
    25   15   17 ar  
    26   17   18 1   
    27   17   19 ar  
    28   18   30 1   
    29   19   20 1   
    30   19   21 ar  
    31   21   22 1   
    32   22   31 1   
@<TRIPOS>SUBSTRUCTURE
     1 2BE         1 TEMP              0 ****  ****    0 ROOT
