@<TRIPOS>MOLECULE
2BE
   32    33     1     0     0
SMALL
bcc


@<TRIPOS>ATOM
      1 CAJ        -0.3720    1.4690    0.9950 ca        1 2BE     -0.056000
      2 CAH         0.7860    1.3720    0.2300 ca        1 2BE     -0.125500
      3 CAP         1.6330    0.2660    0.3840 ca        1 2BE      0.079400
      4 ClAD        3.0360    0.1430   -0.5400 cl        1 2BE     -0.008400
      5 CAI         1.3180   -0.7400    1.3120 ca        1 2BE     -0.125500
      6 CAK         0.1590   -0.6470    2.0710 ca        1 2BE     -0.056000
      7 CAT        -0.6990    0.4530    1.9110 ca        1 2BE     -0.212600
      8 CAO        -1.9240    0.6280    2.6870 c         1 2BE      0.566700
      9 OAA        -2.4700    1.6710    3.0190 o         1 2BE     -0.443100
     10 NAN        -2.6290   -0.6660    3.1240 ny        1 2BE     -0.366900
     11 NAM        -4.0050   -0.8030    2.9190 n2        1 2BE     -0.549400
     12 CAG        -4.8680    0.0800    3.3660 ce        1 2BE      0.577800
     13 CAU        -6.3020   -0.0340    3.1940 ca        1 2BE     -0.288900
     14 CAL        -7.0490    1.1430    3.4270 ca        1 2BE      0.015000
     15 CAS        -8.4220    1.1900    3.2770 ca        1 2BE     -0.108900
     16 BrAE       -9.3010    2.8080    3.6020 br        1 2BE     -0.002100
     17 CAQ        -9.1100    0.0080    2.8810 ca        1 2BE      0.292100
     18 OAB       -10.4540    0.1140    2.7420 oh        1 2BE     -0.441100
     19 CAV        -8.4030   -1.1910    2.6600 ca        1 2BE     -0.250900
     20 BrAF       -9.3180   -2.7510    2.1550 br        1 2BE     -0.031100
     21 CAR        -6.9990   -1.2090    2.8200 ca        1 2BE      0.291100
     22 OAC        -6.2630   -2.3390    2.6520 oh        1 2BE     -0.466100
     23 HAJ        -1.0360    2.3450    0.8850 ha        1 2BE      0.152500
     24 HAH         1.0340    2.1690   -0.4920 ha        1 2BE      0.180000
     25 HAI         1.9950   -1.6020    1.4430 ha        1 2BE      0.180000
     26 HAK        -0.0440   -1.4360    2.8120 ha        1 2BE      0.152500
     27 HNAN       -2.2390   -1.4480    2.5640 hn        1 2BE      0.464800
     28 HAG        -4.5590    1.0170    3.8980 h4        1 2BE      0.034800
     29 HAL        -6.5090    2.0580    3.7330 ha        1 2BE      0.164000
     30 HOAB      -10.8300   -0.7480    2.4730 ho        1 2BE      0.458000
     31 HOAC       -6.8530   -3.0770    2.3990 ho        1 2BE      0.458000
     32 HAN2       -2.3890   -0.8250    4.1150 hn        1 2BE      0.464800
@<TRIPOS>BOND
     1    1    2 ar  
     2    1    7 ar  
     3    1   23 1   
     4    2    3 ar  
     5    2   24 1   
     6    3    4 1   
     7    3    5 ar  
     8    5    6 ar  
     9    5   25 1   
    10    6    7 ar  
    11    6   26 1   
    12    7    8 1   
    13    8    9 2   
    14    8   10 1   
    15   10   11 1   
    16   10   27 1   
    17   10   32 1   
    18   11   12 2   
    19   12   13 1   
    20   12   28 1   
    21   13   14 ar  
    22   13   21 ar  
    23   14   15 ar  
    24   14   29 1   
    25   15   16 1   
    26   15   17 ar  
    27   17   18 1   
    28   17   19 ar  
    29   18   30 1   
    30   19   20 1   
    31   19   21 ar  
    32   21   22 1   
    33   22   31 1   
@<TRIPOS>SUBSTRUCTURE
     1 2BE         1 TEMP              0 ****  ****    0 ROOT
