@<TRIPOS>MOLECULE
2BF
   34    34     1     0     0
SMALL
bcc


@<TRIPOS>ATOM
      1 C1          0.6140   -0.3790   -0.1130 ca        1 2BF     -0.097000
      2 C2          1.9310    0.0110    0.1080 ca        1 2BF     -0.227000
      3 C3          2.3140    0.4100    1.3930 ca        1 2BF     -0.097000
      4 C4          1.4080    0.3920    2.4380 ca        1 2BF     -0.211500
      5 C5          0.0660   -0.0260    2.2360 ca        1 2BF      0.112000
      6 C6         -0.3110   -0.3940    0.9280 ca        1 2BF     -0.211500
      7 C7         -0.8090   -0.0220    3.3630 c2        1 2BF     -0.650000
      8 C8         -3.6050   -2.2260    4.5420 ca        1 2BF     -0.120000
      9 C9         -4.0860   -3.4430    4.0530 ca        1 2BF     -0.107000
     10 C10        -5.4020   -3.8240    4.3130 ca        1 2BF     -0.144500
     11 C11        -6.2370   -2.9880    5.0550 ca        1 2BF     -0.129000
     12 C12        -5.7570   -1.7720    5.5420 ca        1 2BF     -0.144500
     13 C13        -4.4400   -1.3860    5.2910 ca        1 2BF     -0.107000
     14 P          -1.8830    1.9360    4.3800 p3        1 2BF      2.468000
     15 O1P        -0.8430    2.9670    4.4990 o         1 2BF     -1.151333
     16 O2P        -2.1970    1.0090    5.5030 o         1 2BF     -1.151333
     17 O3P        -2.9450    1.9400    3.3400 o         1 2BF     -1.151333
     18 N          -2.0900   -0.6850    3.3200 n4        1 2BF      0.080000
     19 C19        -2.1910   -1.7990    4.3110 c3        1 2BF     -0.105000
     20 H1          0.2940   -0.6710   -1.1240 ha        1 2BF      0.101000
     21 H2          2.6560    0.0200   -0.7150 ha        1 2BF      0.103000
     22 H3          3.3470    0.7440    1.5710 ha        1 2BF      0.101000
     23 H4          1.7090    0.7300    3.4400 ha        1 2BF      0.116000
     24 H6         -1.3490   -0.6600    0.6890 ha        1 2BF      0.116000
     25 H7         -0.3530    0.0040    4.3670 hx        1 2BF      0.164000
     26 H9         -3.4280   -4.1020    3.4680 ha        1 2BF      0.168500
     27 H10        -5.7810   -4.7820    3.9300 ha        1 2BF      0.125500
     28 H11        -7.2760   -3.2880    5.2540 ha        1 2BF      0.119000
     29 H12        -6.4150   -1.1110    6.1240 ha        1 2BF      0.125500
     30 H13        -4.0340   -0.4250    5.6750 ha        1 2BF      0.168500
     31 HN         -2.8460    0.0140    3.5300 hn        1 2BF      0.233500
     32 H191       -1.7700   -1.4090    5.2890 hx        1 2BF      0.135500
     33 H192       -1.5580   -2.6550    3.9500 hx        1 2BF      0.135500
     34 HN3        -2.2690   -1.0530    2.3850 hn        1 2BF      0.233500
@<TRIPOS>BOND
     1    1    2 1   
     2    1    6 1   
     3    1   20 1   
     4    2    3 1   
     5    2   21 1   
     6    3    4 1   
     7    3   22 1   
     8    4    5 1   
     9    4   23 1   
    10    5    6 1   
    11    5    7 1   
    12    6   24 1   
    13    7   18 1   
    14    7   25 1   
    15    8    9 1   
    16    8   13 1   
    17    8   19 1   
    18    9   10 1   
    19    9   26 1   
    20   10   11 1   
    21   10   27 1   
    22   11   12 1   
    23   11   28 1   
    24   12   13 1   
    25   12   29 1   
    26   13   30 1   
    27   14   15 1   
    28   14   16 1   
    29   14   17 1   
    30   18   19 1   
    31   18   31 1   
    32   18   34 1   
    33   19   32 1   
    34   19   33 1   
@<TRIPOS>SUBSTRUCTURE
     1 2BF         1 TEMP              0 ****  ****    0 ROOT
