@<TRIPOS>MOLECULE
2BF
   33    33     1     0     0
SMALL
bcc


@<TRIPOS>ATOM
      1 C1        154.2220  -26.7960  100.3860 ca        1 2BF     -0.073500
      2 C2        153.1600  -26.0440  100.9020 ca        1 2BF     -0.331000
      3 C3        151.9160  -26.6660  101.0540 ca        1 2BF     -0.073500
      4 C4        151.7310  -27.9890  100.7150 ca        1 2BF     -0.275500
      5 C5        152.8050  -28.7850  100.1940 ca        1 2BF      0.123000
      6 C6        154.0640  -28.1210  100.0390 ca        1 2BF     -0.275500
      7 C7        152.5890  -30.1210   99.8990 c2        1 2BF     -0.462000
      8 C8        153.9870  -32.6140  101.2250 ca        1 2BF     -0.081000
      9 C9        154.5200  -33.9080  101.2190 ca        1 2BF     -0.128500
     10 C10       154.0480  -34.8710  102.1110 ca        1 2BF     -0.145000
     11 C11       153.0350  -34.5510  103.0130 ca        1 2BF     -0.158000
     12 C12       152.4940  -33.2640  103.0200 ca        1 2BF     -0.145000
     13 C13       152.9670  -32.3000  102.1340 ca        1 2BF     -0.128500
     14 P       -1107.4910  221.3860 -735.5540 p3        1 2BF      2.361000
     15 O1P     -1106.3690  220.4310 -735.5150 o         1 2BF     -1.120000
     16 O2P     -1107.2260  222.8350 -735.5760 o         1 2BF     -1.120000
     17 O3P     -1108.8790  220.8910 -735.5710 o         1 2BF     -1.120000
     18 N         153.5540  -30.9860   99.3300 n3        1 2BF     -0.180000
     19 C19       154.4950  -31.5650  100.2780 c3        1 2BF     -0.064000
     20 H1        155.2020  -26.3130  100.2550 ha        1 2BF      0.072500
     21 H2        153.2980  -24.9940  101.1770 ha        1 2BF      0.083000
     22 H3        151.0710  -26.0830  101.4520 ha        1 2BF      0.072500
     23 H4        150.7470  -28.4590  100.8360 ha        1 2BF      0.095500
     24 H6        154.9080  -28.6850   99.6240 ha        1 2BF      0.095500
     25 H7        151.5870  -30.5450  100.0720 h4        1 2BF      0.075000
     26 H9        155.3170  -34.1660  100.5080 ha        1 2BF      0.146500
     27 H10       154.4760  -35.8830  102.1020 ha        1 2BF      0.112500
     28 H11       152.6630  -35.3090  103.7160 ha        1 2BF      0.108000
     29 H12       151.6930  -33.0100  103.7280 ha        1 2BF      0.112500
     30 H13       152.5430  -31.2790  102.1200 ha        1 2BF      0.146500
     31 HN        153.0690  -31.7360   98.8660 hn        1 2BF      0.115000
     32 H191      155.3380  -32.0080   99.6720 h1        1 2BF      0.081000
     33 H192      154.9140  -30.7170  100.8930 h1        1 2BF      0.081000
@<TRIPOS>BOND
     1    1    2 1   
     2    1    6 1   
     3    1   20 1   
     4    2    3 1   
     5    2   21 1   
     6    3    4 1   
     7    3   22 1   
     8    4    5 1   
     9    4   23 1   
    10    5    6 1   
    11    5    7 1   
    12    6   24 1   
    13    7   18 1   
    14    7   25 1   
    15    8    9 1   
    16    8   13 1   
    17    8   19 1   
    18    9   10 1   
    19    9   26 1   
    20   10   11 1   
    21   10   27 1   
    22   11   12 1   
    23   11   28 1   
    24   12   13 1   
    25   12   29 1   
    26   13   30 1   
    27   14   15 1   
    28   14   16 1   
    29   14   17 1   
    30   18   19 1   
    31   18   31 1   
    32   19   32 1   
    33   19   33 1   
@<TRIPOS>SUBSTRUCTURE
     1 2BF         1 TEMP              0 ****  ****    0 ROOT
