@<TRIPOS>MOLECULE
2BF
   33    28     1     0     0
SMALL
bcc


@<TRIPOS>ATOM
      1 C1          1.8920    1.4290   -3.0800 c1        1 2BF     -0.119250
      2 C2          3.1980    0.9440   -3.0950 c1        1 2BF     -0.119250
      3 C3          3.7870    0.5140   -1.9300 c1        1 2BF     -0.119250
      4 C4          3.0690    0.5640   -0.7120 c1        1 2BF     -0.221500
      5 C5          1.7490    1.0540   -0.6950 c1        1 2BF      0.100900
      6 C6          1.1640    1.4820   -1.8630 c1        1 2BF     -0.119250
      7 C7          0.9930    1.1360    0.6070 c3        1 2BF      0.190400
      8 C8         -1.6590   -1.3090    1.1860 c1        1 2BF     -0.036100
      9 C9         -1.5320   -2.5210    0.5270 c1        1 2BF     -0.119250
     10 C10        -2.6670   -3.3500    0.3480 c1        1 2BF     -0.119250
     11 C11        -3.9100   -2.9440    0.8350 c1        1 2BF     -0.119250
     12 C12        -4.0340   -1.7430    1.4880 c1        1 2BF     -0.119250
     13 C13        -2.8920   -0.9080    1.6680 c1        1 2BF     -0.033500
     14 P           0.7540    2.8830    1.0590 p5        1 2BF      1.081700
     15 O1P        -0.1710    3.5200    0.0960 o         1 2BF     -0.829833
     16 O2P         2.0860    3.5990    1.0260 o         1 2BF     -0.829833
     17 O3P         0.1470    2.9730    2.5190 o         1 2BF     -0.829833
     18 N          -0.2980    0.4900    0.4700 n3        1 2BF     -0.771200
     19 C19        -0.4490   -0.4860    1.4750 c3        1 2BF      0.150900
     20 H1          1.4850    1.7280   -3.8950 ha        1 2BF      0.031500
     21 H2          3.6360    0.7710   -3.9470 ha        1 2BF      0.031500
     22 H3          4.7660    0.2810   -1.9240 ha        1 2BF      0.031500
     23 H4          3.5250    0.3910    0.1150 ha        1 2BF      0.030500
     24 H6          0.2470    1.8680   -1.8480 ha        1 2BF      0.031500
     25 H7          1.5070    0.6870    1.3080 h1        1 2BF      0.080700
     26 H9         -0.6220   -2.8150    0.1720 ha        1 2BF      0.031500
     27 H10        -2.5720   -4.1980   -0.0500 ha        1 2BF      0.031500
     28 H11        -4.7160   -3.5290    0.7090 ha        1 2BF      0.031500
     29 H12        -4.9310   -1.4510    1.8390 ha        1 2BF      0.031500
     30 H13        -2.9840   -0.0190    2.1520 ha        1 2BF      0.160500
     31 HN         -0.3600    0.0860   -0.3620 hn        1 2BF      0.358800
     32 H191       -0.5500   -0.0670    2.3090 h1        1 2BF      0.050200
     33 H192        0.3440   -1.0620    1.4950 h1        1 2BF      0.050200
@<TRIPOS>BOND
     1    1    6 3   
     2    1   20 1   
     3    2    3 3   
     4    2   21 1   
     5    3   22 1   
     6    4    5 3   
     7    4   23 1   
     8    5    7 1   
     9    6   24 1   
    10    7   14 1   
    11    7   18 1   
    12    7   25 1   
    13    8   13 3   
    14    8   19 1   
    15    9   10 3   
    16    9   26 1   
    17   10   27 1   
    18   11   12 3   
    19   11   28 1   
    20   12   29 1   
    21   13   30 1   
    22   14   15 1   
    23   14   16 1   
    24   14   17 1   
    25   18   19 1   
    26   18   31 1   
    27   19   32 1   
    28   19   33 1   
@<TRIPOS>SUBSTRUCTURE
     1 2BF         1 TEMP              0 ****  ****    0 ROOT
