@<TRIPOS>MOLECULE
2BF
   34    34     1     0     0
SMALL
bcc


@<TRIPOS>ATOM
      1 C1          0.6170   -0.3950   -0.1130 ca        1 2BF     -0.097000
      2 C2          1.9360   -0.0140    0.1080 ca        1 2BF     -0.227000
      3 C3          2.3220    0.3830    1.3930 ca        1 2BF     -0.097000
      4 C4          1.4150    0.3710    2.4380 ca        1 2BF     -0.211500
      5 C5          0.0710   -0.0390    2.2360 ca        1 2BF      0.112000
      6 C6         -0.3080   -0.4040    0.9280 ca        1 2BF     -0.211500
      7 C7         -0.8040   -0.0290    3.3630 c2        1 2BF     -0.650000
      8 C8         -3.6140   -2.2160    4.5420 ca        1 2BF     -0.120000
      9 C9         -4.1030   -3.4280    4.0520 ca        1 2BF     -0.107000
     10 C10        -5.4220   -3.8010    4.3120 ca        1 2BF     -0.144500
     11 C11        -6.2510   -2.9600    5.0540 ca        1 2BF     -0.129000
     12 C12        -5.7620   -1.7480    5.5420 ca        1 2BF     -0.144500
     13 C13        -4.4440   -1.3710    5.2920 ca        1 2BF     -0.107000
     14 P          -1.8640    1.9360    4.3810 p3        1 2BF      2.468000
     15 O1P        -0.8180    2.9590    4.5000 o         1 2BF     -1.151333
     16 O2P        -2.1850    1.0100    5.5030 o         1 2BF     -1.151333
     17 O3P        -2.9260    1.9460    3.3410 o         1 2BF     -1.151333
     18 N          -2.0890   -0.6840    3.3200 ny        1 2BF      0.080000
     19 C19        -2.1970   -1.7980    4.3100 c3        1 2BF     -0.105000
     20 H1          0.2950   -0.6850   -1.1240 ha        1 2BF      0.101000
     21 H2          2.6620   -0.0090   -0.7150 ha        1 2BF      0.103000
     22 H3          3.3570    0.7110    1.5710 ha        1 2BF      0.101000
     23 H4          1.7190    0.7070    3.4400 ha        1 2BF      0.116000
     24 H6         -1.3480   -0.6640    0.6900 ha        1 2BF      0.116000
     25 H7         -0.3470   -0.0070    4.3670 hx        1 2BF      0.164000
     26 H9         -3.4500   -4.0910    3.4660 ha        1 2BF      0.168500
     27 H10        -5.8070   -4.7560    3.9290 ha        1 2BF      0.125500
     28 H11        -7.2920   -3.2540    5.2540 ha        1 2BF      0.119000
     29 H12        -6.4170   -1.0830    6.1250 ha        1 2BF      0.125500
     30 H13        -4.0310   -0.4130    5.6760 ha        1 2BF      0.168500
     31 HN         -2.2710   -1.0510    2.3850 hn        1 2BF      0.233500
     32 H191       -1.5700   -2.6570    3.9490 hx        1 2BF      0.135500
     33 H192       -1.7740   -1.4110    5.2880 hx        1 2BF      0.135500
     34 HN3        -2.8410    0.0200    3.5300 hn        1 2BF      0.233500
@<TRIPOS>BOND
     1    1    2 1   
     2    1    6 1   
     3    1   20 1   
     4    2    3 1   
     5    2   21 1   
     6    3    4 1   
     7    3   22 1   
     8    4    5 1   
     9    4   23 1   
    10    5    6 1   
    11    5    7 1   
    12    6   24 1   
    13    7   18 1   
    14    7   25 1   
    15    8    9 1   
    16    8   13 1   
    17    8   19 1   
    18    9   10 1   
    19    9   26 1   
    20   10   11 1   
    21   10   27 1   
    22   11   12 1   
    23   11   28 1   
    24   12   13 1   
    25   12   29 1   
    26   13   30 1   
    27   14   15 1   
    28   14   16 1   
    29   14   17 1   
    30   18   19 1   
    31   18   31 1   
    32   18   34 1   
    33   19   32 1   
    34   19   33 1   
@<TRIPOS>SUBSTRUCTURE
     1 2BF         1 TEMP              0 ****  ****    0 ROOT
