@<TRIPOS>MOLECULE
2BF
   34    34     1     0     0
SMALL
bcc


@<TRIPOS>ATOM
      1 C1          0.6030   -0.3800   -0.1210 ca        1 2BF     -0.097000
      2 C2          1.9210    0.0080    0.0950 ca        1 2BF     -0.227000
      3 C3          2.3090    0.4060    1.3790 ca        1 2BF     -0.097000
      4 C4          1.4070    0.3880    2.4280 ca        1 2BF     -0.211500
      5 C5          0.0630   -0.0280    2.2300 ca        1 2BF      0.112000
      6 C6         -0.3180   -0.3950    0.9220 ca        1 2BF     -0.211500
      7 C7         -0.8080   -0.0240    3.3600 c2        1 2BF     -0.650000
      8 C8         -3.6030   -2.2250    4.5460 ca        1 2BF     -0.120000
      9 C9         -4.0890   -3.4390    4.0560 ca        1 2BF     -0.107000
     10 C10        -5.4050   -3.8180    4.3210 ca        1 2BF     -0.144500
     11 C11        -6.2350   -2.9820    5.0670 ca        1 2BF     -0.129000
     12 C12        -5.7500   -1.7680    5.5550 ca        1 2BF     -0.144500
     13 C13        -4.4340   -1.3850    5.3000 ca        1 2BF     -0.107000
     14 P          -1.8730    1.9350    4.3840 p3        1 2BF      2.467000
     15 O1P        -0.8310    2.9620    4.5010 o         1 2BF     -1.151333
     16 O2P        -2.1860    1.0060    5.5060 o         1 2BF     -1.151333
     17 O3P        -2.9390    1.9420    3.3480 o         1 2BF     -1.151333
     18 N          -2.0900   -0.6840    3.3210 n4        1 2BF      0.080000
     19 C19        -2.1890   -1.8010    4.3100 c3        1 2BF     -0.105000
     20 H1          0.2790   -0.6710   -1.1310 ha        1 2BF      0.101000
     21 H2          2.6440    0.0170   -0.7300 ha        1 2BF      0.103000
     22 H3          3.3430    0.7390    1.5540 ha        1 2BF      0.101000
     23 H4          1.7120    0.7250    3.4290 ha        1 2BF      0.116000
     24 H6         -1.3570   -0.6600    0.6880 ha        1 2BF      0.116000
     25 H7         -0.3470   -0.0010    4.3620 hx        1 2BF      0.164000
     26 H9         -3.4350   -4.0980    3.4670 ha        1 2BF      0.168500
     27 H10        -5.7870   -4.7740    3.9380 ha        1 2BF      0.125500
     28 H11        -7.2740   -3.2810    5.2710 ha        1 2BF      0.119000
     29 H12        -6.4050   -1.1070    6.1410 ha        1 2BF      0.125500
     30 H13        -4.0240   -0.4250    5.6840 ha        1 2BF      0.168500
     31 HN         -2.2740   -1.0510    2.3860 hn        1 2BF      0.233500
     32 H191       -1.7640   -1.4130    5.2870 hx        1 2BF      0.135500
     33 H192       -1.5590   -2.6560    3.9450 hx        1 2BF      0.135500
     34 HN3        -2.8440    0.0160    3.5350 hn        1 2BF      0.233500
@<TRIPOS>BOND
     1    1    2 1   
     2    1    6 1   
     3    1   20 1   
     4    2    3 1   
     5    2   21 1   
     6    3    4 1   
     7    3   22 1   
     8    4    5 1   
     9    4   23 1   
    10    5    6 1   
    11    5    7 1   
    12    6   24 1   
    13    7   18 1   
    14    7   25 1   
    15    8    9 1   
    16    8   13 1   
    17    8   19 1   
    18    9   10 1   
    19    9   26 1   
    20   10   11 1   
    21   10   27 1   
    22   11   12 1   
    23   11   28 1   
    24   12   13 1   
    25   12   29 1   
    26   13   30 1   
    27   14   15 1   
    28   14   16 1   
    29   14   17 1   
    30   18   19 1   
    31   18   31 1   
    32   18   34 1   
    33   19   32 1   
    34   19   33 1   
@<TRIPOS>SUBSTRUCTURE
     1 2BF         1 TEMP              0 ****  ****    0 ROOT
