@<TRIPOS>MOLECULE
2BG
   20    21     1     0     0
SMALL
bcc


@<TRIPOS>ATOM
      1 NAG        -0.0220    0.4910   -0.1570 nc        1 2BG     -0.536100
      2 CAJ         1.3550    0.2880   -0.1310 ca        1 2BG      0.077400
      3 CAD         2.2170    0.5530    0.9580 ca        1 2BG     -0.063000
      4 CAB         3.5660    0.2860    0.8160 ca        1 2BG     -0.111000
      5 CAC         4.0860   -0.2390   -0.3840 ca        1 2BG     -0.081000
      6 CAE         3.2620   -0.5070   -1.4640 ca        1 2BG     -0.091000
      7 CAK         1.8920   -0.2480   -1.3550 ca        1 2BG     -0.090100
      8 SAH         0.6510   -0.4610   -2.4730 ss        1 2BG      0.123900
      9 CAI        -0.5000    0.1280   -1.3500 cd        1 2BG      0.194200
     10 CAF        -1.9500    0.1850   -1.6960 c3        1 2BG      0.119500
     11 NAA        -2.7070    1.1400   -0.8290 n4        1 2BG     -0.830600
     12 H1          1.8110    0.9610    1.8960 ha        1 2BG      0.161000
     13 H2          4.2530    0.4850    1.6550 ha        1 2BG      0.160000
     14 H3          5.1680   -0.4390   -0.4580 ha        1 2BG      0.161000
     15 H4          3.6770   -0.9190   -2.3970 ha        1 2BG      0.159000
     16 H5         -2.0770    0.5140   -2.7690 hx        1 2BG      0.119700
     17 H6         -2.4150   -0.8380   -1.5630 hx        1 2BG      0.119700
     18 H7         -2.2810    2.0730   -0.8810 hn        1 2BG      0.468800
     19 H8         -2.6680    0.8280    0.1500 hn        1 2BG      0.468800
     20 HAA3       -3.6830    1.1910   -1.1310 hn        1 2BG      0.468800
@<TRIPOS>BOND
     1    1    2 1   
     2    1    9 2   
     3    2    3 ar  
     4    2    7 ar  
     5    3    4 ar  
     6    3   12 1   
     7    4    5 ar  
     8    4   13 1   
     9    5    6 ar  
    10    5   14 1   
    11    6    7 ar  
    12    6   15 1   
    13    7    8 1   
    14    8    9 1   
    15    9   10 1   
    16   10   11 1   
    17   10   16 1   
    18   10   17 1   
    19   11   18 1   
    20   11   19 1   
    21   11   20 1   
@<TRIPOS>SUBSTRUCTURE
     1 2BG         1 TEMP              0 ****  ****    0 ROOT
