@<TRIPOS>MOLECULE
2BG
   20    21     1     0     0
SMALL
bcc


@<TRIPOS>ATOM
      1 NAG        -0.0290    0.4360   -0.1460 nc        1 2BG     -0.536100
      2 CAJ         1.3520    0.2610   -0.1270 ca        1 2BG      0.077400
      3 CAD         2.2030    0.4630    0.9840 ca        1 2BG     -0.063000
      4 CAB         3.5580    0.2360    0.8310 ca        1 2BG     -0.111000
      5 CAC         4.0950   -0.1880   -0.4010 ca        1 2BG     -0.081000
      6 CAE         3.2820   -0.3920   -1.5030 ca        1 2BG     -0.091000
      7 CAK         1.9060   -0.1710   -1.3840 ca        1 2BG     -0.090100
      8 SAH         0.6750   -0.3270   -2.5220 ss        1 2BG      0.123900
      9 CAI        -0.4940    0.1520   -1.3660 cd        1 2BG      0.194200
     10 CAF        -1.9430    0.2040   -1.7150 c3        1 2BG      0.119500
     11 NAA        -2.7240    1.0790   -0.7860 nz        1 2BG     -0.830600
     12 H1          1.7840    0.7920    1.9470 ha        1 2BG      0.161000
     13 H2          4.2370    0.3870    1.6860 ha        1 2BG      0.160000
     14 H3          5.1810   -0.3590   -0.4830 ha        1 2BG      0.161000
     15 H4          3.7100   -0.7250   -2.4620 ha        1 2BG      0.159000
     16 H5         -2.0730    0.6070   -2.7630 hx        1 2BG      0.119700
     17 H6         -2.3860   -0.8350   -1.6590 hx        1 2BG      0.119700
     18 H7         -2.3170    2.0210   -0.7690 hn        1 2BG      0.468467
     19 H8         -2.6820    0.6980    0.1680 hn        1 2BG      0.468467
     20 HAA3       -3.6990    1.1310   -1.0900 hn        1 2BG      0.468467
@<TRIPOS>BOND
     1    1    2 1   
     2    1    9 2   
     3    2    3 ar  
     4    2    7 ar  
     5    3    4 ar  
     6    3   12 1   
     7    4    5 ar  
     8    4   13 1   
     9    5    6 ar  
    10    5   14 1   
    11    6    7 ar  
    12    6   15 1   
    13    7    8 1   
    14    8    9 1   
    15    9   10 1   
    16   10   11 1   
    17   10   16 1   
    18   10   17 1   
    19   11   18 1   
    20   11   19 1   
    21   11   20 1   
@<TRIPOS>SUBSTRUCTURE
     1 2BG         1 TEMP              0 ****  ****    0 ROOT
