@<TRIPOS>MOLECULE
2BG
   20    21     1     0     0
SMALL
bcc


@<TRIPOS>ATOM
      1 NAG        -0.0320    0.4380   -0.1510 nc        1 2BG     -0.536100
      2 CAJ         1.3490    0.2590   -0.1240 ca        1 2BG      0.077400
      3 CAD         2.1950    0.4560    0.9920 ca        1 2BG     -0.063000
      4 CAB         3.5500    0.2260    0.8470 ca        1 2BG     -0.111000
      5 CAC         4.0930   -0.1970   -0.3830 ca        1 2BG     -0.081000
      6 CAE         3.2850   -0.3960   -1.4910 ca        1 2BG     -0.091000
      7 CAK         1.9090   -0.1720   -1.3790 ca        1 2BG     -0.090100
      8 SAH         0.6840   -0.3220   -2.5250 ss        1 2BG      0.123900
      9 CAI        -0.4890    0.1580   -1.3740 cd        1 2BG      0.195200
     10 CAF        -1.9360    0.2160   -1.7320 c3        1 2BG      0.118500
     11 NAA        -2.7220    1.0830   -0.8000 n4        1 2BG     -0.830600
     12 H1          1.7710    0.7840    1.9540 ha        1 2BG      0.161000
     13 H2          4.2240    0.3730    1.7060 ha        1 2BG      0.160000
     14 H3          5.1790   -0.3700   -0.4590 ha        1 2BG      0.161000
     15 H4          3.7170   -0.7280   -2.4480 ha        1 2BG      0.159000
     16 H5         -2.3820   -0.8240   -1.6880 hx        1 2BG      0.119700
     17 H6         -2.0590    0.6280   -2.7770 hx        1 2BG      0.119700
     18 H7         -2.6870    0.6940    0.1510 hn        1 2BG      0.468800
     19 H8         -3.6960    1.1380   -1.1090 hn        1 2BG      0.468800
     20 HAA3       -2.3150    2.0250   -0.7730 hn        1 2BG      0.468800
@<TRIPOS>BOND
     1    1    2 1   
     2    1    9 2   
     3    2    3 ar  
     4    2    7 ar  
     5    3    4 ar  
     6    3   12 1   
     7    4    5 ar  
     8    4   13 1   
     9    5    6 ar  
    10    5   14 1   
    11    6    7 ar  
    12    6   15 1   
    13    7    8 1   
    14    8    9 1   
    15    9   10 1   
    16   10   11 1   
    17   10   16 1   
    18   10   17 1   
    19   11   18 1   
    20   11   19 1   
    21   11   20 1   
@<TRIPOS>SUBSTRUCTURE
     1 2BG         1 TEMP              0 ****  ****    0 ROOT
