@<TRIPOS>MOLECULE
2BI
   27    27     1     0     0
SMALL
bcc


@<TRIPOS>ATOM
      1 C1         -0.0060   -0.1770   -0.0540 ca        1 2BI     -0.566500
      2 C2          1.3550   -0.5750    0.0250 ca        1 2BI      0.161400
      3 C3          2.0430   -0.5810    1.2330 ca        1 2BI     -0.152000
      4 C4          1.4150   -0.1640    2.4170 ca        1 2BI      0.142400
      5 C5          0.0740    0.2790    2.3670 ca        1 2BI     -0.022600
      6 C6         -0.6030    0.2740    1.1560 ca        1 2BI      0.038000
      7 S7         -0.9360   -0.2040   -1.3360 s4        1 2BI      1.657300
      8 O8         -0.6150   -1.0100   -2.3800 o         1 2BI     -0.420900
      9 O9         -2.1990    0.2720   -1.1820 o         1 2BI     -0.420900
     10 N10        -0.0270    1.6520   -2.3690 nh        1 2BI     -0.965500
     11 C11        -0.5420    2.8440   -1.7810 cc        1 2BI      0.406200
     12 N12        -0.8020    2.9840   -0.4470 nd        1 2BI     -0.371300
     13 O13        -1.2950    4.1750   -0.2450 os        1 2BI     -0.078100
     14 C14        -1.3910    4.8970   -1.4660 cd        1 2BI      0.333000
     15 C15        -0.9150    4.0770   -2.4740 cc        1 2BI     -0.363600
     16 C16        -1.9340    6.2500   -1.3830 c3        1 2BI     -0.161400
     17 CL7         2.1960   -1.0350   -1.3650 cl        1 2BI     -0.004400
     18 CL8         2.2710   -0.1910    3.8550 cl        1 2BI      0.048600
     19 CL9        -0.7150    0.8150    3.7560 cl        1 2BI      0.016600
     20 H1          3.0980   -0.9160    1.2650 ha        1 2BI      0.200000
     21 H2         -1.6530    0.6400    1.1300 ha        1 2BI      0.199000
     22 H3          0.9800    1.6350   -2.2810 hn        1 2BI      0.428800
     23 H4         -0.8330    4.2770   -3.5380 ha        1 2BI      0.198000
     24 H5         -2.1410    6.5340   -0.3190 hc        1 2BI      0.090033
     25 H6         -2.8910    6.3110   -1.9640 hc        1 2BI      0.090033
     26 H7         -1.2050    6.9810   -1.8170 hc        1 2BI      0.090033
     27 H102       -0.2680    1.6390   -3.3510 hn        1 2BI      0.428800
@<TRIPOS>BOND
     1    1    2 ar  
     2    1    6 ar  
     3    1    7 1   
     4    2    3 ar  
     5    2   17 1   
     6    3    4 ar  
     7    3   20 1   
     8    4    5 ar  
     9    4   18 1   
    10    5    6 ar  
    11    5   19 1   
    12    6   21 1   
    13    7    8 1   
    14    7    9 1   
    15   10   11 1   
    16   10   22 1   
    17   10   27 1   
    18   11   12 2   
    19   11   15 1   
    20   12   13 1   
    21   13   14 1   
    22   14   15 2   
    23   14   16 1   
    24   15   23 1   
    25   16   24 1   
    26   16   25 1   
    27   16   26 1   
@<TRIPOS>SUBSTRUCTURE
     1 2BI         1 TEMP              0 ****  ****    0 ROOT
