@<TRIPOS>MOLECULE
2BI
   26    27     1     0     0
SMALL
bcc


@<TRIPOS>ATOM
      1 C1         -0.3720   -0.8540   -0.4810 ca        1 2BI     -0.357500
      2 C2         -0.8370   -1.2540    0.7810 ca        1 2BI      0.135400
      3 C3         -2.0400   -0.7740    1.3010 ca        1 2BI     -0.146000
      4 C4         -2.8020    0.1370    0.5630 ca        1 2BI      0.081400
      5 C5         -2.3480    0.5650   -0.6950 ca        1 2BI     -0.012600
      6 C6         -1.1420    0.0700   -1.1980 ca        1 2BI      0.008000
      7 S7          1.0450   -1.4310   -1.2260 sy        1 2BI      1.516200
      8 O8          1.0390   -2.8360   -1.2550 o         1 2BI     -0.630300
      9 O9          1.1840   -0.7920   -2.4660 o         1 2BI     -0.630300
     10 N10         2.2270   -0.9870   -0.1790 nh        1 2BI     -0.846800
     11 C11         2.6320    0.3060    0.1130 cc        1 2BI      0.565200
     12 N12         2.0000    1.4520   -0.2780 nd        1 2BI     -0.410300
     13 O13         2.6820    2.4810    0.1850 os        1 2BI     -0.110100
     14 C14         3.8090    2.0440    0.9210 cd        1 2BI      0.295000
     15 C15         3.8210    0.6660    0.9060 cc        1 2BI     -0.382600
     16 C16         4.6620    3.0840    1.4920 c3        1 2BI     -0.145400
     17 CL7         0.0610   -2.3400    1.7280 cl        1 2BI     -0.063400
     18 CL8        -4.2560    0.7050    1.2120 cl        1 2BI     -0.042400
     19 CL9        -3.2350    1.6740   -1.6160 cl        1 2BI     -0.045400
     20 H1         -2.3900   -1.1090    2.2920 ha        1 2BI      0.172000
     21 H2         -0.7820    0.4200   -2.1880 ha        1 2BI      0.194000
     22 H3          2.7380   -1.6770    0.3290 hn        1 2BI      0.469800
     23 H4          4.5250   -0.0260    1.3550 ha        1 2BI      0.178000
     24 H5          4.1750    4.0880    1.4070 hc        1 2BI      0.070033
     25 H6          4.8610    2.8650    2.5710 hc        1 2BI      0.070033
     26 H7          5.6400    3.1140    0.9470 hc        1 2BI      0.070033
@<TRIPOS>BOND
     1    1    2 ar  
     2    1    6 ar  
     3    1    7 1   
     4    2    3 ar  
     5    2   17 1   
     6    3    4 ar  
     7    3   20 1   
     8    4    5 ar  
     9    4   18 1   
    10    5    6 ar  
    11    5   19 1   
    12    6   21 1   
    13    7    8 2   
    14    7    9 2   
    15    7   10 1   
    16   10   11 1   
    17   10   22 1   
    18   11   12 2   
    19   11   15 1   
    20   12   13 1   
    21   13   14 1   
    22   14   15 2   
    23   14   16 1   
    24   15   23 1   
    25   16   24 1   
    26   16   25 1   
    27   16   26 1   
@<TRIPOS>SUBSTRUCTURE
     1 2BI         1 TEMP              0 ****  ****    0 ROOT
