@<TRIPOS>MOLECULE
2BI
   26    27     1     0     0
SMALL
bcc


@<TRIPOS>ATOM
      1 C1          0.0060   -0.0180   -0.0240 ca        1 2BI     -0.357500
      2 C2          1.4050    0.0750    0.0270 ca        1 2BI      0.135400
      3 C3          2.0970    0.0240    1.2380 ca        1 2BI     -0.146000
      4 C4          1.3890   -0.1080    2.4370 ca        1 2BI      0.081400
      5 C5         -0.0130   -0.1850    2.4130 ca        1 2BI     -0.012600
      6 C6         -0.6850   -0.1350    1.1900 ca        1 2BI      0.008000
      7 S7         -0.9210   -0.0300   -1.4500 sy        1 2BI      1.516200
      8 O8         -0.4470   -1.0210   -2.3260 o         1 2BI     -0.630300
      9 O9         -2.2740   -0.1190   -1.0990 o         1 2BI     -0.630300
     10 N10        -0.5670    1.4150   -2.1410 nu        1 2BI     -0.846800
     11 C11        -0.9070    2.6690   -1.6580 cc        1 2BI      0.565200
     12 N12        -1.4390    2.9380   -0.4280 nd        1 2BI     -0.410300
     13 O13        -1.6310    4.2390   -0.3350 os        1 2BI     -0.110100
     14 C14        -1.2180    4.8920   -1.5200 cd        1 2BI      0.295000
     15 C15        -0.7480    3.9360   -2.3940 cc        1 2BI     -0.382600
     16 C16        -1.3770    6.3450   -1.5570 c3        1 2BI     -0.145400
     17 Cl7         2.3100    0.2610   -1.3980 cl        1 2BI     -0.063400
     18 Cl8         2.2480   -0.1690    3.8930 cl        1 2BI     -0.042400
     19 Cl9        -0.9060   -0.3360    3.8430 cl        1 2BI     -0.045400
     20 H1          3.1970    0.0900    1.2530 ha        1 2BI      0.172000
     21 H2         -1.7940   -0.1840    1.1770 ha        1 2BI      0.194000
     22 H3         -0.0530    1.4560   -2.9950 hn        1 2BI      0.469800
     23 H4         -0.3510    4.0490   -3.3960 ha        1 2BI      0.178000
     24 H5         -0.4120    6.8270   -1.8540 hc        1 2BI      0.069700
     25 H6         -1.6850    6.7360   -0.5550 hc        1 2BI      0.069700
     26 H7         -2.1620    6.6220   -2.3060 hc        1 2BI      0.069700
@<TRIPOS>BOND
     1    1    2 ar  
     2    1    6 ar  
     3    1    7 1   
     4    2    3 ar  
     5    2   17 1   
     6    3    4 ar  
     7    3   20 1   
     8    4    5 ar  
     9    4   18 1   
    10    5    6 ar  
    11    5   19 1   
    12    6   21 1   
    13    7    8 2   
    14    7    9 2   
    15    7   10 1   
    16   10   11 1   
    17   10   22 1   
    18   11   12 2   
    19   11   15 1   
    20   12   13 1   
    21   13   14 1   
    22   14   15 2   
    23   14   16 1   
    24   15   23 1   
    25   16   24 1   
    26   16   25 1   
    27   16   26 1   
@<TRIPOS>SUBSTRUCTURE
     1 2BI         1 TEMP              0 ****  ****    0 ROOT
