@<TRIPOS>MOLECULE
2BI
   26    20     1     0     0
SMALL
bcc


@<TRIPOS>ATOM
      1 C1         -0.1450    0.5580    2.1020 c1        1 2BI     -0.805000
      2 C2         -0.2200   -0.4680    3.0310 c1        1 2BI      0.052000
      3 C3          0.4920   -0.3820    4.2170 c1        1 2BI     -0.149000
      4 C4          1.2800    0.7290    4.4740 c1        1 2BI      0.003000
      5 C5          1.3550    1.7550    3.5450 c1        1 2BI     -0.095000
      6 C6          0.6420    1.6700    2.3590 c2        1 2BI     -0.015000
      7 S7         -1.1020    0.4750    0.6110 s4        1 2BI      2.067800
      8 O8         -2.0850    1.5210    0.5640 o         1 2BI     -0.511900
      9 O9         -1.9360   -0.6940    0.5920 o         1 2BI     -0.511900
     10 N10        -0.1150    0.5250   -0.7000 n2        1 2BI     -0.787000
     11 C11        -0.3350   -0.3600   -1.7870 c2        1 2BI      0.040000
     12 N12        -0.9530   -1.5580   -1.7220 n2        1 2BI     -0.049000
     13 O13        -1.0000   -2.0880   -3.0060 os        1 2BI     -0.057000
     14 C14        -0.4100   -1.2050   -3.8450 c1        1 2BI      0.004000
     15 C15         0.0080   -0.1290   -3.1030 c1        1 2BI     -0.257000
     16 C16        -0.2410   -1.3750   -5.3390 c2        1 2BI     -0.168000
     17 CL7        -1.2410   -1.8480    2.7260 cl        1 2BI      0.053000
     18 CL8         2.1480    0.8530    5.9810 cl        1 2BI      0.033500
     19 CL9         2.3040    3.1760    3.8900 cl        1 2BI      0.033500
     20 H1          0.4400   -1.1040    4.8710 ha        1 2BI      0.173000
     21 H2          0.6950    2.3920    1.7050 ha        1 2BI      0.189000
     22 H3          0.5670    1.1300   -0.7350 hn        1 2BI      0.258000
     23 H4          0.4670    0.6620   -3.4460 DU        1 2BI      0.176000
     24 H5          0.7090   -1.3060   -5.5700 ha        1 2BI      0.108667
     25 H6         -0.5800   -2.2540   -5.6080 ha        1 2BI      0.108667
     26 H7         -0.7420   -0.6740   -5.8060 ha        1 2BI      0.108667
@<TRIPOS>BOND
     1    1    6 1   
     2    1    7 1   
     3    2    3 1   
     4    2   17 1   
     5    3   20 1   
     6    4    5 1   
     7    5    6 1   
     8    6   21 1   
     9    7    8 1   
    10    7    9 1   
    11   10   11 1   
    12   10   22 1   
    13   11   12 1   
    14   11   15 1   
    15   12   13 1   
    16   13   14 1   
    17   14   15 1   
    18   16   24 1   
    19   16   25 1   
    20   16   26 1   
@<TRIPOS>SUBSTRUCTURE
     1 2BI         1 TEMP              0 ****  ****    0 ROOT
