@<TRIPOS>MOLECULE
2BJ
   47    49     1     0     0
SMALL
bcc


@<TRIPOS>ATOM
      1 C1          2.1190   -0.3780   -0.1330 ca        1 2BJ     -0.150600
      2 N1          4.1900   -0.6110   -3.2810 no        1 2BJ      0.317200
      3 O1          3.4750   -0.0470   -4.0700 o         1 2BJ     -0.235500
      4 C2          2.9540   -1.0040    0.8000 ca        1 2BJ     -0.034600
      5 N2          0.6620    0.9440    1.3350 n         1 2BJ     -0.456100
      6 O2          5.2560   -1.0610   -3.6210 o         1 2BJ     -0.235500
      7 C3          4.1940   -1.5070    0.3690 ca        1 2BJ     -0.136000
      8 O3          2.6740   -0.1950    3.0330 o         1 2BJ     -0.798800
      9 C4          4.6110   -1.3850   -0.9460 ca        1 2BJ     -0.066000
     10 O4          2.3560   -2.3780    2.6530 o         1 2BJ     -0.798800
     11 C5          3.7600   -0.7510   -1.8740 ca        1 2BJ     -0.216200
     12 O5         -0.1960   -0.0240   -0.5890 o         1 2BJ     -0.617100
     13 C6          2.5110   -0.2590   -1.4740 ca        1 2BJ     -0.027000
     14 O6         -3.9410    2.6080    1.0130 os        1 2BJ     -0.260200
     15 C7          2.6210   -1.2110    2.2810 c         1 2BJ      0.906200
     16 C8          0.7610    0.1650    0.1910 c         1 2BJ      0.686700
     17 C9         -0.5300    1.4300    1.8870 ca        1 2BJ      0.100600
     18 C10        -0.5580    1.7220    3.2770 ca        1 2BJ     -0.178000
     19 C11        -1.6960    2.2600    3.8620 ca        1 2BJ     -0.103000
     20 C12        -2.8430    2.5120    3.1110 ca        1 2BJ     -0.178000
     21 C13        -4.5040    1.6670    0.1610 ca        1 2BJ      0.125100
     22 C14        -2.8140    2.2200    1.7430 ca        1 2BJ      0.105100
     23 C15        -1.6830    1.6890    1.1170 ca        1 2BJ     -0.193000
     24 C16        -5.4360    2.1890   -0.7520 ca        1 2BJ     -0.162000
     25 C17        -6.0950    1.3170   -1.6100 ca        1 2BJ     -0.107000
     26 C18        -5.8390   -0.0590   -1.5800 ca        1 2BJ     -0.118300
     27 C19        -6.5470   -0.9680   -2.5100 c3        1 2BJ     -0.041800
     28 C20        -4.9010   -0.5690   -0.6650 ca        1 2BJ     -0.040300
     29 C21        -4.6010   -2.0190   -0.6310 c3        1 2BJ     -0.054800
     30 C22        -4.2370    0.2960    0.2090 ca        1 2BJ     -0.171000
     31 HN2         1.4480    0.9140    1.9730 hn        1 2BJ      0.376500
     32 H3          4.8350   -2.0170    1.1060 ha        1 2BJ      0.157000
     33 H4          5.5880   -1.7770   -1.2700 ha        1 2BJ      0.153000
     34 H6          1.8280    0.2120   -2.2030 ha        1 2BJ      0.173000
     35 H10         0.3280    1.5050    3.8980 ha        1 2BJ      0.163000
     36 H11        -1.6970    2.4790    4.9400 ha        1 2BJ      0.126000
     37 H12        -3.7460    2.9350    3.5680 ha        1 2BJ      0.137000
     38 H15        -1.7090    1.4640    0.0380 ha        1 2BJ      0.180000
     39 H16        -5.6300    3.2690   -0.7750 ha        1 2BJ      0.141000
     40 H17        -6.8260    1.7180   -2.3280 ha        1 2BJ      0.123000
     41 H19        -5.8090   -1.5420   -3.1260 hc        1 2BJ      0.036367
     42 H19A       -7.1650   -1.7050   -1.9370 hc        1 2BJ      0.036367
     43 H19B       -7.2200   -0.4040   -3.1990 hc        1 2BJ      0.036367
     44 H21        -4.1530   -2.3400   -1.6050 hc        1 2BJ      0.046367
     45 H21A       -3.8800   -2.2680    0.1860 hc        1 2BJ      0.046367
     46 H21B       -5.5400   -2.6070   -0.4690 hc        1 2BJ      0.046367
     47 H22        -3.4940   -0.0990    0.9200 ha        1 2BJ      0.162000
@<TRIPOS>BOND
     1    1    4 ar  
     2    1   13 ar  
     3    1   16 1   
     4    2    3 1   
     5    2    6 1   
     6    2   11 1   
     7    4    7 ar  
     8    4   15 1   
     9    5   16 1   
    10    5   17 1   
    11    5   31 1   
    12    7    9 ar  
    13    7   32 1   
    14    8   15 1   
    15    9   11 ar  
    16    9   33 1   
    17   10   15 1   
    18   11   13 ar  
    19   12   16 2   
    20   13   34 1   
    21   14   21 1   
    22   14   22 1   
    23   17   18 ar  
    24   17   23 ar  
    25   18   19 ar  
    26   18   35 1   
    27   19   20 ar  
    28   19   36 1   
    29   20   22 ar  
    30   20   37 1   
    31   21   24 ar  
    32   21   30 ar  
    33   22   23 ar  
    34   23   38 1   
    35   24   25 ar  
    36   24   39 1   
    37   25   26 ar  
    38   25   40 1   
    39   26   27 1   
    40   26   28 ar  
    41   27   41 1   
    42   27   42 1   
    43   27   43 1   
    44   28   29 1   
    45   28   30 ar  
    46   29   44 1   
    47   29   45 1   
    48   29   46 1   
    49   30   47 1   
@<TRIPOS>SUBSTRUCTURE
     1 2BJ         1 TEMP              0 ****  ****    0 ROOT
