@<TRIPOS>MOLECULE
2BJ
   47    49     1     0     0
SMALL
bcc


@<TRIPOS>ATOM
      1 C1         -0.4240    0.4020   -1.0580 ca        1 2BJ     -0.150600
      2 N1          0.8020    3.2330    1.1190 no        1 2BJ      0.317200
      3 O1          0.0310    4.1070    0.8160 o         1 2BJ     -0.235500
      4 C2          0.4470   -0.6310   -0.6920 ca        1 2BJ     -0.034600
      5 N2         -2.3010   -0.8620   -2.0080 n         1 2BJ     -0.456100
      6 O2          1.6700    3.4250    1.9340 o         1 2BJ     -0.235500
      7 C3          1.4410   -0.3720    0.2690 ca        1 2BJ     -0.136000
      8 O3         -0.5130   -2.8120   -0.8990 o         1 2BJ     -0.798800
      9 C4          1.5660    0.8710    0.8670 ca        1 2BJ     -0.066000
     10 O4          1.3570   -2.3670   -2.0480 o         1 2BJ     -0.798800
     11 C5          0.6820    1.9010    0.4890 ca        1 2BJ     -0.216200
     12 O5         -1.6850    1.1740   -2.9300 o         1 2BJ     -0.617100
     13 C6         -0.3040    1.6740   -0.4800 ca        1 2BJ     -0.027000
     14 O6         -5.7100    0.0820   -5.4050 os        1 2BJ     -0.260200
     15 C7          0.4240   -2.0480   -1.2730 c         1 2BJ      0.906200
     16 C8         -1.4970    0.2650   -2.0940 c         1 2BJ      0.686700
     17 C9         -3.2650   -1.2470   -2.9480 ca        1 2BJ      0.100600
     18 C10        -3.6090   -2.6230   -3.0340 ca        1 2BJ     -0.178000
     19 C11        -4.5990   -3.0490   -3.9080 ca        1 2BJ     -0.103000
     20 C12        -5.2680   -2.1480   -4.7350 ca        1 2BJ     -0.178000
     21 C13        -5.0490    1.0160   -6.1910 ca        1 2BJ      0.125100
     22 C14        -4.9250   -0.7940   -4.6510 ca        1 2BJ      0.105100
     23 C15        -3.9420   -0.3260   -3.7750 ca        1 2BJ     -0.193000
     24 C16        -5.8660    2.0450   -6.6900 ca        1 2BJ     -0.162000
     25 C17        -5.3060    2.9970   -7.5330 ca        1 2BJ     -0.107000
     26 C18        -3.9520    2.9470   -7.8830 ca        1 2BJ     -0.118300
     27 C19        -3.3750    3.9780   -8.7750 c3        1 2BJ     -0.041800
     28 C20        -3.1430    1.9160   -7.3740 ca        1 2BJ     -0.040300
     29 C21        -1.7030    1.8560   -7.7170 c3        1 2BJ     -0.054800
     30 C22        -3.6950    0.9460   -6.5320 ca        1 2BJ     -0.171000
     31 HN2        -1.9780   -1.6030   -1.3980 hn        1 2BJ      0.376500
     32 H3          2.1340   -1.1860    0.5350 ha        1 2BJ      0.157000
     33 H4          2.3450    1.0590    1.6230 ha        1 2BJ      0.153000
     34 H6         -0.9800    2.4860   -0.8010 ha        1 2BJ      0.173000
     35 H10        -3.0740   -3.3590   -2.4100 ha        1 2BJ      0.163000
     36 H11        -4.8510   -4.1190   -3.9590 ha        1 2BJ      0.126000
     37 H12        -6.0500   -2.4780   -5.4300 ha        1 2BJ      0.137000
     38 H15        -3.6970    0.7480   -3.7500 ha        1 2BJ      0.180000
     39 H16        -6.9270    2.0820   -6.4090 ha        1 2BJ      0.141000
     40 H17        -5.9400    3.8060   -7.9270 ha        1 2BJ      0.123000
     41 H19        -2.5170    4.4910   -8.2720 hc        1 2BJ      0.036367
     42 H19A       -4.1350    4.7490   -9.0530 hc        1 2BJ      0.036367
     43 H19B       -2.9910    3.5060   -9.7150 hc        1 2BJ      0.036367
     44 H21        -1.5680    1.8360   -8.8270 hc        1 2BJ      0.046367
     45 H21A       -1.2170    0.9480   -7.2810 hc        1 2BJ      0.046367
     46 H21B       -1.1780    2.7600   -7.3180 hc        1 2BJ      0.046367
     47 H22        -3.0610    0.1420   -6.1230 ha        1 2BJ      0.162000
@<TRIPOS>BOND
     1    1    4 ar  
     2    1   13 ar  
     3    1   16 1   
     4    2    3 1   
     5    2    6 1   
     6    2   11 1   
     7    4    7 ar  
     8    4   15 1   
     9    5   16 1   
    10    5   17 1   
    11    5   31 1   
    12    7    9 ar  
    13    7   32 1   
    14    8   15 1   
    15    9   11 ar  
    16    9   33 1   
    17   10   15 1   
    18   11   13 ar  
    19   12   16 2   
    20   13   34 1   
    21   14   21 1   
    22   14   22 1   
    23   17   18 ar  
    24   17   23 ar  
    25   18   19 ar  
    26   18   35 1   
    27   19   20 ar  
    28   19   36 1   
    29   20   22 ar  
    30   20   37 1   
    31   21   24 ar  
    32   21   30 ar  
    33   22   23 ar  
    34   23   38 1   
    35   24   25 ar  
    36   24   39 1   
    37   25   26 ar  
    38   25   40 1   
    39   26   27 1   
    40   26   28 ar  
    41   27   41 1   
    42   27   42 1   
    43   27   43 1   
    44   28   29 1   
    45   28   30 ar  
    46   29   44 1   
    47   29   45 1   
    48   29   46 1   
    49   30   47 1   
@<TRIPOS>SUBSTRUCTURE
     1 2BJ         1 TEMP              0 ****  ****    0 ROOT
