@<TRIPOS>MOLECULE
2BJ
   47    49     1     0     0
SMALL
bcc


@<TRIPOS>ATOM
      1 C1         -0.4310    0.4070   -1.0540 ca        1 2BJ     -0.150600
      2 N1          0.7600    3.2390    1.1410 no        1 2BJ      0.317200
      3 O1         -0.0180    4.1080    0.8400 o         1 2BJ     -0.235500
      4 C2          0.4490   -0.6190   -0.6900 ca        1 2BJ     -0.034600
      5 N2         -2.2920   -0.8700   -2.0150 n         1 2BJ     -0.456100
      6 O2          1.6230    3.4360    1.9600 o         1 2BJ     -0.235500
      7 C3          1.4360   -0.3550    0.2760 ca        1 2BJ     -0.136000
      8 O3         -0.4900   -2.8090   -0.9090 o         1 2BJ     -0.798800
      9 C4          1.5480    0.8860    0.8800 ca        1 2BJ     -0.066000
     10 O4          1.3790   -2.3410   -2.0500 o         1 2BJ     -0.798800
     11 C5          0.6550    1.9090    0.5050 ca        1 2BJ     -0.216200
     12 O5         -1.6930    1.1750   -2.9260 o         1 2BJ     -0.617100
     13 C6         -0.3250    1.6770   -0.4690 ca        1 2BJ     -0.027000
     14 O6         -5.6990    0.0570   -5.4200 os        1 2BJ     -0.260200
     15 C7          0.4410   -2.0340   -1.2770 c         1 2BJ      0.906200
     16 C8         -1.4990    0.2650   -2.0940 c         1 2BJ      0.686700
     17 C9         -3.2500   -1.2610   -2.9600 ca        1 2BJ      0.100600
     18 C10        -3.5820   -2.6390   -3.0530 ca        1 2BJ     -0.178000
     19 C11        -4.5650   -3.0700   -3.9320 ca        1 2BJ     -0.103000
     20 C12        -5.2400   -2.1710   -4.7570 ca        1 2BJ     -0.178000
     21 C13        -5.0440    1.0000   -6.1990 ca        1 2BJ      0.125100
     22 C14        -4.9090   -0.8150   -4.6660 ca        1 2BJ      0.105100
     23 C15        -3.9330   -0.3420   -3.7850 ca        1 2BJ     -0.193000
     24 C16        -5.8680    2.0250   -6.6940 ca        1 2BJ     -0.162000
     25 C17        -5.3140    2.9860   -7.5310 ca        1 2BJ     -0.107000
     26 C18        -3.9590    2.9500   -7.8770 ca        1 2BJ     -0.118300
     27 C19        -3.3880    3.9900   -8.7630 c3        1 2BJ     -0.041800
     28 C20        -3.1430    1.9230   -7.3720 ca        1 2BJ     -0.040300
     29 C21        -1.7010    1.8770   -7.7110 c3        1 2BJ     -0.054800
     30 C22        -3.6890    0.9440   -6.5360 ca        1 2BJ     -0.171000
     31 HN2        -1.9650   -1.6120   -1.4080 hn        1 2BJ      0.376500
     32 H3          2.1370   -1.1640    0.5410 ha        1 2BJ      0.157000
     33 H4          2.3220    1.0780    1.6410 ha        1 2BJ      0.153000
     34 H6         -1.0080    2.4850   -0.7880 ha        1 2BJ      0.173000
     35 H10        -3.0420   -3.3730   -2.4300 ha        1 2BJ      0.163000
     36 H11        -4.8070   -4.1420   -3.9880 ha        1 2BJ      0.126000
     37 H12        -6.0170   -2.5060   -5.4550 ha        1 2BJ      0.137000
     38 H15        -3.6970    0.7340   -3.7550 ha        1 2BJ      0.180000
     39 H16        -6.9300    2.0530   -6.4160 ha        1 2BJ      0.141000
     40 H17        -5.9540    3.7920   -7.9220 ha        1 2BJ      0.123000
     41 H19        -4.1530    4.7570   -9.0360 hc        1 2BJ      0.036367
     42 H19A       -2.5340    4.5050   -8.2560 hc        1 2BJ      0.036367
     43 H19B       -3.0010    3.5260   -9.7060 hc        1 2BJ      0.036367
     44 H21        -1.2100    0.9690   -7.2820 hc        1 2BJ      0.046367
     45 H21A       -1.1840    2.7820   -7.3030 hc        1 2BJ      0.046367
     46 H21B       -1.5630    1.8670   -8.8220 hc        1 2BJ      0.046367
     47 H22        -3.0500    0.1440   -6.1300 ha        1 2BJ      0.162000
@<TRIPOS>BOND
     1    1    4 ar  
     2    1   13 ar  
     3    1   16 1   
     4    2    3 1   
     5    2    6 1   
     6    2   11 1   
     7    4    7 ar  
     8    4   15 1   
     9    5   16 1   
    10    5   17 1   
    11    5   31 1   
    12    7    9 ar  
    13    7   32 1   
    14    8   15 1   
    15    9   11 ar  
    16    9   33 1   
    17   10   15 1   
    18   11   13 ar  
    19   12   16 2   
    20   13   34 1   
    21   14   21 1   
    22   14   22 1   
    23   17   18 ar  
    24   17   23 ar  
    25   18   19 ar  
    26   18   35 1   
    27   19   20 ar  
    28   19   36 1   
    29   20   22 ar  
    30   20   37 1   
    31   21   24 ar  
    32   21   30 ar  
    33   22   23 ar  
    34   23   38 1   
    35   24   25 ar  
    36   24   39 1   
    37   25   26 ar  
    38   25   40 1   
    39   26   27 1   
    40   26   28 ar  
    41   27   41 1   
    42   27   42 1   
    43   27   43 1   
    44   28   29 1   
    45   28   30 ar  
    46   29   44 1   
    47   29   45 1   
    48   29   46 1   
    49   30   47 1   
@<TRIPOS>SUBSTRUCTURE
     1 2BJ         1 TEMP              0 ****  ****    0 ROOT
