@<TRIPOS>MOLECULE
2BJ
   47    49     1     0     0
SMALL
bcc


@<TRIPOS>ATOM
      1 C1         -0.4380    0.4220   -1.0440 ca        1 2BJ     -0.150600
      2 N1          0.6640    3.2530    1.1990 no        1 2BJ      0.317200
      3 O1         -0.1370    4.1040    0.9060 o         1 2BJ     -0.235500
      4 C2          0.4680   -0.5850   -0.6910 ca        1 2BJ     -0.034600
      5 N2         -2.2600   -0.8920   -2.0330 ns        1 2BJ     -0.456100
      6 O2          1.5180    3.4620    2.0240 o         1 2BJ     -0.235500
      7 C3          1.4440   -0.3080    0.2830 ca        1 2BJ     -0.136000
      8 O3         -0.4090   -2.7960   -0.9470 o         1 2BJ     -0.798800
      9 C4          1.5180    0.9260    0.9070 ca        1 2BJ     -0.066000
     10 O4          1.4520   -2.2600   -2.0720 o         1 2BJ     -0.798800
     11 C5          0.5990    1.9310    0.5420 ca        1 2BJ     -0.216200
     12 O5         -1.7130    1.1830   -2.9110 o         1 2BJ     -0.617100
     13 C6         -0.3700    1.6850   -0.4400 ca        1 2BJ     -0.027000
     14 O6         -5.6740   -0.0110   -5.4410 os        1 2BJ     -0.260200
     15 C7          0.5020   -1.9900   -1.2990 c         1 2BJ      0.906200
     16 C8         -1.4980    0.2660   -2.0910 c         1 2BJ      0.686700
     17 C9         -3.2010   -1.2950   -2.9880 ca        1 2BJ      0.100600
     18 C10        -3.4940   -2.6810   -3.1020 ca        1 2BJ     -0.178000
     19 C11        -4.4600   -3.1260   -3.9930 ca        1 2BJ     -0.103000
     20 C12        -5.1560   -2.2350   -4.8080 ca        1 2BJ     -0.178000
     21 C13        -5.0410    0.9580   -6.2090 ca        1 2BJ      0.125100
     22 C14        -4.8640   -0.8710   -4.6970 ca        1 2BJ      0.105100
     23 C15        -3.9050   -0.3840   -3.8040 ca        1 2BJ     -0.193000
     24 C16        -5.8910    1.9630   -6.6990 ca        1 2BJ     -0.162000
     25 C17        -5.3600    2.9470   -7.5250 ca        1 2BJ     -0.107000
     26 C18        -4.0020    2.9520   -7.8630 ca        1 2BJ     -0.118300
     27 C19        -3.4550    4.0160   -8.7360 c3        1 2BJ     -0.041800
     28 C20        -3.1600    1.9430   -7.3620 ca        1 2BJ     -0.040300
     29 C21        -1.7160    1.9410   -7.6940 c3        1 2BJ     -0.054800
     30 C22        -3.6830    0.9420   -6.5390 ca        1 2BJ     -0.171000
     31 HN2        -1.9140   -1.6330   -1.4340 hn        1 2BJ      0.376500
     32 H3          2.1650   -1.1010    0.5390 ha        1 2BJ      0.157000
     33 H4          2.2830    1.1290    1.6730 ha        1 2BJ      0.153000
     34 H6         -1.0740    2.4780   -0.7500 ha        1 2BJ      0.173000
     35 H10        -2.9370   -3.4080   -2.4870 ha        1 2BJ      0.163000
     36 H11        -4.6730   -4.2040   -4.0650 ha        1 2BJ      0.126000
     37 H12        -5.9200   -2.5810   -5.5160 ha        1 2BJ      0.137000
     38 H15        -3.7000    0.6980   -3.7570 ha        1 2BJ      0.180000
     39 H16        -6.9550    1.9590   -6.4270 ha        1 2BJ      0.141000
     40 H17        -6.0190    3.7390   -7.9120 ha        1 2BJ      0.123000
     41 H19        -2.6220    4.5530   -8.2170 hc        1 2BJ      0.036367
     42 H19A       -4.2410    4.7620   -9.0100 hc        1 2BJ      0.036367
     43 H19B       -3.0450    3.5720   -9.6790 hc        1 2BJ      0.036367
     44 H21        -1.5710    1.9400   -8.8030 hc        1 2BJ      0.046033
     45 H21A       -1.2000    1.0460   -7.2650 hc        1 2BJ      0.046033
     46 H21B       -1.2270    2.8590   -7.2790 hc        1 2BJ      0.046033
     47 H22        -3.0230    0.1560   -6.1360 ha        1 2BJ      0.162000
@<TRIPOS>BOND
     1    1    4 ar  
     2    1   13 ar  
     3    1   16 1   
     4    2    3 1   
     5    2    6 1   
     6    2   11 1   
     7    4    7 ar  
     8    4   15 1   
     9    5   16 1   
    10    5   17 1   
    11    5   31 1   
    12    7    9 ar  
    13    7   32 1   
    14    8   15 1   
    15    9   11 ar  
    16    9   33 1   
    17   10   15 1   
    18   11   13 ar  
    19   12   16 2   
    20   13   34 1   
    21   14   21 1   
    22   14   22 1   
    23   17   18 ar  
    24   17   23 ar  
    25   18   19 ar  
    26   18   35 1   
    27   19   20 ar  
    28   19   36 1   
    29   20   22 ar  
    30   20   37 1   
    31   21   24 ar  
    32   21   30 ar  
    33   22   23 ar  
    34   23   38 1   
    35   24   25 ar  
    36   24   39 1   
    37   25   26 ar  
    38   25   40 1   
    39   26   27 1   
    40   26   28 ar  
    41   27   41 1   
    42   27   42 1   
    43   27   43 1   
    44   28   29 1   
    45   28   30 ar  
    46   29   44 1   
    47   29   45 1   
    48   29   46 1   
    49   30   47 1   
@<TRIPOS>SUBSTRUCTURE
     1 2BJ         1 TEMP              0 ****  ****    0 ROOT
