@<TRIPOS>MOLECULE
2BJ
   47    42     1     0     0
SMALL
bcc


@<TRIPOS>ATOM
      1 C1          3.6560   -0.4250    2.3530 c1        1 2BJ     -0.100000
      2 N1          6.1860   -2.1490    4.4710 n2        1 2BJ      0.417400
      3 O1          6.3450   -3.1900    3.8450 o         1 2BJ     -0.318200
      4 C2          3.2230    0.5630    3.2400 c1        1 2BJ     -0.660000
      5 N2          1.8090    0.2030    0.6780 n3        1 2BJ     -0.309000
      6 O2          6.8400   -1.9560    5.6570 o         1 2BJ     -0.318200
      7 C3          3.8360    0.7030    4.4830 c2        1 2BJ      0.036000
      8 O3          5.5280   -0.1190    3.2720 o         1 2BJ     -0.208000
      9 C4          4.8850   -0.1440    4.8430 c1        1 2BJ     -0.338000
     10 O4          4.0740   -1.4500    4.2420 o         1 2BJ     -0.208000
     11 C5          5.3190   -1.1320    3.9590 c1        1 2BJ      0.205000
     12 O5          3.3630   -1.4230    0.2030 o         1 2BJ     -0.412000
     13 C6          4.7040   -1.2730    2.7120 c2        1 2BJ      0.047000
     14 O6         -1.9010    1.2050   -2.3380 os        1 2BJ     -0.169000
     15 C7          4.3340   -0.3810    3.6100 c1        1 2BJ      0.115000
     16 C8          2.9310   -0.6260    1.0150 c1        1 2BJ      0.379000
     17 C9          1.1920    0.0920   -0.6240 c2        1 2BJ      0.138000
     18 C10         1.9230   -0.4110   -1.6980 c2        1 2BJ     -0.194000
     19 C11         1.3800   -0.3940   -2.9800 c1        1 2BJ     -0.091000
     20 C12         0.1060    0.1260   -3.1890 c1        1 2BJ     -0.198000
     21 C13        -2.7860    0.2160   -2.8370 c2        1 2BJ      0.076000
     22 C14        -0.6250    0.6280   -2.1170 c2        1 2BJ      0.077000
     23 C15        -0.0820    0.6110   -0.8340 c2        1 2BJ     -0.241000
     24 C16        -3.3180   -0.9310   -2.2580 c2        1 2BJ     -0.164000
     25 C17        -4.6570   -0.9640   -1.8810 c1        1 2BJ     -0.074000
     26 C18        -5.4650    0.1520   -2.0830 c2        1 2BJ     -0.104000
     27 C19        -6.9020    0.1540   -1.5700 c3        1 2BJ     -0.169000
     28 C20        -4.9320    1.3000   -2.6620 c1        1 2BJ     -0.074000
     29 C21        -5.8270    2.5140   -2.9170 c2        1 2BJ     -0.174000
     30 C22        -3.5930    1.3320   -3.0390 c2        1 2BJ     -0.164000
     31 HN2         1.4730    0.7900    1.2950 hn        1 2BJ      0.284000
     32 H3          3.5300    1.3990    5.1070 ha        1 2BJ      0.115000
     33 H4          5.3180   -0.0450    5.7210 ha        1 2BJ      0.143000
     34 H6          4.9690   -2.0060    2.1140 ha        1 2BJ      0.165000
     35 H10         2.8220   -0.7780   -1.5510 ha        1 2BJ      0.176000
     36 H11         1.8970   -0.7480   -3.7370 ha        1 2BJ      0.123000
     37 H12        -0.2670    0.1610   -4.0980 ha        1 2BJ      0.136000
     38 H15        -0.6000    0.9610   -0.0770 ha        1 2BJ      0.151000
     39 H16        -2.7490   -1.7180   -2.1160 ha        1 2BJ      0.150000
     40 H17        -5.0320   -1.7740   -1.4720 DU        1 2BJ      0.134000
     41 H19        -7.1190   -0.7300   -1.2020 hc        1 2BJ      0.077333
     42 H19A       -6.9980    0.8340   -0.8660 hc        1 2BJ      0.077333
     43 H19B       -7.5140    0.3600   -2.3100 hc        1 2BJ      0.077333
     44 H21        -5.3070    3.2160   -3.3670 ha        1 2BJ      0.079667
     45 H21A       -6.5820    2.2500   -3.4870 ha        1 2BJ      0.079667
     46 H21B       -6.1670    2.8560   -2.0610 ha        1 2BJ      0.079667
     47 H22        -3.2180    2.1410   -3.4520 ha        1 2BJ      0.150000
@<TRIPOS>BOND
     1    1    4 1   
     2    1   13 1   
     3    2    3 2   
     4    2    6 2   
     5    4    7 1   
     6    5   16 1   
     7    5   17 1   
     8    5   31 1   
     9    7    9 1   
    10    7   32 1   
    11    8   15 1   
    12    9   33 1   
    13   10   15 1   
    14   11   13 1   
    15   12   16 1   
    16   13   34 1   
    17   14   21 1   
    18   14   22 1   
    19   17   18 1   
    20   17   23 1   
    21   18   19 1   
    22   18   35 1   
    23   19   36 1   
    24   20   22 1   
    25   20   37 1   
    26   21   24 1   
    27   21   30 1   
    28   22   23 1   
    29   23   38 1   
    30   24   25 1   
    31   24   39 1   
    32   25   26 1   
    33   26   27 1   
    34   26   28 1   
    35   27   41 1   
    36   27   42 1   
    37   27   43 1   
    38   28   30 1   
    39   29   44 1   
    40   29   45 1   
    41   29   46 1   
    42   30   47 1   
@<TRIPOS>SUBSTRUCTURE
     1 2BJ         1 TEMP              0 ****  ****    0 ROOT
