@<TRIPOS>MOLECULE
2BK
   39    39     1     0     0
SMALL
bcc


@<TRIPOS>ATOM
      1 C           4.1440   -1.6420    1.1960 c         1 2BK      0.912600
      2 CG          4.8200   -1.2680   -1.8190 c3        1 2BK     -0.126100
      3 N1         -1.5410    3.2930    0.5320 nb        1 2BK     -0.685000
      4 C2         -0.1860    3.3830    0.5500 ca        1 2BK      0.285600
      5 C2A         0.4730    4.6990    0.7900 c3        1 2BK     -0.103400
      6 C3          0.6410    2.2500    0.3300 ca        1 2BK      0.038800
      7 O3          1.9890    2.5170    0.3200 oh        1 2BK     -0.545100
      8 C4          0.0590    0.9790    0.1170 ca        1 2BK     -0.157300
      9 C4A         0.8980   -0.2440   -0.1370 c3        1 2BK      0.203100
     10 C5         -1.3420    0.9000    0.0770 ca        1 2BK     -0.119600
     11 C5A        -2.1080   -0.3750   -0.1930 c3        1 2BK      0.238700
     12 C6         -2.0810    2.0950    0.2930 ca        1 2BK      0.366200
     13 P          -4.4690   -0.8750   -1.3260 p5        1 2BK      1.314900
     14 O1P        -4.9100   -2.1830   -0.7300 o         1 2BK     -0.930500
     15 O2P        -3.5080   -0.9870   -2.4830 o         1 2BK     -0.930500
     16 O3P        -5.5240    0.1910   -1.4440 o         1 2BK     -0.930500
     17 O4P        -3.4590   -0.2090   -0.0620 os        1 2BK     -0.567200
     18 N           2.1130   -0.3040    0.6620 n3        1 2BK     -0.842200
     19 CA          3.1810   -1.1070    0.0860 c3        1 2BK      0.032500
     20 CB          3.9360   -0.3240   -1.0180 c3        1 2BK      0.169100
     21 OB          4.6990    0.7550   -0.5110 oh        1 2BK     -0.641800
     22 O           3.6380   -2.3190    2.1310 o         1 2BK     -0.850300
     23 OT          5.3880   -1.4050    1.1060 o         1 2BK     -0.850300
     24 H1          4.1970   -2.0360   -2.3340 hc        1 2BK      0.030033
     25 H2          5.3920   -0.6920   -2.5850 hc        1 2BK      0.030033
     26 H3          5.5420   -1.7760   -1.1320 hc        1 2BK      0.030033
     27 H4          1.2240    4.5930    1.6120 hc        1 2BK      0.018700
     28 H5          1.0180    5.0140   -0.1340 hc        1 2BK      0.018700
     29 H6         -0.2570    5.4980    1.0660 hc        1 2BK      0.018700
     30 H7          2.4840    1.6780    0.2510 ho        1 2BK      0.465000
     31 H8          0.2600   -1.1640    0.0180 h1        1 2BK      0.045700
     32 H9          1.1790   -0.2300   -1.2320 h1        1 2BK      0.045700
     33 H10        -1.8470   -0.7370   -1.2350 h1        1 2BK      0.026700
     34 H11        -1.7320   -1.1300    0.5690 h1        1 2BK      0.026700
     35 H12        -3.1890    2.0310    0.2540 h4        1 2BK      0.073100
     36 H15         1.9120   -0.6270    1.5910 hn        1 2BK      0.387800
     37 H17         2.7640   -2.0340   -0.4160 h1        1 2BK      0.020700
     38 H18         3.2010    0.1740   -1.7160 h1        1 2BK      0.042700
     39 H19         5.1950    0.4200    0.2510 ho        1 2BK      0.437000
@<TRIPOS>BOND
     1    1   19 1   
     2    1   22 1   
     3    1   23 1   
     4    2   20 1   
     5    2   24 1   
     6    2   25 1   
     7    2   26 1   
     8    3    4 ar  
     9    3   12 ar  
    10    4    5 1   
    11    4    6 ar  
    12    5   27 1   
    13    5   28 1   
    14    5   29 1   
    15    6    7 1   
    16    6    8 ar  
    17    7   30 1   
    18    8    9 1   
    19    8   10 ar  
    20    9   18 1   
    21    9   31 1   
    22    9   32 1   
    23   10   11 1   
    24   10   12 ar  
    25   11   17 1   
    26   11   33 1   
    27   11   34 1   
    28   12   35 1   
    29   13   14 1   
    30   13   15 1   
    31   13   16 1   
    32   13   17 1   
    33   18   19 1   
    34   18   36 1   
    35   19   20 1   
    36   19   37 1   
    37   20   21 1   
    38   20   38 1   
    39   21   39 1   
@<TRIPOS>SUBSTRUCTURE
     1 2BK         1 TEMP              0 ****  ****    0 ROOT
