@<TRIPOS>MOLECULE
2BK
   40    40     1     0     0
SMALL
bcc


@<TRIPOS>ATOM
      1 C           0.4090    0.8070    1.4780 c         1 2BK      0.909600
      2 CG          1.4280   -1.9330    1.2490 c3        1 2BK     -0.124100
      3 N1          4.7270    4.7900   -3.1050 nb        1 2BK     -0.651000
      4 C2          4.7250    4.6650   -1.7440 ca        1 2BK      0.271600
      5 C2A         5.3090    5.7590   -0.9140 c3        1 2BK     -0.131400
      6 C3          4.1870    3.5240   -1.1180 ca        1 2BK      0.006800
      7 O3          4.1400    3.3600    0.2520 oh        1 2BK     -0.530100
      8 C4          3.6310    2.4770   -1.8930 ca        1 2BK     -0.206300
      9 C4A         3.1160    1.2420   -1.2360 c3        1 2BK      0.173100
     10 C5          3.6320    2.6120   -3.2840 ca        1 2BK     -0.060600
     11 C5A         3.0800    1.5710   -4.1990 c3        1 2BK      0.187700
     12 C6          4.2010    3.8060   -3.8280 ca        1 2BK      0.388200
     13 P           2.4210    0.5920   -6.4270 p5        1 2BK      1.306900
     14 O1P         3.3620   -0.4970   -5.9880 o         1 2BK     -0.919833
     15 O2P         2.4970    1.0680   -7.8440 o         1 2BK     -0.919833
     16 O3P         1.0730    0.5500   -5.7580 o         1 2BK     -0.919833
     17 O4P         3.1270    1.9430   -5.5170 os        1 2BK     -0.551200
     18 N           1.9800    1.5380   -0.3130 n4        1 2BK     -0.733000
     19 CA          1.2670    0.3420    0.2260 c3        1 2BK     -0.075500
     20 CB          2.2270   -0.7730    0.6840 c3        1 2BK      0.149100
     21 OB          3.1710   -0.2870    1.6220 oh        1 2BK     -0.628800
     22 O          -0.7670    0.3970    1.5460 o         1 2BK     -0.792300
     23 OT          1.0200    1.5430    2.3030 o         1 2BK     -0.792300
     24 H1          0.7460   -1.5850    2.0630 hc        1 2BK      0.050700
     25 H2          0.8110   -2.3970    0.4420 hc        1 2BK      0.050700
     26 H3          2.1280   -2.6970    1.6620 hc        1 2BK      0.050700
     27 H4          4.5410    6.1450   -0.1980 hc        1 2BK      0.033033
     28 H5          5.6620    6.6140   -1.5420 hc        1 2BK      0.033033
     29 H6          6.1810    5.3720   -0.3300 hc        1 2BK      0.033033
     30 H7          4.6650    4.0610    0.6610 ho        1 2BK      0.420000
     31 H8          3.9330    0.7750   -0.6120 hx        1 2BK      0.114700
     32 H9          2.7590    0.4970   -2.0080 hx        1 2BK      0.114700
     33 H10         3.6730    0.6100   -4.0620 h1        1 2BK      0.064200
     34 H11         2.0020    1.3570   -3.9090 h1        1 2BK      0.064200
     35 H12         4.1940    3.9060   -4.9360 h4        1 2BK      0.085100
     36 H15         2.3380    2.0650    0.5040 hn        1 2BK      0.454800
     37 H17         0.5870   -0.0610   -0.5740 hx        1 2BK      0.112700
     38 H18         2.8580   -1.1370   -0.1790 h1        1 2BK      0.071700
     39 H19         2.6780    0.1640    2.3270 ho        1 2BK      0.436000
     40 H21         1.2960    2.1240   -0.7980 hn        1 2BK      0.454800
@<TRIPOS>BOND
     1    1   19 1   
     2    1   22 1   
     3    1   23 1   
     4    2   20 1   
     5    2   24 1   
     6    2   25 1   
     7    2   26 1   
     8    3    4 ar  
     9    3   12 ar  
    10    4    5 1   
    11    4    6 ar  
    12    5   27 1   
    13    5   28 1   
    14    5   29 1   
    15    6    7 1   
    16    6    8 ar  
    17    7   30 1   
    18    8    9 1   
    19    8   10 ar  
    20    9   18 1   
    21    9   31 1   
    22    9   32 1   
    23   10   11 1   
    24   10   12 ar  
    25   11   17 1   
    26   11   33 1   
    27   11   34 1   
    28   12   35 1   
    29   13   14 1   
    30   13   15 1   
    31   13   16 1   
    32   13   17 1   
    33   18   19 1   
    34   18   36 1   
    35   18   40 1   
    36   19   20 1   
    37   19   37 1   
    38   20   21 1   
    39   20   38 1   
    40   21   39 1   
@<TRIPOS>SUBSTRUCTURE
     1 2BK         1 TEMP              0 ****  ****    0 ROOT
