@<TRIPOS>MOLECULE
2BK
   40    40     1     0     0
SMALL
bcc


@<TRIPOS>ATOM
      1 C           0.3900    0.7930    1.4530 c         1 2BK      0.909600
      2 CG          1.4320   -1.9400    1.2380 c3        1 2BK     -0.124100
      3 N1          4.7190    4.8050   -3.0920 nb        1 2BK     -0.651000
      4 C2          4.7050    4.6810   -1.7310 ca        1 2BK      0.271600
      5 C2A         5.2720    5.7810   -0.8970 c3        1 2BK     -0.131400
      6 C3          4.1700    3.5360   -1.1090 ca        1 2BK      0.006800
      7 O3          4.1110    3.3740    0.2610 oh        1 2BK     -0.530100
      8 C4          3.6310    2.4840   -1.8880 ca        1 2BK     -0.206300
      9 C4A         3.1190    1.2450   -1.2340 c3        1 2BK      0.173100
     10 C5          3.6430    2.6170   -3.2790 ca        1 2BK     -0.060600
     11 C5A         3.1090    1.5700   -4.1980 c3        1 2BK      0.187700
     12 C6          4.2080    3.8150   -3.8190 ca        1 2BK      0.388200
     13 P           2.4810    0.5830   -6.4310 p5        1 2BK      1.306900
     14 O1P         3.4270   -0.4970   -5.9810 o         1 2BK     -0.919833
     15 O2P         2.5680    1.0570   -7.8480 o         1 2BK     -0.919833
     16 O3P         1.1260    0.5310   -5.7760 o         1 2BK     -0.919833
     17 O4P         3.1670    1.9420   -5.5160 os        1 2BK     -0.551200
     18 N           1.9720    1.5340   -0.3230 n4        1 2BK     -0.733000
     19 CA          1.2640    0.3320    0.2100 c3        1 2BK     -0.075500
     20 CB          2.2280   -0.7740    0.6800 c3        1 2BK      0.149100
     21 OB          3.1590   -0.2790    1.6260 oh        1 2BK     -0.628800
     22 O          -0.7840    0.3720    1.5100 o         1 2BK     -0.792300
     23 OT          0.9860    1.5340    2.2840 o         1 2BK     -0.792300
     24 H1          2.1350   -2.6980    1.6600 hc        1 2BK      0.050700
     25 H2          0.8270   -2.4090    0.4260 hc        1 2BK      0.050700
     26 H3          0.7400   -1.5960    2.0450 hc        1 2BK      0.050700
     27 H4          4.4940    6.1620   -0.1890 hc        1 2BK      0.033033
     28 H5          5.6240    6.6370   -1.5230 hc        1 2BK      0.033033
     29 H6          6.1420    5.4020   -0.3040 hc        1 2BK      0.033033
     30 H7          4.6270    4.0790    0.6740 ho        1 2BK      0.420000
     31 H8          3.9330    0.7860   -0.6010 hx        1 2BK      0.114700
     32 H9          2.7760    0.4970   -2.0090 hx        1 2BK      0.114700
     33 H10         2.0300    1.3490   -3.9190 h1        1 2BK      0.064200
     34 H11         3.7090    0.6150   -4.0530 h1        1 2BK      0.064200
     35 H12         4.2120    3.9130   -4.9270 h4        1 2BK      0.085100
     36 H15         1.2870    2.1140   -0.8150 hn        1 2BK      0.454800
     37 H17         0.5940   -0.0770   -0.5950 hx        1 2BK      0.112700
     38 H18         2.8700   -1.1340   -0.1760 h1        1 2BK      0.071700
     39 H19         2.6550    0.1690    2.3260 ho        1 2BK      0.436000
     40 H21         2.3170    2.0640    0.4970 hn        1 2BK      0.454800
@<TRIPOS>BOND
     1    1   19 1   
     2    1   22 1   
     3    1   23 1   
     4    2   20 1   
     5    2   24 1   
     6    2   25 1   
     7    2   26 1   
     8    3    4 ar  
     9    3   12 ar  
    10    4    5 1   
    11    4    6 ar  
    12    5   27 1   
    13    5   28 1   
    14    5   29 1   
    15    6    7 1   
    16    6    8 ar  
    17    7   30 1   
    18    8    9 1   
    19    8   10 ar  
    20    9   18 1   
    21    9   31 1   
    22    9   32 1   
    23   10   11 1   
    24   10   12 ar  
    25   11   17 1   
    26   11   33 1   
    27   11   34 1   
    28   12   35 1   
    29   13   14 1   
    30   13   15 1   
    31   13   16 1   
    32   13   17 1   
    33   18   19 1   
    34   18   36 1   
    35   18   40 1   
    36   19   20 1   
    37   19   37 1   
    38   20   21 1   
    39   20   38 1   
    40   21   39 1   
@<TRIPOS>SUBSTRUCTURE
     1 2BK         1 TEMP              0 ****  ****    0 ROOT
