@<TRIPOS>MOLECULE
2BK
   40    40     1     0     0
SMALL
bcc


@<TRIPOS>ATOM
      1 C           0.3880    0.8080    1.4560 c         1 2BK      0.909600
      2 CG          1.4230   -1.9280    1.2500 c3        1 2BK     -0.124100
      3 N1          4.7270    4.7940   -3.1030 nb        1 2BK     -0.651000
      4 C2          4.7130    4.6750   -1.7410 ca        1 2BK      0.271600
      5 C2A         5.2830    5.7760   -0.9110 c3        1 2BK     -0.131400
      6 C3          4.1750    3.5340   -1.1150 ca        1 2BK      0.006800
      7 O3          4.1160    3.3760    0.2560 oh        1 2BK     -0.530100
      8 C4          3.6330    2.4800   -1.8900 ca        1 2BK     -0.206300
      9 C4A         3.1180    1.2450   -1.2320 c3        1 2BK      0.173100
     10 C5          3.6460    2.6090   -3.2820 ca        1 2BK     -0.060600
     11 C5A         3.1090    1.5600   -4.1980 c3        1 2BK      0.187700
     12 C6          4.2140    3.8040   -3.8260 ca        1 2BK      0.388200
     13 P           2.4770    0.5680   -6.4280 p5        1 2BK      1.306900
     14 O1P         3.4210   -0.5140   -5.9740 o         1 2BK     -0.919833
     15 O2P         2.5650    1.0370   -7.8460 o         1 2BK     -0.919833
     16 O3P         1.1230    0.5220   -5.7720 o         1 2BK     -0.919833
     17 O4P         3.1680    1.9270   -5.5170 os        1 2BK     -0.551200
     18 N           1.9720    1.5400   -0.3230 ny        1 2BK     -0.733000
     19 CA          1.2600    0.3420    0.2150 c3        1 2BK     -0.075500
     20 CB          2.2210   -0.7660    0.6880 c3        1 2BK      0.149100
     21 OB          3.1540   -0.2700    1.6330 oh        1 2BK     -0.628800
     22 O          -0.7870    0.3910    1.5140 o         1 2BK     -0.792300
     23 OT          0.9860    1.5500    2.2840 o         1 2BK     -0.792300
     24 H1          2.1230   -2.6860    1.6730 hc        1 2BK      0.050700
     25 H2          0.8170   -2.3980    0.4390 hc        1 2BK      0.050700
     26 H3          0.7310   -1.5790    2.0550 hc        1 2BK      0.050700
     27 H4          4.5060    6.1610   -0.2040 hc        1 2BK      0.033033
     28 H5          5.6370    6.6300   -1.5390 hc        1 2BK      0.033033
     29 H6          6.1510    5.3970   -0.3160 hc        1 2BK      0.033033
     30 H7          4.6330    4.0820    0.6660 ho        1 2BK      0.420000
     31 H8          3.9310    0.7850   -0.5990 hx        1 2BK      0.114700
     32 H9          2.7730    0.4950   -2.0050 hx        1 2BK      0.114700
     33 H10         3.7060    0.6040   -4.0500 h1        1 2BK      0.064200
     34 H11         2.0290    1.3420   -3.9180 h1        1 2BK      0.064200
     35 H12         4.2180    3.8980   -4.9350 h4        1 2BK      0.085100
     36 H15         1.2890    2.1200   -0.8170 hn        1 2BK      0.454800
     37 H17         0.5900   -0.0690   -0.5900 hx        1 2BK      0.112700
     38 H18         2.8620   -1.1300   -0.1680 h1        1 2BK      0.071700
     39 H19         2.6510    0.1810    2.3310 ho        1 2BK      0.436000
     40 H21         2.3190    2.0720    0.4960 hn        1 2BK      0.454800
@<TRIPOS>BOND
     1    1   19 1   
     2    1   22 1   
     3    1   23 1   
     4    2   20 1   
     5    2   24 1   
     6    2   25 1   
     7    2   26 1   
     8    3    4 ar  
     9    3   12 ar  
    10    4    5 1   
    11    4    6 ar  
    12    5   27 1   
    13    5   28 1   
    14    5   29 1   
    15    6    7 1   
    16    6    8 ar  
    17    7   30 1   
    18    8    9 1   
    19    8   10 ar  
    20    9   18 1   
    21    9   31 1   
    22    9   32 1   
    23   10   11 1   
    24   10   12 ar  
    25   11   17 1   
    26   11   33 1   
    27   11   34 1   
    28   12   35 1   
    29   13   14 1   
    30   13   15 1   
    31   13   16 1   
    32   13   17 1   
    33   18   19 1   
    34   18   36 1   
    35   18   40 1   
    36   19   20 1   
    37   19   37 1   
    38   20   21 1   
    39   20   38 1   
    40   21   39 1   
@<TRIPOS>SUBSTRUCTURE
     1 2BK         1 TEMP              0 ****  ****    0 ROOT
