@<TRIPOS>MOLECULE
2BK
   39    32     1     0     0
SMALL
bcc


@<TRIPOS>ATOM
      1 C          -2.4260   -1.3510    1.8860 c1        1 2BK      0.332000
      2 CG         -0.5220   -2.6750    3.9610 c3        1 2BK     -0.244000
      3 N1          1.7360    2.7740   -2.0900 n1        1 2BK     -0.159000
      4 C2          2.1540    2.4910   -0.8250 c1        1 2BK     -0.137000
      5 C2A         3.2460    3.3210   -0.1850 c2        1 2BK     -0.127000
      6 C3          1.6130    1.4130   -0.1400 c1        1 2BK      0.059000
      7 O3          2.0740    1.0960    1.1520 o         1 2BK     -0.299000
      8 C4          0.6620    0.6360   -0.7350 c1        1 2BK     -0.150000
      9 C4A         0.1210   -0.5810   -0.0160 c2        1 2BK     -0.041000
     10 C5          0.2440    0.9210   -2.0030 c1        1 2BK     -0.047000
     11 C5A        -0.7550    0.0160   -2.6910 c2        1 2BK      0.081000
     12 C6          0.7870    1.9980   -2.6850 c2        1 2BK     -0.099000
     13 P          -1.6320   -0.5580   -5.0400 p3        1 2BK      2.507000
     14 O1P        -0.9730   -1.9150   -4.9730 o         1 2BK     -1.252500
     15 O2P        -1.5180   -0.0120   -6.4430 os        1 2BK     -0.904000
     16 O3P        -3.0900   -0.6880   -4.6670 o         1 2BK     -1.252500
     17 O4P        -0.9150    0.4260   -4.0300 os        1 2BK     -0.729000
     18 N          -0.4360   -0.1860    1.2360 n3        1 2BK     -0.321000
     19 CA         -0.9140   -1.3330    1.9260 c3        1 2BK     -0.115000
     20 CB         -0.4490   -1.2870    3.3630 c3        1 2BK      0.058000
     21 OB         -1.2760   -0.4160    4.0960 oh        1 2BK     -0.369000
     22 O          -3.0330   -2.3860    1.5040 os        1 2BK     -0.904000
     23 OT         -3.0770   -0.3390    2.2550 o         1 2BK     -0.607000
     24 H1         -0.1760   -3.3270    3.3160 hc        1 2BK      0.069333
     25 H2         -1.4540   -2.8890    4.1750 hc        1 2BK      0.069333
     26 H3          0.0170   -2.7070    4.7790 hc        1 2BK      0.069333
     27 H4          2.9060    3.7280    0.6390 ha        1 2BK      0.058000
     28 H5          3.5260    4.0260   -0.8070 ha        1 2BK      0.058000
     29 H6          4.0120    2.7470    0.0250 ha        1 2BK      0.058000
     30 H7          2.9130    0.8020    1.1030 ho        1 2BK      0.264000
     31 H8          0.8480   -1.2190    0.1380 h4        1 2BK      0.085000
     32 H9         -0.5720   -1.0030   -0.5630 h4        1 2BK      0.085000
     33 H10        -0.4280   -0.9070   -2.6700 h4        1 2BK      0.066000
     34 H11        -1.6160    0.0680   -2.2280 h4        1 2BK      0.066000
     35 H12         0.4880    2.2020   -3.5920 h4        1 2BK      0.210000
     36 H15        -1.1290    0.3950    1.0910 hn        1 2BK      0.183000
     37 H17        -0.5680   -2.1390    1.4960 h1        1 2BK      0.060000
     38 H18         0.4740   -0.9660    3.3960 h1        1 2BK      0.082000
     39 H19        -0.8620   -0.1770    4.8470 ho        1 2BK      0.236000
@<TRIPOS>BOND
     1    1   19 1   
     2    1   23 1   
     3    2   20 1   
     4    2   24 1   
     5    2   25 1   
     6    2   26 1   
     7    3   12 1   
     8    4    6 1   
     9    5   27 1   
    10    5   28 1   
    11    5   29 1   
    12    6    8 1   
    13    7   30 1   
    14    8   10 1   
    15    9   18 1   
    16    9   31 1   
    17    9   32 1   
    18   10   12 1   
    19   11   17 1   
    20   11   33 1   
    21   11   34 1   
    22   12   35 1   
    23   13   14 1   
    24   13   16 1   
    25   13   17 1   
    26   18   19 1   
    27   18   36 1   
    28   19   20 1   
    29   19   37 1   
    30   20   21 1   
    31   20   38 1   
    32   21   39 1   
@<TRIPOS>SUBSTRUCTURE
     1 2BK         1 TEMP              0 ****  ****    0 ROOT
