@<TRIPOS>MOLECULE
2BL
   36    36     1     0     0
SMALL
bcc


@<TRIPOS>ATOM
      1 C1         -3.4510   -0.6020   -0.9390 c         1 2BL      0.929600
      2 C2         -2.8600   -0.3450    0.4680 c3        1 2BL     -0.163700
      3 C3         -1.3280   -0.2830    0.6230 c3        1 2BL      0.139500
      4 C4         -0.7440   -1.6940    0.9700 c         1 2BL      0.893600
      5 C5         -3.4880    0.9400    1.0000 c3        1 2BL     -0.063400
      6 C6         -4.9480    0.7510    1.3310 c3        1 2BL     -0.093100
      7 C7          1.9740    0.5780   -0.2210 ca        1 2BL     -0.314500
      8 C8          3.0310    0.8960   -1.0810 ca        1 2BL     -0.018500
      9 C9          2.1860   -0.3880    0.7650 ca        1 2BL     -0.018500
     10 C10         4.2730    0.2830   -0.9560 ca        1 2BL     -0.170500
     11 C11         3.4300   -1.0100    0.8970 ca        1 2BL     -0.170500
     12 C12         4.4820   -0.6800    0.0400 ca        1 2BL     -0.066300
     13 C13         5.7940   -1.3560    0.1640 c3        1 2BL     -0.043800
     14 O1         -0.6210   -2.5910    0.1000 o         1 2BL     -0.845800
     15 O2         -0.3550   -1.8340    2.1750 o         1 2BL     -0.845800
     16 O3          0.3850    2.2630    0.7720 o         1 2BL     -0.698300
     17 O4          0.6120    2.1900   -1.5880 o         1 2BL     -0.698300
     18 N1         -0.6420    0.3500   -0.4870 n3        1 2BL     -0.918100
     19 HA         -3.1920   -1.2050    1.1150 hc        1 2BL      0.063700
     20 HB         -1.1090    0.3550    1.5400 h1        1 2BL      0.030700
     21 HD1        -2.9470    1.2880    1.9200 hc        1 2BL      0.022200
     22 HD2        -3.3780    1.7420    0.2240 hc        1 2BL      0.022200
     23 HE1        -5.4390    1.7340    1.5300 hc        1 2BL      0.021700
     24 HE2        -5.4650    0.2420    0.4780 hc        1 2BL      0.021700
     25 HE3        -5.0640    0.1120    2.2400 hc        1 2BL      0.021700
     26 HG1         2.8670    1.6460   -1.8750 ha        1 2BL      0.179000
     27 HG2         1.3580   -0.6960    1.4440 ha        1 2BL      0.179000
     28 HH1         5.0900    0.5470   -1.6410 ha        1 2BL      0.116000
     29 HH2         3.5680   -1.7770    1.6730 ha        1 2BL      0.116000
     30 HJ1         6.6240   -0.6900   -0.1780 hc        1 2BL      0.027367
     31 HJ2         5.9930   -1.6540    1.2220 hc        1 2BL      0.027367
     32 HJ3         5.8060   -2.2810   -0.4670 hc        1 2BL      0.027367
     33 O5         -2.9400   -0.0790   -1.9760 o         1 2BL     -0.863300
     34 O6         -4.5160   -1.2890   -0.9970 o         1 2BL     -0.863300
     35 H16        -1.0280    0.0300   -1.3660 hn        1 2BL      0.518800
     36 S1          0.4750    1.4270   -0.3810 sy        1 2BL      1.497200
@<TRIPOS>BOND
     1    1    2 1   
     2    1   33 1   
     3    1   34 1   
     4    2    3 1   
     5    2    5 1   
     6    2   19 1   
     7    3    4 1   
     8    3   18 1   
     9    3   20 1   
    10    4   14 1   
    11    4   15 1   
    12    5    6 1   
    13    5   21 1   
    14    5   22 1   
    15    6   23 1   
    16    6   24 1   
    17    6   25 1   
    18    7    8 ar  
    19    7    9 ar  
    20    7   36 1   
    21    8   10 ar  
    22    8   26 1   
    23    9   11 ar  
    24    9   27 1   
    25   10   12 ar  
    26   10   28 1   
    27   11   12 ar  
    28   11   29 1   
    29   12   13 1   
    30   13   30 1   
    31   13   31 1   
    32   13   32 1   
    33   16   36 2   
    34   17   36 2   
    35   18   35 1   
    36   18   36 1   
@<TRIPOS>SUBSTRUCTURE
     1 2BL         1 TEMP              0 ****  ****    0 ROOT
