@<TRIPOS>MOLECULE
2BL
   36    34     1     0     0
SMALL
bcc


@<TRIPOS>ATOM
      1 C1       -318.2550 -178.0650 -396.6690 c2        1 2BL      0.281000
      2 C2        126.6590   66.4170  153.2870 c2        1 2BL     -0.316000
      3 C3        126.6980   66.5030  154.6330 c2        1 2BL     -0.007000
      4 C4        127.9860   67.0150  155.3060 c2        1 2BL      0.372000
      5 C5       -320.9150 -177.3480 -398.8660 c3        1 2BL     -0.346000
      6 C6       -320.8690 -176.2930 -399.8160 c1        1 2BL     -0.124000
      7 C7        125.3210   67.5610  157.6740 c2        1 2BL     -0.833000
      8 C8        124.1140   68.3370  157.4770 c2        1 2BL     -0.032000
      9 C9        126.3340   68.1020  158.3880 c2        1 2BL      0.094000
     10 C10       123.9700   69.5720  157.9950 c2        1 2BL     -0.180000
     11 C11       126.3060   69.4770  158.9340 c3        1 2BL     -0.138000
     12 C12       125.0160   70.2120  158.7750 c2        1 2BL     -0.033000
     13 C13       124.8450   71.4220  159.3300 c2        1 2BL     -0.270000
     14 O1        127.9500   67.2130  156.5560 o         1 2BL     -0.563000
     15 O2        128.9850   67.2250  154.5760 o         1 2BL     -0.563000
     16 O3        126.3290   65.2150  157.7040 o         1 2BL     -0.957500
     17 O4        124.0600   65.4740  157.1350 o         1 2BL     -0.957500
     18 N1        125.5900   66.1610  155.4240 n3        1 2BL     -0.811000
     19 HA       -318.6220 -178.8610 -397.3860 h5        1 2BL     -0.044000
     20 HB        125.7890   66.0830  152.7130 ha        1 2BL      0.109500
     21 HD1      -320.4610 -178.3280 -399.1610 hc        1 2BL      0.138667
     22 HD2       127.5510   66.6900  152.7090 ha        1 2BL      0.109500
     23 HE1      -320.0180 -176.3090 -400.5180 ha        1 2BL      0.016000
     24 HE2      -321.9360 -177.5200 -398.4500 hc        1 2BL      0.138667
     25 HE3      -320.2530 -176.9630 -397.9880 hc        1 2BL      0.138667
     26 HG1       123.3030   67.8590  156.9020 ha        1 2BL      0.137000
     27 HG2       127.2680   67.5280  158.5690 ha        1 2BL      0.193000
     28 HH1       123.0420   70.1450  157.8490 ha        1 2BL      0.117000
     29 HH2       127.1220   70.0530  158.4040 hc        1 2BL      0.116000
     30 HJ1       126.5860   69.4430  160.0240 hc        1 2BL      0.116000
     31 HJ2       123.9150   71.9910  159.2200 ha        1 2BL      0.103000
     32 HJ3       125.6290   71.9080  159.9220 ha        1 2BL      0.103000
     33 O5       -317.3080 -178.3440 -395.8850 o         1 2BL     -0.600000
     34 O6       -318.8290 -176.9300 -396.7050 o         1 2BL     -0.600000
     35 H16       124.7790   65.9670  154.8720 hn        1 2BL      0.224000
     36 S1        125.3910   66.0070  157.0240 s6        1 2BL      2.870000
@<TRIPOS>BOND
     1    1   19 1   
     2    1   33 1   
     3    1   34 1   
     4    2    3 1   
     5    2   20 1   
     6    2   22 1   
     7    3    4 1   
     8    3   18 1   
     9    4   14 1   
    10    4   15 1   
    11    5    6 1   
    12    5   21 1   
    13    5   24 1   
    14    5   25 1   
    15    6   23 1   
    16    7    8 1   
    17    7    9 1   
    18    7   36 1   
    19    8   10 1   
    20    8   26 1   
    21    9   11 1   
    22    9   27 1   
    23   10   12 1   
    24   10   28 1   
    25   11   12 1   
    26   11   29 1   
    27   11   30 1   
    28   12   13 1   
    29   13   31 1   
    30   13   32 1   
    31   16   36 1   
    32   17   36 1   
    33   18   35 1   
    34   18   36 1   
@<TRIPOS>SUBSTRUCTURE
     1 2BL         1 TEMP              0 ****  ****    0 ROOT
