@<TRIPOS>MOLECULE
2BL
   36    31     1     0     0
SMALL
bcc


@<TRIPOS>ATOM
      1 C1          0.8110   -0.1570   -3.2310 c1        1 2BL      0.326000
      2 C2          0.5030    1.2180   -2.7700 c2        1 2BL     -0.159000
      3 C3          0.8340    1.3390   -1.2780 c3        1 2BL      0.001000
      4 C4          0.2990    2.6280   -0.7530 c2        1 2BL      0.312000
      5 C5          1.3400    2.2130   -3.5570 c3        1 2BL     -0.147000
      6 C6          0.5860    2.6180   -4.8420 c3        1 2BL     -0.196000
      7 C7          0.0430   -1.1770    1.8760 c1        1 2BL     -0.757000
      8 C8         -0.7960   -2.2510    1.6260 c1        1 2BL     -0.111500
      9 C9          0.1190   -0.6330    3.1630 c1        1 2BL     -0.012000
     10 C10        -1.5700   -2.7950    2.6640 c1        1 2BL     -0.111500
     11 C11        -0.6480   -1.1720    4.1920 c1        1 2BL     -0.164000
     12 C12        -1.4950   -2.2580    3.9390 c1        1 2BL     -0.061000
     13 C13        -2.4160   -2.8100    5.0720 c3        1 2BL     -0.169000
     14 O1         -0.9350    2.7380   -0.4820 o         1 2BL     -0.586000
     15 O2          1.0650    3.6300   -0.6320 o         1 2BL     -0.586000
     16 O3          2.1730    0.2510    1.1260 o         1 2BL     -0.577400
     17 O4          1.8780   -1.6440    0.0000 o         1 2BL     -0.577400
     18 S1          1.1210   -0.5750    0.5870 s4        1 2BL      2.059800
     19 N1          0.2380    0.2470   -0.5670 n2        1 2BL     -0.891000
     20 HA         -0.4450    1.4040   -2.9110 ha        1 2BL      0.095000
     21 HB          1.8220    1.3160   -1.1550 h1        1 2BL      0.084000
     22 HD1         2.1940    1.8020   -3.7960 hc        1 2BL      0.088000
     23 HD2         1.5000    2.9950   -3.0190 hc        1 2BL      0.088000
     24 HE1        -0.3690    2.7100   -4.6460 hc        1 2BL      0.051667
     25 HE2         0.7140    1.9280   -5.5270 hc        1 2BL      0.051667
     26 HE3         0.9400    3.4800   -5.1720 hc        1 2BL      0.051667
     27 HG1        -0.9040   -2.5850    0.7100 ha        1 2BL      0.125500
     28 HG2         0.7100    0.1220    3.3400 ha        1 2BL      0.229000
     29 HH1        -2.1610   -3.5520    2.4860 ha        1 2BL      0.125500
     30 HH2        -0.5580   -0.8220    5.1060 ha        1 2BL      0.124000
     31 HJ1        -3.3250   -2.9570    4.7150 hc        1 2BL      0.066333
     32 HJ2        -2.4550   -2.1540    5.8170 hc        1 2BL      0.066333
     33 HJ3        -2.0500   -3.6650    5.4060 hc        1 2BL      0.066333
     34 O5         -0.1150   -0.9750   -3.4250 o         1 2BL     -0.600000
     35 O6          2.0070   -0.5140   -3.3840 o         1 2BL     -0.600000
     36 H16        -0.6570    0.0590   -0.6800 hn        1 2BL      0.296000
@<TRIPOS>BOND
     1    1   34 1   
     2    1   35 1   
     3    2    3 1   
     4    2    5 1   
     5    2   20 1   
     6    3    4 1   
     7    3   19 1   
     8    3   21 1   
     9    4   14 1   
    10    4   15 1   
    11    5    6 1   
    12    5   22 1   
    13    5   23 1   
    14    6   24 1   
    15    6   25 1   
    16    6   26 1   
    17    7    9 1   
    18    7   18 1   
    19    8   10 1   
    20    8   27 1   
    21    9   28 1   
    22   10   29 1   
    23   11   12 1   
    24   11   30 1   
    25   12   13 1   
    26   13   31 1   
    27   13   32 1   
    28   13   33 1   
    29   16   18 1   
    30   17   18 1   
    31   19   36 1   
@<TRIPOS>SUBSTRUCTURE
     1 2BL         1 TEMP              0 ****  ****    0 ROOT
