@<TRIPOS>MOLECULE
2BM
    5     4     1     0     0
SMALL
bcc


@<TRIPOS>ATOM
      1 C          -0.1250   -0.0000   -0.1760 c3        1 2BM      0.009400
      2 BR1         1.7870   -0.0000   -0.1760 br        1 2BM     -0.108400
      3 BR2        -0.7620   -0.0000    1.6260 br        1 2BM     -0.108400
      4 H1         -0.4500    0.7970   -0.6370 h2        1 2BM      0.103700
      5 H2         -0.4500   -0.7970   -0.6370 h2        1 2BM      0.103700
@<TRIPOS>BOND
     1    1    2 1   
     2    1    3 1   
     3    1    4 1   
     4    1    5 1   
@<TRIPOS>SUBSTRUCTURE
     1 2BM         1 TEMP              0 ****  ****    0 ROOT
