@<TRIPOS>MOLECULE
2BM
    5     4     1     0     0
SMALL
bcc


@<TRIPOS>ATOM
      1 C          -0.9960    0.0000   -0.0000 c3        1 2BM      0.009400
      2 BR1         0.0440   -0.0000   -1.5910 br        1 2BM     -0.108400
      3 BR2         0.0440   -0.0000    1.5910 br        1 2BM     -0.108400
      4 H1         -1.6310    0.9110    0.0000 h2        1 2BM      0.103700
      5 H2         -1.6310   -0.9110    0.0000 h2        1 2BM      0.103700
@<TRIPOS>BOND
     1    1    2 1   
     2    1    3 1   
     3    1    4 1   
     4    1    5 1   
@<TRIPOS>SUBSTRUCTURE
     1 2BM         1 TEMP              0 ****  ****    0 ROOT
