@<TRIPOS>MOLECULE
2BN
   27    28     1     0     0
SMALL
bcc


@<TRIPOS>ATOM
      1 C2          0.0100   -0.0040    0.0020 c3        1 2BN      0.162200
      2 N3          1.5040   -0.0360   -0.0480 n3        1 2BN     -0.782200
      3 C4          1.9180    0.0700    1.3650 c3        1 2BN      0.139800
      4 C5          0.5970    0.1000    2.1920 c3        1 2BN     -0.086700
      5 C6         -0.0150    1.4900    1.9280 c3        1 2BN     -0.083400
      6 C7         -0.4460    1.4250    0.4520 c3        1 2BN     -0.113400
      7 C8         -0.3090   -0.8320    1.3220 c3        1 2BN     -0.049000
      8 C9          0.1520   -2.2720    1.2780 c3        1 2BN     -0.079600
      9 C10        -1.7680   -0.8300    1.7180 c3        1 2BN     -0.079600
     10 C11        -0.6660   -0.4790   -1.2550 c3        1 2BN     -0.068100
     11 HN3         1.8380    0.7450   -0.5790 hn        1 2BN      0.347800
     12 HC41        2.5300   -0.8350    1.6200 h1        1 2BN      0.043700
     13 HC42        2.5380    0.9810    1.5710 h1        1 2BN      0.043700
     14 HC5         0.7080   -0.1780    3.2530 hc        1 2BN      0.073700
     15 HC61       -0.8840    1.6810    2.6020 hc        1 2BN      0.043700
     16 HC62        0.7340    2.2990    2.1010 hc        1 2BN      0.043700
     17 HC71        0.0420    2.2230   -0.1560 hc        1 2BN      0.046200
     18 HC72       -1.5490    1.5360    0.3360 hc        1 2BN      0.046200
     19 HC91        1.2160   -2.3820    0.9630 hc        1 2BN      0.037367
     20 HC92        0.0400   -2.7320    2.2910 hc        1 2BN      0.037367
     21 HC93       -0.4800   -2.8450    0.5550 hc        1 2BN      0.037367
     22 H101       -1.8890   -1.3540    2.6990 hc        1 2BN      0.037367
     23 H102       -2.3680   -1.3760    0.9490 hc        1 2BN      0.037367
     24 H103       -2.1920    0.1950    1.8240 hc        1 2BN      0.037367
     25 H111       -1.7730   -0.4610   -1.1080 hc        1 2BN      0.041367
     26 H112       -0.3530   -1.5240   -1.5000 hc        1 2BN      0.041367
     27 H113       -0.4080    0.1820   -2.1170 hc        1 2BN      0.041367
@<TRIPOS>BOND
     1    1    2 1   
     2    1    6 1   
     3    1    7 1   
     4    1   10 1   
     5    2    3 1   
     6    2   11 1   
     7    3    4 1   
     8    3   12 1   
     9    3   13 1   
    10    4    5 1   
    11    4    7 1   
    12    4   14 1   
    13    5    6 1   
    14    5   15 1   
    15    5   16 1   
    16    6   17 1   
    17    6   18 1   
    18    7    8 1   
    19    7    9 1   
    20    8   19 1   
    21    8   20 1   
    22    8   21 1   
    23    9   22 1   
    24    9   23 1   
    25    9   24 1   
    26   10   25 1   
    27   10   26 1   
    28   10   27 1   
@<TRIPOS>SUBSTRUCTURE
     1 2BN         1 TEMP              0 ****  ****    0 ROOT
