@<TRIPOS>MOLECULE
2BN
   27    28     1     0     0
SMALL
bcc


@<TRIPOS>ATOM
      1 C2         -0.8460   -0.0390   -0.2950 c3        1 2BN      0.162200
      2 N3         -1.1110    1.1650    0.5490 n3        1 2BN     -0.782200
      3 C4          0.0650    1.2520    1.4390 c3        1 2BN      0.139800
      4 C5          1.0070    0.0880    1.0090 c3        1 2BN     -0.086700
      5 C6          0.3180   -1.1980    1.5080 c3        1 2BN     -0.083400
      6 C7         -0.9280   -1.3140    0.6110 c3        1 2BN     -0.113400
      7 C8          0.7250    0.0410   -0.5280 c3        1 2BN     -0.049000
      8 C9          1.1800    1.2760   -1.2750 c3        1 2BN     -0.079600
      9 C10         1.3100   -1.1620   -1.2330 c3        1 2BN     -0.079600
     10 C11        -1.6940   -0.1300   -1.5340 c3        1 2BN     -0.068100
     11 HN3        -1.9500    1.0260    1.0780 hn        1 2BN      0.347800
     12 HC41       -0.2030    1.1690    2.5250 h1        1 2BN      0.043700
     13 HC42        0.5560    2.2470    1.2740 h1        1 2BN      0.043700
     14 HC5         2.0610    0.2100    1.3100 hc        1 2BN      0.073700
     15 HC61        0.9880   -2.0830    1.3970 hc        1 2BN      0.043700
     16 HC62        0.0390   -1.1130    2.5850 hc        1 2BN      0.043700
     17 HC71       -0.9050   -2.2370   -0.0140 hc        1 2BN      0.046200
     18 HC72       -1.8690   -1.3330    1.2100 hc        1 2BN      0.046200
     19 HC91        2.2950    1.3390   -1.2500 hc        1 2BN      0.037367
     20 HC92        0.8510    1.2100   -2.3410 hc        1 2BN      0.037367
     21 HC93        0.7680    2.2200   -0.8490 hc        1 2BN      0.037367
     22 H101        2.4230   -1.0630   -1.2780 hc        1 2BN      0.037367
     23 H102        1.0720   -2.1250   -0.7260 hc        1 2BN      0.037367
     24 H103        0.9170   -1.2140   -2.2790 hc        1 2BN      0.037367
     25 H111       -2.7760   -0.2150   -1.2680 hc        1 2BN      0.041367
     26 H112       -1.5520    0.7740   -2.1750 hc        1 2BN      0.041367
     27 H113       -1.3970   -1.0350   -2.1190 hc        1 2BN      0.041367
@<TRIPOS>BOND
     1    1    2 1   
     2    1    6 1   
     3    1    7 1   
     4    1   10 1   
     5    2    3 1   
     6    2   11 1   
     7    3    4 1   
     8    3   12 1   
     9    3   13 1   
    10    4    5 1   
    11    4    7 1   
    12    4   14 1   
    13    5    6 1   
    14    5   15 1   
    15    5   16 1   
    16    6   17 1   
    17    6   18 1   
    18    7    8 1   
    19    7    9 1   
    20    8   19 1   
    21    8   20 1   
    22    8   21 1   
    23    9   22 1   
    24    9   23 1   
    25    9   24 1   
    26   10   25 1   
    27   10   26 1   
    28   10   27 1   
@<TRIPOS>SUBSTRUCTURE
     1 2BN         1 TEMP              0 ****  ****    0 ROOT
