@<TRIPOS>MOLECULE
2BN
   27    28     1     0     0
SMALL
bcc


@<TRIPOS>ATOM
      1 C2          0.0030    0.3630   -0.8400 c3        1 2BN      0.162200
      2 N3          1.4670    0.3630   -0.8400 n3        1 2BN     -0.782200
      3 C4          1.8980    0.3630    0.4840 c3        1 2BN      0.139800
      4 C5          0.7400    0.3630    1.3420 c3        1 2BN     -0.086700
      5 C6         -0.1700    1.4760    1.1920 c3        1 2BN     -0.083400
      6 C7         -0.6260    1.4940   -0.1230 c3        1 2BN     -0.113400
      7 C8         -0.1250   -0.6360    0.3700 c3        1 2BN     -0.049000
      8 C9          0.5940   -1.9790    0.1080 c3        1 2BN     -0.079600
      9 C10        -1.5870   -0.8080    0.8450 c3        1 2BN     -0.079600
     10 C11        -0.8050   -0.1670   -2.3780 c3        1 2BN     -0.068100
     11 HN3         1.7710    1.1140   -1.2590 hn        1 2BN      0.347800
     12 HC41        2.4330    1.1610    0.6550 h1        1 2BN      0.043700
     13 HC42        2.4340   -0.4350    0.6540 h1        1 2BN      0.043700
     14 HC5         0.8670    0.0210    2.2480 hc        1 2BN      0.073700
     15 HC61       -0.9260    1.3680    1.8010 hc        1 2BN      0.043700
     16 HC62        0.2950    2.3110    1.3910 hc        1 2BN      0.043700
     17 HC71       -1.5970    1.3960   -0.1370 hc        1 2BN      0.046200
     18 HC72       -0.3730    2.3360   -0.5480 hc        1 2BN      0.046200
     19 HC91        1.0030   -2.2950    0.9360 hc        1 2BN      0.037367
     20 HC92        1.2870   -1.8510   -0.5680 hc        1 2BN      0.037367
     21 HC93       -0.0520   -2.6380   -0.2090 hc        1 2BN      0.037367
     22 H101       -1.6610   -0.5250    1.7770 hc        1 2BN      0.037367
     23 H102       -1.8460   -1.7460    0.7680 hc        1 2BN      0.037367
     24 H103       -2.1760   -0.2610    0.2920 hc        1 2BN      0.037367
     25 H111       -0.2530   -0.8400   -2.8200 hc        1 2BN      0.041367
     26 H112       -1.6800   -0.5480   -2.1720 hc        1 2BN      0.041367
     27 H113       -0.9160    0.6020   -2.9690 hc        1 2BN      0.041367
@<TRIPOS>BOND
     1    1    2 1   
     2    1    6 1   
     3    1    7 1   
     4    1   10 1   
     5    2    3 1   
     6    2   11 1   
     7    3    4 1   
     8    3   12 1   
     9    3   13 1   
    10    4    5 1   
    11    4    7 1   
    12    4   14 1   
    13    5    6 1   
    14    5   15 1   
    15    5   16 1   
    16    6   17 1   
    17    6   18 1   
    18    7    8 1   
    19    7    9 1   
    20    8   19 1   
    21    8   20 1   
    22    8   21 1   
    23    9   22 1   
    24    9   23 1   
    25    9   24 1   
    26   10   25 1   
    27   10   26 1   
    28   10   27 1   
@<TRIPOS>SUBSTRUCTURE
     1 2BN         1 TEMP              0 ****  ****    0 ROOT
