@<TRIPOS>MOLECULE
2BN
   27    28     1     0     0
SMALL
bcc


@<TRIPOS>ATOM
      1 C2          0.0100    0.0020    0.0030 c3        1 2BN      0.162200
      2 N3          1.5030   -0.0320   -0.0480 n3        1 2BN     -0.782200
      3 C4          1.9190    0.0630    1.3660 c3        1 2BN      0.139800
      4 C5          0.5980    0.0890    2.1930 c3        1 2BN     -0.086700
      5 C6         -0.0120    1.4820    1.9400 c3        1 2BN     -0.083400
      6 C7         -0.4440    1.4290    0.4640 c3        1 2BN     -0.113400
      7 C8         -0.3100   -0.8340    1.3170 c3        1 2BN     -0.049000
      8 C9          0.1490   -2.2750    1.2640 c3        1 2BN     -0.079600
      9 C10        -1.7690   -0.8330    1.7150 c3        1 2BN     -0.079600
     10 C11        -0.6670   -0.4630   -1.2570 c3        1 2BN     -0.068100
     11 HN3         1.8380    0.7530   -0.5730 hn        1 2BN      0.347800
     12 HC41        2.5410    0.9720    1.5780 h1        1 2BN      0.043700
     13 HC42        2.5280   -0.8440    1.6130 h1        1 2BN      0.043700
     14 HC5         0.7100   -0.1960    3.2530 hc        1 2BN      0.073700
     15 HC61       -0.8800    1.6710    2.6150 hc        1 2BN      0.043700
     16 HC62        0.7390    2.2890    2.1170 hc        1 2BN      0.043700
     17 HC71       -1.5470    1.5420    0.3490 hc        1 2BN      0.046200
     18 HC72        0.0440    2.2300   -0.1390 hc        1 2BN      0.046200
     19 HC91        1.2110   -2.3840    0.9430 hc        1 2BN      0.037367
     20 HC92        0.0410   -2.7400    2.2740 hc        1 2BN      0.037367
     21 HC93       -0.4870   -2.8430    0.5400 hc        1 2BN      0.037367
     22 H101       -2.1900    0.1920    1.8310 hc        1 2BN      0.037367
     23 H102       -2.3710   -1.3690    0.9400 hc        1 2BN      0.037367
     24 H103       -1.8910   -1.3670    2.6890 hc        1 2BN      0.037367
     25 H111       -0.3580   -1.5070   -1.5080 hc        1 2BN      0.041367
     26 H112       -1.7750   -0.4430   -1.1100 hc        1 2BN      0.041367
     27 H113       -0.4080    0.2030   -2.1150 hc        1 2BN      0.041367
@<TRIPOS>BOND
     1    1    2 1   
     2    1    6 1   
     3    1    7 1   
     4    1   10 1   
     5    2    3 1   
     6    2   11 1   
     7    3    4 1   
     8    3   12 1   
     9    3   13 1   
    10    4    5 1   
    11    4    7 1   
    12    4   14 1   
    13    5    6 1   
    14    5   15 1   
    15    5   16 1   
    16    6   17 1   
    17    6   18 1   
    18    7    8 1   
    19    7    9 1   
    20    8   19 1   
    21    8   20 1   
    22    8   21 1   
    23    9   22 1   
    24    9   23 1   
    25    9   24 1   
    26   10   25 1   
    27   10   26 1   
    28   10   27 1   
@<TRIPOS>SUBSTRUCTURE
     1 2BN         1 TEMP              0 ****  ****    0 ROOT
