@<TRIPOS>MOLECULE
2BN
   27    28     1     0     0
SMALL
bcc


@<TRIPOS>ATOM
      1 C2          0.0090    0.0050    0.0030 c3        1 2BN      0.162200
      2 N3          1.5020   -0.0250   -0.0480 n7        1 2BN     -0.782200
      3 C4          1.9180    0.0670    1.3660 c3        1 2BN      0.139800
      4 C5          0.5980    0.0870    2.1940 c3        1 2BN     -0.086700
      5 C6         -0.0160    1.4790    1.9450 c3        1 2BN     -0.083400
      6 C7         -0.4480    1.4290    0.4690 c3        1 2BN     -0.113400
      7 C8         -0.3080   -0.8360    1.3160 c3        1 2BN     -0.049000
      8 C9          0.1550   -2.2760    1.2570 c3        1 2BN     -0.079600
      9 C10        -1.7660   -0.8400    1.7140 c3        1 2BN     -0.079600
     10 C11        -0.6680   -0.4580   -1.2580 c3        1 2BN     -0.068100
     11 HN3         1.8350    0.7630   -0.5710 hn        1 2BN      0.347800
     12 HC41        2.5380    0.9770    1.5800 h1        1 2BN      0.043700
     13 HC42        2.5310   -0.8390    1.6100 h1        1 2BN      0.043700
     14 HC5         0.7110   -0.2010    3.2530 hc        1 2BN      0.073700
     15 HC61       -0.8840    1.6630    2.6220 hc        1 2BN      0.043700
     16 HC62        0.7330    2.2880    2.1250 hc        1 2BN      0.043700
     17 HC71       -1.5520    1.5400    0.3550 hc        1 2BN      0.046200
     18 HC72        0.0380    2.2340   -0.1320 hc        1 2BN      0.046200
     19 HC91        1.2180   -2.3810    0.9380 hc        1 2BN      0.037367
     20 HC92        0.0450   -2.7450    2.2650 hc        1 2BN      0.037367
     21 HC93       -0.4780   -2.8420    0.5300 hc        1 2BN      0.037367
     22 H101       -2.1910    0.1830    1.8310 hc        1 2BN      0.037367
     23 H102       -2.3670   -1.3770    0.9390 hc        1 2BN      0.037367
     24 H103       -1.8860   -1.3760    2.6880 hc        1 2BN      0.037367
     25 H111       -0.3550   -1.5000   -1.5120 hc        1 2BN      0.041367
     26 H112       -1.7750   -0.4420   -1.1090 hc        1 2BN      0.041367
     27 H113       -0.4110    0.2120   -2.1130 hc        1 2BN      0.041367
@<TRIPOS>BOND
     1    1    2 1   
     2    1    6 1   
     3    1    7 1   
     4    1   10 1   
     5    2    3 1   
     6    2   11 1   
     7    3    4 1   
     8    3   12 1   
     9    3   13 1   
    10    4    5 1   
    11    4    7 1   
    12    4   14 1   
    13    5    6 1   
    14    5   15 1   
    15    5   16 1   
    16    6   17 1   
    17    6   18 1   
    18    7    8 1   
    19    7    9 1   
    20    8   19 1   
    21    8   20 1   
    22    8   21 1   
    23    9   22 1   
    24    9   23 1   
    25    9   24 1   
    26   10   25 1   
    27   10   26 1   
    28   10   27 1   
@<TRIPOS>SUBSTRUCTURE
     1 2BN         1 TEMP              0 ****  ****    0 ROOT
