@<TRIPOS>MOLECULE
2BO
   40    40     1     0     0
SMALL
bcc


@<TRIPOS>ATOM
      1 N1          0.9620   -0.3950    0.0540 nb        1 2BO     -0.672000
      2 C2          2.1730   -0.6380    0.6010 ca        1 2BO      0.325600
      3 C2A         3.3130   -1.0780   -0.2550 c3        1 2BO     -0.117400
      4 C3          2.4120   -0.4840    2.0000 ca        1 2BO      0.038800
      5 O3          3.6870   -0.7750    2.3990 oh        1 2BO     -0.536100
      6 C4          1.3630   -0.0750    2.8490 ca        1 2BO     -0.121300
      7 C4A         1.5710    0.0670    4.3320 c3        1 2BO      0.193100
      8 C5          0.1100    0.1670    2.2650 ca        1 2BO     -0.135600
      9 C5A        -1.0640    0.6100    3.0860 c3        1 2BO      0.215700
     10 C6         -0.0280   -0.0060    0.8700 ca        1 2BO      0.359200
     11 P          -3.6460    0.2740    2.8790 p5        1 2BO      1.430800
     12 O1P        -4.6090    0.2910    1.7650 o         1 2BO     -0.839500
     13 O2P        -3.3820   -0.8520    3.8040 o         1 2BO     -0.839500
     14 O3P        -3.9520    1.4960    3.9250 oh        1 2BO     -0.783400
     15 O4P        -2.1980    0.8160    2.2980 os        1 2BO     -0.578200
     16 N           1.9500    1.4110    4.7370 n3        1 2BO     -0.800200
     17 CA          3.3820    1.6730    4.7160 c3        1 2BO      0.006500
     18 CB          3.7060    3.1370    5.0890 c3        1 2BO      0.174100
     19 OB          3.1970    3.5060    6.3620 oh        1 2BO     -0.648800
     20 C           4.2150    0.7240    5.6300 c         1 2BO      0.881600
     21 O           4.6250   -0.3620    5.1260 o         1 2BO     -0.843300
     22 OT          4.4380    1.0640    6.8280 o         1 2BO     -0.843300
     23 CG          3.1390    4.1220    4.0840 c3        1 2BO     -0.086100
     24 H1          3.6580   -2.0860    0.0850 hc        1 2BO      0.033033
     25 H2          4.1630   -0.3620   -0.1290 hc        1 2BO      0.033033
     26 H3          3.0390   -1.1320   -1.3360 hc        1 2BO      0.033033
     27 H4          3.7940   -0.5970    3.3580 ho        1 2BO      0.481000
     28 H5          0.5970   -0.1860    4.8450 h1        1 2BO      0.051700
     29 H6          2.3240   -0.7090    4.6700 h1        1 2BO      0.051700
     30 H7         -0.7810    1.5850    3.5840 h1        1 2BO      0.051200
     31 H8         -1.2890   -0.1670    3.8760 h1        1 2BO      0.051200
     32 H9         -1.0080    0.1910    0.3950 h4        1 2BO      0.043100
     33 H12        -3.6840    1.2740    4.8090 ho        1 2BO      0.420000
     34 H14         3.7310    1.5130    3.6540 h1        1 2BO      0.055700
     35 H15         4.8320    3.2220    5.1160 h1        1 2BO      0.018700
     36 H16         3.4810    2.8150    6.9830 ho        1 2BO      0.442000
     37 H18         3.4930    3.8570    3.0600 hc        1 2BO      0.030700
     38 H19         2.0240    4.0950    4.1010 hc        1 2BO      0.030700
     39 H20         3.4730    5.1580    4.3320 hc        1 2BO      0.030700
     40 H21         1.6060    1.5920    5.6630 hn        1 2BO      0.359800
@<TRIPOS>BOND
     1    1    2 ar  
     2    1   10 ar  
     3    2    3 1   
     4    2    4 ar  
     5    3   24 1   
     6    3   25 1   
     7    3   26 1   
     8    4    5 1   
     9    4    6 ar  
    10    5   27 1   
    11    6    7 1   
    12    6    8 ar  
    13    7   16 1   
    14    7   28 1   
    15    7   29 1   
    16    8    9 1   
    17    8   10 ar  
    18    9   15 1   
    19    9   30 1   
    20    9   31 1   
    21   10   32 1   
    22   11   12 1   
    23   11   13 1   
    24   11   14 1   
    25   11   15 1   
    26   14   33 1   
    27   16   17 1   
    28   16   40 1   
    29   17   18 1   
    30   17   20 1   
    31   17   34 1   
    32   18   19 1   
    33   18   23 1   
    34   18   35 1   
    35   19   36 1   
    36   20   21 1   
    37   20   22 1   
    38   23   37 1   
    39   23   38 1   
    40   23   39 1   
@<TRIPOS>SUBSTRUCTURE
     1 2BO         1 TEMP              0 ****  ****    0 ROOT
