@<TRIPOS>MOLECULE
2BO
   40    40     1     0     0
SMALL
bcc


@<TRIPOS>ATOM
      1 N1          0.8800   -0.2630    0.0190 nb        1 2BO     -0.672000
      2 C2          2.1080   -0.5190    0.5230 ca        1 2BO      0.325600
      3 C2A         3.2260   -0.9140   -0.3830 c3        1 2BO     -0.117400
      4 C3          2.3840   -0.4210    1.9190 ca        1 2BO      0.038800
      5 O3          3.6720   -0.7180    2.2710 oh        1 2BO     -0.536100
      6 C4          1.3570   -0.0560    2.8130 ca        1 2BO     -0.121300
      7 C4A         1.6050    0.0270    4.2950 c3        1 2BO      0.193100
      8 C5          0.0860    0.2010    2.2750 ca        1 2BO     -0.135600
      9 C5A        -1.0680    0.6000    3.1450 c3        1 2BO      0.215700
     10 C6         -0.0900    0.0840    0.8780 ca        1 2BO      0.359200
     11 P          -3.6520    0.2520    2.9960 p5        1 2BO      1.430800
     12 O1P        -3.9370    1.4270    4.1000 oh        1 2BO     -0.783400
     13 O2P        -4.6460    0.3070    1.9100 o         1 2BO     -0.839500
     14 O3P        -3.3550   -0.9090    3.8660 o         1 2BO     -0.839500
     15 O4P        -2.2240    0.8290    2.3980 os        1 2BO     -0.578200
     16 N           1.9860    1.3560    4.7440 n7        1 2BO     -0.800200
     17 CA          3.4150    1.6290    4.6950 c3        1 2BO      0.006500
     18 CB          3.7400    3.0790    5.1200 c3        1 2BO      0.174100
     19 OB          3.2640    3.3910    6.4210 oh        1 2BO     -0.648800
     20 C           4.2790    0.6500    5.5460 c         1 2BO      0.881600
     21 O           4.5340    0.9420    6.7500 o         1 2BO     -0.843300
     22 OT          4.6830   -0.4110    4.9860 o         1 2BO     -0.843300
     23 CG          3.1390    4.1010    4.1720 c3        1 2BO     -0.086100
     24 H1          4.0740   -0.1960   -0.2510 hc        1 2BO      0.033033
     25 H2          3.5890   -1.9320   -0.0930 hc        1 2BO      0.033033
     26 H3          2.9220   -0.9270   -1.4560 hc        1 2BO      0.033033
     27 H4          3.8040   -0.5790    3.2330 ho        1 2BO      0.481000
     28 H5          0.6470   -0.2550    4.8230 h1        1 2BO      0.051700
     29 H6          2.3720   -0.7570    4.5800 h1        1 2BO      0.051700
     30 H7         -0.7780    1.5550    3.6760 h1        1 2BO      0.051200
     31 H8         -1.2650   -0.2110    3.9080 h1        1 2BO      0.051200
     32 H9         -1.0840    0.2930    0.4390 h4        1 2BO      0.043100
     33 H12         1.6660    1.4960    5.6860 hn        1 2BO      0.359800
     34 H14         3.7360    1.5160    3.6180 h1        1 2BO      0.055700
     35 H15         4.8650    3.1710    5.1190 h1        1 2BO      0.018700
     36 H16         3.5700    2.6770    7.0040 ho        1 2BO      0.442000
     37 H18         3.4660    3.8810    3.1290 hc        1 2BO      0.030700
     38 H19         3.4730    5.1280    4.4550 hc        1 2BO      0.030700
     39 H20         2.0240    4.0640    4.2180 hc        1 2BO      0.030700
     40 H21        -3.6430    1.1710    4.9660 ho        1 2BO      0.420000
@<TRIPOS>BOND
     1    1    2 ar  
     2    1   10 ar  
     3    2    3 1   
     4    2    4 ar  
     5    3   24 1   
     6    3   25 1   
     7    3   26 1   
     8    4    5 1   
     9    4    6 ar  
    10    5   27 1   
    11    6    7 1   
    12    6    8 ar  
    13    7   16 1   
    14    7   28 1   
    15    7   29 1   
    16    8    9 1   
    17    8   10 ar  
    18    9   15 1   
    19    9   30 1   
    20    9   31 1   
    21   10   32 1   
    22   11   12 1   
    23   11   13 1   
    24   11   14 1   
    25   11   15 1   
    26   12   40 1   
    27   16   17 1   
    28   16   33 1   
    29   17   18 1   
    30   17   20 1   
    31   17   34 1   
    32   18   19 1   
    33   18   23 1   
    34   18   35 1   
    35   19   36 1   
    36   20   21 1   
    37   20   22 1   
    38   23   37 1   
    39   23   38 1   
    40   23   39 1   
@<TRIPOS>SUBSTRUCTURE
     1 2BO         1 TEMP              0 ****  ****    0 ROOT
