@<TRIPOS>MOLECULE
2BO
   39    33     1     0     0
SMALL
bcc


@<TRIPOS>ATOM
      1 N1         -2.0180   -0.3490   -3.2650 n1        1 2BO     -0.165000
      2 C2         -0.6400   -0.2980   -3.2680 c1        1 2BO     -0.114000
      3 C2A         0.1400   -0.2450   -4.6250 c3        1 2BO     -0.132000
      4 C3          0.0580   -0.3110   -2.0710 c1        1 2BO      0.002000
      5 O3          1.4780   -0.4300   -2.0810 o         1 2BO     -0.304000
      6 C4         -0.6310   -0.3740   -0.8700 c1        1 2BO     -0.125000
      7 C4A         0.1690   -0.4370    0.5100 c2        1 2BO     -0.024000
      8 C5         -2.0030   -0.4240   -0.8690 c2        1 2BO     -0.076000
      9 C5A        -2.7590   -0.6390    0.4480 c3        1 2BO      0.085000
     10 C6         -2.7010   -0.4110   -2.0780 c1        1 2BO     -0.088000
     11 P          -5.0250   -1.4980    1.3970 p3        1 2BO      2.509000
     12 O1P        -4.4360   -2.6600    2.1620 o         1 2BO     -1.246000
     13 O2P        -6.3870   -1.8780    0.8770 os        1 2BO     -0.921500
     14 O3P        -5.1490   -0.3040    2.3170 o         1 2BO     -1.246000
     15 O4P        -4.0730   -1.1290    0.1700 os        1 2BO     -0.727000
     16 N           0.9750    0.7500    0.6540 n3        1 2BO     -0.331000
     17 CA          1.9740    0.5290    1.6460 c3        1 2BO     -0.124000
     18 CB          3.0400    1.5450    1.5030 c3        1 2BO      0.041000
     19 OB          3.2100    1.8760    0.1040 oh        1 2BO     -0.377000
     20 C           1.3430    0.6410    3.0410 c1        1 2BO      0.314000
     21 O           1.4680   -0.3150    3.8770 os        1 2BO     -0.921500
     22 OT          0.7160    1.6850    3.3670 o         1 2BO     -0.572000
     23 CG          4.3340    0.9940    2.0490 c3        1 2BO     -0.214000
     24 H1         -0.5120   -0.1650   -5.3840 hc        1 2BO      0.058000
     25 H2          0.6640   -1.0630   -4.7320 hc        1 2BO      0.058000
     26 H3          0.7370    0.5270   -4.6270 hc        1 2BO      0.058000
     27 H4          1.7080   -1.2010   -2.4620 ho        1 2BO      0.230000
     28 H5          0.7530   -1.2340    0.5170 h4        1 2BO      0.079500
     29 H6         -0.4610   -0.4930    1.2450 h4        1 2BO      0.079500
     30 H7         -2.8220    0.2050    0.9270 h1        1 2BO      0.061500
     31 H8         -2.2790   -1.2880    0.9960 h1        1 2BO      0.061500
     32 H9         -3.6230   -0.4020   -2.4390 ha        1 2BO      0.285000
     33 H12         0.4440    1.4510    0.9060 hn        1 2BO      0.187000
     34 H14         2.3570   -0.3650    1.5320 h1        1 2BO      0.086000
     35 H15         2.7910    2.3500    2.0010 h1        1 2BO      0.071000
     36 H16         3.3230    2.7510    0.0180 ho        1 2BO      0.224000
     37 H18         4.9330    1.7250    2.2530 hc        1 2BO      0.073333
     38 H19         4.7510    0.4040    1.3780 hc        1 2BO      0.073333
     39 H20         4.1510    0.4750    2.8760 hc        1 2BO      0.073333
@<TRIPOS>BOND
     1    1    2 1   
     2    2    3 1   
     3    3   24 1   
     4    3   25 1   
     5    3   26 1   
     6    4    6 1   
     7    5   27 1   
     8    6    8 1   
     9    7   16 1   
    10    7   28 1   
    11    7   29 1   
    12    8    9 1   
    13    8   10 1   
    14    9   15 1   
    15    9   30 1   
    16    9   31 1   
    17   10   32 1   
    18   11   12 1   
    19   11   14 1   
    20   11   15 1   
    21   16   17 1   
    22   16   33 1   
    23   17   18 1   
    24   17   20 1   
    25   17   34 1   
    26   18   19 1   
    27   18   23 1   
    28   18   35 1   
    29   19   36 1   
    30   20   22 1   
    31   23   37 1   
    32   23   38 1   
    33   23   39 1   
@<TRIPOS>SUBSTRUCTURE
     1 2BO         1 TEMP              0 ****  ****    0 ROOT
