@<TRIPOS>MOLECULE
2BO
   39    39     1     0     0
SMALL
bcc


@<TRIPOS>ATOM
      1 N1          1.0320   -3.3610    0.0770 nb        1 2BO     -0.688000
      2 C2         -0.3130   -3.3210   -0.1460 ca        1 2BO      0.301600
      3 C2A        -1.0920   -4.5930   -0.1810 c3        1 2BO     -0.104400
      4 C3         -0.9850   -2.1030   -0.3760 ca        1 2BO     -0.007200
      5 O3         -2.3340   -2.2020   -0.6670 oh        1 2BO     -0.553100
      6 C4         -0.2820   -0.8720   -0.3530 ca        1 2BO     -0.135300
      7 C4A        -1.0120    0.4060   -0.6860 c3        1 2BO      0.214100
      8 C5          1.0900   -0.9240   -0.0960 ca        1 2BO     -0.145600
      9 C5A         2.0140    0.2730   -0.0390 c3        1 2BO      0.242700
     10 C6          1.6950   -2.2060    0.0930 ca        1 2BO      0.372200
     11 P           4.6370   -0.1410    0.0880 p5        1 2BO      1.316900
     12 O1P         4.5170    0.6110   -1.2110 o         1 2BO     -0.925833
     13 O2P         4.6480   -1.6460   -0.0410 o         1 2BO     -0.925833
     14 O3P         5.5720    0.4410    1.1100 o         1 2BO     -0.925833
     15 O4P         3.0750    0.0880    0.8100 os        1 2BO     -0.566200
     16 N          -2.0360    0.7640    0.2850 n3        1 2BO     -0.838200
     17 CA         -3.3220    1.1620   -0.2650 c3        1 2BO      0.021500
     18 CB         -4.4740    0.9190    0.7460 c3        1 2BO      0.166100
     19 OB         -4.3340    1.6480    1.9560 oh        1 2BO     -0.652800
     20 C          -3.4540    2.6560   -0.6970 c         1 2BO      0.888600
     21 O          -3.9210    2.9000   -1.8440 o         1 2BO     -0.848800
     22 OT         -3.1470    3.5470    0.1500 o         1 2BO     -0.848800
     23 CG         -4.6310   -0.5440    1.1190 c3        1 2BO     -0.094100
     24 H1         -2.0980   -4.4290    0.2800 hc        1 2BO      0.016367
     25 H2         -1.2440   -4.9120   -1.2420 hc        1 2BO      0.016367
     26 H3         -0.5740   -5.4180    0.3650 hc        1 2BO      0.016367
     27 H4         -2.7520   -1.3680   -0.4110 ho        1 2BO      0.431000
     28 H5         -0.2540    1.2350   -0.7970 h1        1 2BO      0.044200
     29 H6         -1.4770    0.2580   -1.7050 h1        1 2BO      0.044200
     30 H7          2.3780    0.4820   -1.0910 h1        1 2BO      0.023700
     31 H8          1.4110    1.1590    0.3260 h1        1 2BO      0.023700
     32 H9          2.8280   -2.2180    0.2360 h4        1 2BO      0.149100
     33 H12        -1.7010    1.4780    0.9040 hn        1 2BO      0.380800
     34 H14        -3.5460    0.5270   -1.1710 h1        1 2BO      0.046700
     35 H15        -5.4210    1.2780    0.2430 h1        1 2BO      0.010700
     36 H16        -3.8220    2.4490    1.7510 ho        1 2BO      0.447000
     37 H18        -3.7090   -0.9190    1.6240 hc        1 2BO      0.028033
     38 H19        -5.4920   -0.6700    1.8190 hc        1 2BO      0.028033
     39 H20        -4.8170   -1.1490    0.2010 hc        1 2BO      0.028033
@<TRIPOS>BOND
     1    1    2 ar  
     2    1   10 ar  
     3    2    3 1   
     4    2    4 ar  
     5    3   24 1   
     6    3   25 1   
     7    3   26 1   
     8    4    5 1   
     9    4    6 ar  
    10    5   27 1   
    11    6    7 1   
    12    6    8 ar  
    13    7   16 1   
    14    7   28 1   
    15    7   29 1   
    16    8    9 1   
    17    8   10 ar  
    18    9   15 1   
    19    9   30 1   
    20    9   31 1   
    21   10   32 1   
    22   11   12 1   
    23   11   13 1   
    24   11   14 1   
    25   11   15 1   
    26   16   17 1   
    27   16   33 1   
    28   17   18 1   
    29   17   20 1   
    30   17   34 1   
    31   18   19 1   
    32   18   23 1   
    33   18   35 1   
    34   19   36 1   
    35   20   21 1   
    36   20   22 1   
    37   23   37 1   
    38   23   38 1   
    39   23   39 1   
@<TRIPOS>SUBSTRUCTURE
     1 2BO         1 TEMP              0 ****  ****    0 ROOT
