@<TRIPOS>MOLECULE
2BO
   40    40     1     0     0
SMALL
bcc


@<TRIPOS>ATOM
      1 N1          0.8770   -0.2330    0.0100 nb        1 2BO     -0.672000
      2 C2          2.1050   -0.4950    0.5110 ca        1 2BO      0.325600
      3 C2A         3.2230   -0.8850   -0.3980 c3        1 2BO     -0.117400
      4 C3          2.3820   -0.4110    1.9080 ca        1 2BO      0.038800
      5 O3          3.6690   -0.7140    2.2570 oh        1 2BO     -0.536100
      6 C4          1.3550   -0.0520    2.8050 ca        1 2BO     -0.121300
      7 C4A         1.6030    0.0170    4.2870 c3        1 2BO      0.193100
      8 C5          0.0850    0.2120    2.2700 ca        1 2BO     -0.134600
      9 C5A        -1.0680    0.6060    3.1440 c3        1 2BO      0.215700
     10 C6         -0.0920    0.1080    0.8720 ca        1 2BO      0.359200
     11 P          -3.6520    0.2640    2.9920 p5        1 2BO      1.430800
     12 O1P        -3.3580   -0.9050    3.8510 o         1 2BO     -0.839500
     13 O2P        -3.9350    1.4300    4.1060 oh        1 2BO     -0.783400
     14 O3P        -4.6470    0.3310    1.9070 o         1 2BO     -0.839500
     15 O4P        -2.2240    0.8440    2.3980 os        1 2BO     -0.578200
     16 N           1.9870    1.3420    4.7490 n3        1 2BO     -0.800200
     17 CA          3.4160    1.6140    4.7010 c3        1 2BO      0.006500
     18 CB          3.7430    3.0600    5.1380 c3        1 2BO      0.174100
     19 OB          3.2690    3.3610    6.4420 oh        1 2BO     -0.648800
     20 C           4.2800    0.6260    5.5430 c         1 2BO      0.881600
     21 O           4.6820   -0.4310    4.9730 o         1 2BO     -0.843300
     22 OT          4.5350    0.9070    6.7490 o         1 2BO     -0.843300
     23 CG          3.1430    4.0900    4.2000 c3        1 2BO     -0.086100
     24 H1          2.9190   -0.8860   -1.4720 hc        1 2BO      0.033033
     25 H2          4.0730   -0.1720   -0.2580 hc        1 2BO      0.033033
     26 H3          3.5810   -1.9070   -0.1200 hc        1 2BO      0.033033
     27 H4          3.8020   -0.5820    3.2200 ho        1 2BO      0.481000
     28 H5          0.6450   -0.2680    4.8130 h1        1 2BO      0.051700
     29 H6          2.3700   -0.7700    4.5650 h1        1 2BO      0.051700
     30 H7         -0.7760    1.5560    3.6830 h1        1 2BO      0.051200
     31 H8         -1.2660   -0.2110    3.9000 h1        1 2BO      0.051200
     32 H9         -1.0850    0.3230    0.4340 h4        1 2BO      0.043100
     33 H12         1.6680    1.4730    5.6920 hn        1 2BO      0.359800
     34 H14         3.7360    1.5100    3.6230 h1        1 2BO      0.055700
     35 H15         4.8690    3.1500    5.1370 h1        1 2BO      0.018700
     36 H16         3.5740    2.6410    7.0190 ho        1 2BO      0.442000
     37 H18         3.4780    5.1140    4.4910 hc        1 2BO      0.030700
     38 H19         2.0280    4.0550    4.2470 hc        1 2BO      0.030700
     39 H20         3.4690    3.8790    3.1540 hc        1 2BO      0.030700
     40 H21        -3.6410    1.1650    4.9700 ho        1 2BO      0.420000
@<TRIPOS>BOND
     1    1    2 ar  
     2    1   10 ar  
     3    2    3 1   
     4    2    4 ar  
     5    3   24 1   
     6    3   25 1   
     7    3   26 1   
     8    4    5 1   
     9    4    6 ar  
    10    5   27 1   
    11    6    7 1   
    12    6    8 ar  
    13    7   16 1   
    14    7   28 1   
    15    7   29 1   
    16    8    9 1   
    17    8   10 ar  
    18    9   15 1   
    19    9   30 1   
    20    9   31 1   
    21   10   32 1   
    22   11   12 1   
    23   11   13 1   
    24   11   14 1   
    25   11   15 1   
    26   13   40 1   
    27   16   17 1   
    28   16   33 1   
    29   17   18 1   
    30   17   20 1   
    31   17   34 1   
    32   18   19 1   
    33   18   23 1   
    34   18   35 1   
    35   19   36 1   
    36   20   21 1   
    37   20   22 1   
    38   23   37 1   
    39   23   38 1   
    40   23   39 1   
@<TRIPOS>SUBSTRUCTURE
     1 2BO         1 TEMP              0 ****  ****    0 ROOT
