@<TRIPOS>MOLECULE
2BP
   15    16     1     0     0
SMALL
bcc


@<TRIPOS>ATOM
      1 N9          1.7290    1.3010    0.0070 na        1 2BP     -0.389000
      2 C8          2.7030    0.2750    0.0070 cc        1 2BP      0.404700
      3 N7          2.1880   -0.9620    0.0020 nd        1 2BP     -0.525100
      4 C5          0.7960   -0.7780   -0.0040 ca        1 2BP     -0.214200
      5 C6         -0.3140   -1.6470   -0.0010 ca        1 2BP      0.531200
      6 N1         -1.5630   -1.1890   -0.0070 nb        1 2BP     -0.758000
      7 C2         -1.7600    0.2040   -0.0300 ca        1 2BP      0.882900
      8 N2         -3.0800    0.6490   -0.1460 nh        1 2BP     -0.927500
      9 N3         -0.7690    1.1720   -0.0040 nb        1 2BP     -0.760000
     10 C4          0.4870    0.6550   -0.0040 ca        1 2BP      0.462800
     11 H8          3.7730    0.5150    0.0110 h5        1 2BP      0.072800
     12 H6         -0.1890   -2.7460    0.0130 h4        1 2BP      0.041100
     13 HN2        -3.7930   -0.0030    0.0840 hn        1 2BP      0.429800
     14 HN2A       -3.2560    1.6000    0.0790 hn        1 2BP      0.429800
     15 HN9         1.8830    2.2740   -0.0020 hn        1 2BP      0.317700
@<TRIPOS>BOND
     1    1    2 1   
     2    1   10 1   
     3    1   15 1   
     4    2    3 2   
     5    2   11 1   
     6    3    4 1   
     7    4    5 ar  
     8    4   10 ar  
     9    5    6 ar  
    10    5   12 1   
    11    6    7 ar  
    12    7    8 1   
    13    7    9 ar  
    14    8   13 1   
    15    8   14 1   
    16    9   10 ar  
@<TRIPOS>SUBSTRUCTURE
     1 2BP         1 TEMP              0 ****  ****    0 ROOT
