@<TRIPOS>MOLECULE
2BP
   15    11     1     0     0
SMALL
bcc


@<TRIPOS>ATOM
      1 N9          0.5110   -0.0010   -2.1030 ne        1 2BP     -0.509400
      2 C8          1.8620   -0.0010   -2.1030 c1        1 2BP      0.389800
      3 N7          2.2810   -0.0010   -0.8180 ne        1 2BP     -0.370400
      4 C5          1.1810   -0.0010   -0.0170 cg        1 2BP     -0.171000
      5 C6          1.0350   -0.0010    1.3610 c1        1 2BP      0.123500
      6 N1         -0.1920   -0.0010    1.9050 n1        1 2BP     -0.557800
      7 C2         -1.2960   -0.0010    1.1020 c1        1 2BP      0.545600
      8 N2         -2.5750    0.0020    1.7180 n3        1 2BP     -0.790400
      9 N3         -1.1550   -0.0010   -0.2540 n1        1 2BP     -0.559800
     10 C4          0.0900   -0.0010   -0.8100 cg        1 2BP      0.448800
     11 H8          2.4360   -0.0010   -2.8930 DU        1 2BP      0.235000
     12 H6          1.8240   -0.0010    1.9360 ha        1 2BP      0.120500
     13 HN2        -2.9870    0.7930    1.9080 hn        1 2BP      0.429800
     14 HN2A       -2.9900   -0.7870    1.9100 hn        1 2BP      0.429800
     15 HN9        -0.0250   -0.0010   -2.8410 DU        1 2BP      0.235000
@<TRIPOS>BOND
     1    1    2 2   
     2    1   10 1   
     3    2    3 2   
     4    3    4 1   
     5    4    5 3   
     6    5   12 1   
     7    6    7 3   
     8    7    8 1   
     9    8   13 1   
    10    8   14 1   
    11    9   10 3   
@<TRIPOS>SUBSTRUCTURE
     1 2BP         1 TEMP              0 ****  ****    0 ROOT
