@<TRIPOS>MOLECULE
2BP
   15    16     1     0     0
SMALL
bcc


@<TRIPOS>ATOM
      1 N9         -0.0240    0.0040   -0.0290 na        1 2BP     -0.389000
      2 C8          1.3900    0.0030   -0.0060 cc        1 2BP      0.404700
      3 N7          1.9130   -0.0020    1.2280 nd        1 2BP     -0.525100
      4 C5          0.8070   -0.0060    2.0930 ca        1 2BP     -0.214200
      5 C6          0.6490   -0.0010    3.4940 ca        1 2BP      0.531200
      6 N1         -0.5530   -0.0060    4.0640 nb        1 2BP     -0.758000
      7 C2         -1.6850   -0.0280    3.2290 ca        1 2BP      0.882900
      8 N2         -2.9270   -0.1420    3.8590 nh        1 2BP     -0.927500
      9 N3         -1.6820   -0.0040    1.8440 nb        1 2BP     -0.760000
     10 C4         -0.4330   -0.0050    1.3100 ca        1 2BP      0.462800
     11 H8          1.9690    0.0060   -0.9380 h5        1 2BP      0.072800
     12 H6          1.5210    0.0120    4.1750 h4        1 2BP      0.041100
     13 HN2        -3.7290    0.0830    3.3190 hn        1 2BP      0.429800
     14 HN2A       -2.9620    0.0880    4.8250 hn        1 2BP      0.429800
     15 HN9        -0.6100   -0.0050   -0.8200 hn        1 2BP      0.317700
@<TRIPOS>BOND
     1    1    2 1   
     2    1   10 1   
     3    1   15 1   
     4    2    3 2   
     5    2   11 1   
     6    3    4 1   
     7    4    5 ar  
     8    4   10 ar  
     9    5    6 ar  
    10    5   12 1   
    11    6    7 ar  
    12    7    8 1   
    13    7    9 ar  
    14    8   13 1   
    15    8   14 1   
    16    9   10 ar  
@<TRIPOS>SUBSTRUCTURE
     1 2BP         1 TEMP              0 ****  ****    0 ROOT
