@<TRIPOS>MOLECULE
2BP
   15    16     1     0     0
SMALL
bcc


@<TRIPOS>ATOM
      1 N9         -0.0140   -0.1310   -0.0240 na        1 2BP     -0.389000
      2 C8          1.3990   -0.0530    0.0020 cc        1 2BP      0.404700
      3 N7          1.9140    0.0630    1.2330 nd        1 2BP     -0.525100
      4 C5          0.8050    0.0610    2.0940 ca        1 2BP     -0.214200
      5 C6          0.6400    0.1610    3.4910 ca        1 2BP      0.531200
      6 N1         -0.5630    0.1320    4.0580 nb        1 2BP     -0.758000
      7 C2         -1.6880   -0.0150    3.2260 ca        1 2BP      0.882900
      8 N2         -2.9250   -0.1510    3.8620 nv        1 2BP     -0.927500
      9 N3         -1.6780   -0.0930    1.8430 nb        1 2BP     -0.760000
     10 C4         -0.4280   -0.0640    1.3120 ca        1 2BP      0.462800
     11 H8          1.9810   -0.0860   -0.9270 h5        1 2BP      0.072800
     12 H6          1.5060    0.2730    4.1700 h4        1 2BP      0.041100
     13 HN2        -3.7350   -0.0110    3.3050 hn        1 2BP      0.429800
     14 HN2A       -2.9770    0.1470    4.8080 hn        1 2BP      0.429800
     15 HN9        -0.5940   -0.2320   -0.8130 hn        1 2BP      0.317700
@<TRIPOS>BOND
     1    1    2 1   
     2    1   10 1   
     3    1   15 1   
     4    2    3 2   
     5    2   11 1   
     6    3    4 1   
     7    4    5 ar  
     8    4   10 ar  
     9    5    6 ar  
    10    5   12 1   
    11    6    7 ar  
    12    7    8 1   
    13    7    9 ar  
    14    8   13 1   
    15    8   14 1   
    16    9   10 ar  
@<TRIPOS>SUBSTRUCTURE
     1 2BP         1 TEMP              0 ****  ****    0 ROOT
