@<TRIPOS>MOLECULE
2BP
   16    17     1     0     0
SMALL
bcc


@<TRIPOS>ATOM
      1 N9         -0.0230    0.0840   -0.0390 na        1 2BP     -0.352000
      2 C8          1.3850    0.0380   -0.0190 cc        1 2BP      0.484700
      3 N7          1.9150   -0.0250    1.2200 nd        1 2BP     -0.511100
      4 C5          0.8230   -0.0220    2.0860 ca        1 2BP     -0.090200
      5 C6          0.6830   -0.0690    3.4910 ca        1 2BP      0.524200
      6 N1         -0.5270   -0.0510    4.0640 nb        1 2BP     -0.682000
      7 C2         -1.6230    0.0150    3.2230 ca        1 2BP      0.677900
      8 N2         -2.9470    0.0330    3.9130 n4        1 2BP     -0.809300
      9 N3         -1.6680    0.0670    1.8580 nb        1 2BP     -0.642000
     10 C4         -0.4280    0.0480    1.2990 ca        1 2BP      0.411800
     11 H8          1.9730    0.0530   -0.9530 h5        1 2BP      0.112800
     12 H6          1.5570   -0.1230    4.1730 h4        1 2BP      0.089100
     13 HN2        -3.7080    0.0830    3.2240 hn        1 2BP      0.480467
     14 HN2A       -3.0420   -0.8250    4.4710 hn        1 2BP      0.480467
     15 HN9        -0.6150    0.1330   -0.8320 hn        1 2BP      0.345700
     16 H23        -2.9870    0.8510    4.5340 hn        1 2BP      0.480467
@<TRIPOS>BOND
     1    1    2 1   
     2    1   10 1   
     3    1   15 1   
     4    2    3 2   
     5    2   11 1   
     6    3    4 1   
     7    4    5 ar  
     8    4   10 ar  
     9    5    6 ar  
    10    5   12 1   
    11    6    7 ar  
    12    7    8 1   
    13    7    9 ar  
    14    8   13 1   
    15    8   14 1   
    16    8   16 1   
    17    9   10 ar  
@<TRIPOS>SUBSTRUCTURE
     1 2BP         1 TEMP              0 ****  ****    0 ROOT
