@<TRIPOS>MOLECULE
2BQ
   27    23     1     0     0
SMALL
bcc


@<TRIPOS>ATOM
      1 CL         -5.3270    0.2380    0.1160 cl        1 2BQ     -0.062000
      2 C3         -3.5580    0.0820    0.1110 c1        1 2BQ     -0.067000
      3 C2         -2.8580    0.1550   -1.1010 c1        1 2BQ     -0.140000
      4 C4         -2.8600    0.0420    1.3160 c1        1 2BQ     -0.128000
      5 C5         -1.4580    0.0760    1.3140 c1        1 2BQ     -0.091000
      6 C6         -0.7610    0.1490    0.1000 c1        1 2BQ     -0.069000
      7 C1         -1.4590    0.1880   -1.1010 c2        1 2BQ     -0.120000
      8 C7          0.7880    0.2170    0.0950 c2        1 2BQ      0.150000
      9 O4          1.2800   -0.1130    1.3670 oh        1 2BQ     -0.369000
     10 C8          1.2330    1.6310   -0.2730 c3        1 2BQ     -0.079000
     11 N           2.6040    1.8030    0.0700 n3        1 2BQ     -0.329000
     12 C9          1.3230   -0.7520   -0.9060 c3        1 2BQ     -0.864000
     13 S           1.8520   -2.2420   -0.0610 s4        1 2BQ      2.076800
     14 O1          0.7060   -2.7890    0.8270 os        1 2BQ     -1.089000
     15 O2          2.3370   -3.2880   -1.0370 o         1 2BQ     -0.667900
     16 O3          3.1170   -1.9920    0.7590 o         1 2BQ     -0.667900
     17 H1         -3.3400    0.1810   -1.9340 ha        1 2BQ      0.129000
     18 H2         -3.3350   -0.0070    2.1420 ha        1 2BQ      0.138000
     19 H3         -0.9550    0.0470    2.1780 ha        1 2BQ      0.186000
     20 H4         -0.9510    0.2410   -1.9840 ha        1 2BQ      0.130000
     21 H5          1.1380    0.5680    1.9290 ho        1 2BQ      0.251000
     22 H6          1.1150    1.7740   -1.2650 h1        1 2BQ      0.083000
     23 H7          0.7020    2.2640    0.2050 h1        1 2BQ      0.083000
     24 H8          3.1410    1.5980   -0.6780 hn        1 2BQ      0.141000
     25 H9          2.8150    1.2500    0.7520 hn        1 2BQ      0.141000
     26 H11         2.0990   -0.3460   -1.3810 h1        1 2BQ      0.118500
     27 H12         0.6140   -0.9750   -1.5600 h1        1 2BQ      0.118500
@<TRIPOS>BOND
     1    1    2 1   
     2    2    4 1   
     3    3    7 1   
     4    3   17 1   
     5    4   18 1   
     6    5    6 1   
     7    5   19 1   
     8    6    7 1   
     9    7   20 1   
    10    8    9 1   
    11    8   10 1   
    12    8   12 1   
    13    9   21 1   
    14   10   11 1   
    15   10   22 1   
    16   10   23 1   
    17   11   24 1   
    18   11   25 1   
    19   12   13 1   
    20   12   26 1   
    21   12   27 1   
    22   13   15 1   
    23   13   16 1   
@<TRIPOS>SUBSTRUCTURE
     1 2BQ         1 TEMP              0 ****  ****    0 ROOT
