@<TRIPOS>MOLECULE
2BQ
   27    27     1     0     0
SMALL
bcc


@<TRIPOS>ATOM
      1 CL         -5.2280    0.6650   -0.0200 cl        1 2BQ     -0.135400
      2 C3         -3.5560    0.3190   -0.0520 ca        1 2BQ      0.004400
      3 C2         -2.7210    0.8440    0.9380 ca        1 2BQ     -0.136000
      4 C4         -3.0340   -0.4830   -1.0680 ca        1 2BQ     -0.136000
      5 C5         -1.6690   -0.7640   -1.0880 ca        1 2BQ     -0.111500
      6 C6         -0.8180   -0.2530   -0.1000 ca        1 2BQ     -0.051300
      7 C1         -1.3590    0.5570    0.9080 ca        1 2BQ     -0.111500
      8 C7          0.6670   -0.5470   -0.1140 c3        1 2BQ      0.219100
      9 O4          0.8940   -1.4690   -1.1830 oh        1 2BQ     -0.648800
     10 C8          1.0810   -1.2360    1.2210 c3        1 2BQ      0.115800
     11 N           0.4820   -2.5220    1.4680 n3        1 2BQ     -0.892800
     12 C9          1.4460    0.7410   -0.3140 c3        1 2BQ     -0.319600
     13 S           3.2400    0.6830   -0.2400 s6        1 2BQ      1.431800
     14 O1          3.6440    1.7590   -1.0550 o         1 2BQ     -0.746867
     15 O2          3.5490    0.8380    1.1280 o         1 2BQ     -0.746867
     16 O3          3.5660   -0.5980   -0.7580 o         1 2BQ     -0.746867
     17 H1         -3.1330    1.4810    1.7340 ha        1 2BQ      0.134000
     18 H2         -3.6910   -0.8900   -1.8500 ha        1 2BQ      0.134000
     19 H3         -1.2480   -1.3910   -1.8910 ha        1 2BQ      0.153500
     20 H4         -0.7000    0.9790    1.6840 ha        1 2BQ      0.153500
     21 H5          1.8560   -1.5360   -1.3000 ho        1 2BQ      0.457000
     22 H6          2.2030   -1.3600    1.2040 h1        1 2BQ      0.074700
     23 H7          0.8220   -0.5480    2.0710 h1        1 2BQ      0.074700
     24 H8         -0.5180   -2.4480    1.4290 hn        1 2BQ      0.335800
     25 H9          0.7660   -3.1660    0.7510 hn        1 2BQ      0.335800
     26 H11         1.1710    1.1580   -1.3150 h1        1 2BQ      0.080200
     27 H12         1.1130    1.4800    0.4550 h1        1 2BQ      0.080200
@<TRIPOS>BOND
     1    1    2 1   
     2    2    3 ar  
     3    2    4 ar  
     4    3    7 ar  
     5    3   17 1   
     6    4    5 ar  
     7    4   18 1   
     8    5    6 ar  
     9    5   19 1   
    10    6    7 ar  
    11    6    8 1   
    12    7   20 1   
    13    8    9 1   
    14    8   10 1   
    15    8   12 1   
    16    9   21 1   
    17   10   11 1   
    18   10   22 1   
    19   10   23 1   
    20   11   24 1   
    21   11   25 1   
    22   12   13 1   
    23   12   26 1   
    24   12   27 1   
    25   13   14 1   
    26   13   15 1   
    27   13   16 1   
@<TRIPOS>SUBSTRUCTURE
     1 2BQ         1 TEMP              0 ****  ****    0 ROOT
