@<TRIPOS>MOLECULE
2BQ
   28    28     1     0     0
SMALL
bcc


@<TRIPOS>ATOM
      1 CL         -0.1830    0.4640    0.7570 cl        1 2BQ     -0.087400
      2 C3          1.4830    0.2860    0.4750 ca        1 2BQ      0.023400
      3 C2          2.3200   -0.1400    1.5110 ca        1 2BQ     -0.127000
      4 C4          2.0080    0.5680   -0.7890 ca        1 2BQ     -0.127000
      5 C5          3.3750    0.4170   -1.0160 ca        1 2BQ     -0.104500
      6 C6          4.2220   -0.0120    0.0120 ca        1 2BQ     -0.110300
      7 C1          3.6850   -0.2870    1.2760 ca        1 2BQ     -0.104500
      8 C7          5.7080   -0.1660   -0.2270 c3        1 2BQ      0.270100
      9 O4          5.9730    0.0520   -1.6100 oh        1 2BQ     -0.628800
     10 C8          6.0410   -1.6720    0.0430 c3        1 2BQ      0.090800
     11 N           7.3600   -2.0870   -0.4960 n4        1 2BQ     -0.861600
     12 C9          6.4900    0.7650    0.6810 c3        1 2BQ     -0.354600
     13 S           8.2780    0.6750    0.6520 s6        1 2BQ      1.435800
     14 O1          8.7390    1.8840    1.1510 o         1 2BQ     -0.735533
     15 O2          8.5410   -0.5090    1.4030 o         1 2BQ     -0.735533
     16 O3          8.5160    0.3780   -0.7280 o         1 2BQ     -0.735533
     17 H1          1.9070   -0.3540    2.5090 ha        1 2BQ      0.151500
     18 H2          1.3510    0.9100   -1.6030 ha        1 2BQ      0.151500
     19 H3          3.7950    0.6400   -2.0110 ha        1 2BQ      0.148500
     20 H4          4.3400   -0.6100    2.0990 ha        1 2BQ      0.148500
     21 H5          6.6850    0.7080   -1.6960 ho        1 2BQ      0.460000
     22 H6          6.0370   -1.8470    1.1540 hx        1 2BQ      0.096700
     23 H7          5.2470   -2.2980   -0.4500 hx        1 2BQ      0.096700
     24 H8          7.6440   -1.4260   -1.2520 hn        1 2BQ      0.474467
     25 H9          7.3240   -3.0350   -0.8550 hn        1 2BQ      0.474467
     26 H11         6.1610    0.5950    1.7370 h1        1 2BQ      0.106200
     27 H12         6.1940    1.8160    0.4300 h1        1 2BQ      0.106200
     28 HN3         8.0830   -2.0090    0.2530 hn        1 2BQ      0.474467
@<TRIPOS>BOND
     1    1    2 1   
     2    2    3 ar  
     3    2    4 ar  
     4    3    7 ar  
     5    3   17 1   
     6    4    5 ar  
     7    4   18 1   
     8    5    6 ar  
     9    5   19 1   
    10    6    7 ar  
    11    6    8 1   
    12    7   20 1   
    13    8    9 1   
    14    8   10 1   
    15    8   12 1   
    16    9   21 1   
    17   10   11 1   
    18   10   22 1   
    19   10   23 1   
    20   11   24 1   
    21   11   25 1   
    22   11   28 1   
    23   12   13 1   
    24   12   26 1   
    25   12   27 1   
    26   13   14 1   
    27   13   15 1   
    28   13   16 1   
@<TRIPOS>SUBSTRUCTURE
     1 2BQ         1 TEMP              0 ****  ****    0 ROOT
