@<TRIPOS>MOLECULE
2BQ
   28    28     1     0     0
SMALL
bcc


@<TRIPOS>ATOM
      1 Cl         -0.1960    0.4450    0.6580 cl        1 2BQ     -0.087400
      2 C3          1.4760    0.2760    0.4070 ca        1 2BQ      0.023400
      3 C2          2.2890   -0.1910    1.4450 ca        1 2BQ     -0.127000
      4 C4          2.0310    0.6060   -0.8320 ca        1 2BQ     -0.127000
      5 C5          3.4020    0.4620   -1.0330 ca        1 2BQ     -0.104500
      6 C6          4.2250   -0.0070   -0.0040 ca        1 2BQ     -0.110300
      7 C1          3.6590   -0.3300    1.2360 ca        1 2BQ     -0.104500
      8 C7          5.7160   -0.1530   -0.2140 c3        1 2BQ      0.270100
      9 O4          6.0130    0.1170   -1.5810 oh        1 2BQ     -0.628800
     10 C8          6.0430   -1.6690    0.0060 c3        1 2BQ      0.090800
     11 N           7.3750   -2.0640   -0.5180 nz        1 2BQ     -0.861600
     12 C9          6.4770    0.7420    0.7470 c3        1 2BQ     -0.354600
     13 S           8.2650    0.6520    0.7550 s6        1 2BQ      1.435800
     14 O1          8.7140    1.8410    1.3100 o         1 2BQ     -0.735533
     15 O2          8.5110   -0.5600    1.4660 o         1 2BQ     -0.735533
     16 O3          8.5350    0.4070   -0.6290 o         1 2BQ     -0.735533
     17 H1          1.8530   -0.4430    2.4240 ha        1 2BQ      0.151500
     18 H2          1.3920    0.9790   -1.6470 ha        1 2BQ      0.151500
     19 H3          3.8450    0.7230   -2.0090 ha        1 2BQ      0.148500
     20 H4          4.2950   -0.6850    2.0610 ha        1 2BQ      0.148500
     21 H5          6.7260    0.7750   -1.6260 ho        1 2BQ      0.460000
     22 H6          5.2610   -2.2750   -0.5290 hx        1 2BQ      0.096700
     23 H7          6.0140   -1.8860    1.1100 hx        1 2BQ      0.096700
     24 H8          8.0800   -2.0150    0.2510 hn        1 2BQ      0.474467
     25 H9          7.6750   -1.3750   -1.2410 hn        1 2BQ      0.474467
     26 H11         6.1860    1.8020    0.5290 h1        1 2BQ      0.106200
     27 H12         6.1240    0.5320    1.7880 h1        1 2BQ      0.106200
     28 HN3         7.3470   -2.9980   -0.9130 hn        1 2BQ      0.474467
@<TRIPOS>BOND
     1    1    2 1   
     2    2    3 ar  
     3    2    4 ar  
     4    3    7 ar  
     5    3   17 1   
     6    4    5 ar  
     7    4   18 1   
     8    5    6 ar  
     9    5   19 1   
    10    6    7 ar  
    11    6    8 1   
    12    7   20 1   
    13    8    9 1   
    14    8   10 1   
    15    8   12 1   
    16    9   21 1   
    17   10   11 1   
    18   10   22 1   
    19   10   23 1   
    20   11   24 1   
    21   11   25 1   
    22   11   28 1   
    23   12   13 1   
    24   12   26 1   
    25   12   27 1   
    26   13   14 1   
    27   13   15 1   
    28   13   16 1   
@<TRIPOS>SUBSTRUCTURE
     1 2BQ         1 TEMP              0 ****  ****    0 ROOT
