@<TRIPOS>MOLECULE
2BQ
   28    28     1     0     0
SMALL
bcc


@<TRIPOS>ATOM
      1 CL         -0.1680    0.6520    0.6430 cl        1 2BQ     -0.087400
      2 C3          1.4980    0.4220    0.3990 ca        1 2BQ      0.023400
      3 C2          2.2820   -0.1130    1.4250 ca        1 2BQ     -0.127000
      4 C4          2.0760    0.7710   -0.8250 ca        1 2BQ     -0.127000
      5 C5          3.4420    0.5780   -1.0220 ca        1 2BQ     -0.104500
      6 C6          4.2360    0.0400   -0.0030 ca        1 2BQ     -0.110300
      7 C1          3.6470   -0.3010    1.2200 ca        1 2BQ     -0.104500
      8 C7          5.7210   -0.1600   -0.2080 c3        1 2BQ      0.270100
      9 O4          6.0410    0.1430   -1.5630 oh        1 2BQ     -0.628800
     10 C8          5.9830   -1.6950   -0.0390 c3        1 2BQ      0.090800
     11 N           7.3020   -2.1270   -0.5670 n4        1 2BQ     -0.861600
     12 C9          6.5110    0.6690    0.7880 c3        1 2BQ     -0.354600
     13 S           8.2930    0.5040    0.8050 s6        1 2BQ      1.435800
     14 O1          8.7870    1.6540    1.4040 o         1 2BQ     -0.735533
     15 O2          8.4830   -0.7400    1.4760 o         1 2BQ     -0.735533
     16 O3          8.5640    0.2960   -0.5850 o         1 2BQ     -0.735533
     17 H1          1.8280   -0.3800    2.3920 ha        1 2BQ      0.151500
     18 H2          1.4600    1.1980   -1.6310 ha        1 2BQ      0.151500
     19 H3          3.9030    0.8530   -1.9850 ha        1 2BQ      0.148500
     20 H4          4.2610   -0.7110    2.0370 ha        1 2BQ      0.148500
     21 H5          6.7810    0.7720   -1.5800 ho        1 2BQ      0.460000
     22 H6          5.1810   -2.2500   -0.5990 hx        1 2BQ      0.096700
     23 H7          5.9360   -1.9480    1.0570 hx        1 2BQ      0.096700
     24 H8          8.0020   -2.1340    0.2070 hn        1 2BQ      0.474467
     25 H9          7.2390   -3.0450   -0.9940 hn        1 2BQ      0.474467
     26 H11         6.1410    0.4390    1.8180 h1        1 2BQ      0.106200
     27 H12         6.2660    1.7470    0.6050 h1        1 2BQ      0.106200
     28 HN3         7.6370   -1.4270   -1.2640 hn        1 2BQ      0.474467
@<TRIPOS>BOND
     1    1    2 1   
     2    2    3 ar  
     3    2    4 ar  
     4    3    7 ar  
     5    3   17 1   
     6    4    5 ar  
     7    4   18 1   
     8    5    6 ar  
     9    5   19 1   
    10    6    7 ar  
    11    6    8 1   
    12    7   20 1   
    13    8    9 1   
    14    8   10 1   
    15    8   12 1   
    16    9   21 1   
    17   10   11 1   
    18   10   22 1   
    19   10   23 1   
    20   11   24 1   
    21   11   25 1   
    22   11   28 1   
    23   12   13 1   
    24   12   26 1   
    25   12   27 1   
    26   13   14 1   
    27   13   15 1   
    28   13   16 1   
@<TRIPOS>SUBSTRUCTURE
     1 2BQ         1 TEMP              0 ****  ****    0 ROOT
