@<TRIPOS>MOLECULE
2BR
   13    13     1     0     0
SMALL
bcc


@<TRIPOS>ATOM
      1 C13         0.0070    0.0560   -0.0190 ca        1 2BR     -0.167000
      2 C14         1.3910   -0.0640    0.0390 ca        1 2BR     -0.067000
      3 C15         2.0470   -0.1680    1.2720 ca        1 2BR     -0.115900
      4 C16         1.2840   -0.1500    2.4520 ca        1 2BR      0.157100
      5 C17        -0.1190   -0.0290    2.3930 ca        1 2BR     -0.159000
      6 C18        -0.7450    0.0720    1.1590 ca        1 2BR     -0.083000
      7 O3          1.8070   -0.2450    3.7170 oh        1 2BR     -0.491100
      8 BR1         3.9150   -0.3270    1.2960 br        1 2BR     -0.088100
      9 H13        -0.4950    0.1370   -0.9940 ha        1 2BR      0.140000
     10 H14         1.9760   -0.0760   -0.8950 ha        1 2BR      0.147000
     11 H17        -0.6910   -0.0180    3.3320 ha        1 2BR      0.156000
     12 H18        -1.8410    0.1670    1.1090 ha        1 2BR      0.139000
     13 HO3         2.7720   -0.3240    3.6490 ho        1 2BR      0.432000
@<TRIPOS>BOND
     1    1    2 ar  
     2    1    6 ar  
     3    1    9 1   
     4    2    3 ar  
     5    2   10 1   
     6    3    4 ar  
     7    3    8 1   
     8    4    5 ar  
     9    4    7 1   
    10    5    6 ar  
    11    5   11 1   
    12    6   12 1   
    13    7   13 1   
@<TRIPOS>SUBSTRUCTURE
     1 2BR         1 TEMP              0 ****  ****    0 ROOT
