@<TRIPOS>MOLECULE
2BR
   13    10     1     0     0
SMALL
bcc


@<TRIPOS>ATOM
      1 C13        -0.8960    0.0610   -1.4380 c1        1 2BR     -0.067500
      2 C14         0.4900    0.0610   -1.4380 c1        1 2BR     -0.009500
      3 C15         1.1830    0.0610   -0.2380 c1        1 2BR     -0.022200
      4 C16         0.4900    0.0610    0.9630 c1        1 2BR      0.140600
      5 C17        -0.8960    0.0610    0.9630 c1        1 2BR     -0.101500
      6 C18        -1.5890    0.0610   -0.2380 c1        1 2BR     -0.067500
      7 O3          1.1940    0.0720    2.1810 oh        1 2BR     -0.474600
      8 BR1         3.0950    0.0790   -0.2380 br        1 2BR     -0.181800
      9 H13        -1.3840    0.0610   -2.2830 ha        1 2BR      0.082000
     10 H14         0.9780    0.0610   -2.2830 ha        1 2BR      0.089500
     11 H17        -1.3840    0.0610    1.8080 ha        1 2BR      0.098500
     12 H18        -2.5650    0.0610   -0.2380 ha        1 2BR      0.082000
     13 HO3         1.2830   -0.7600    2.4780 ho        1 2BR      0.432000
@<TRIPOS>BOND
     1    1    6 3   
     2    1    9 1   
     3    2    3 3   
     4    2   10 1   
     5    3    8 1   
     6    4    5 3   
     7    4    7 1   
     8    5   11 1   
     9    6   12 1   
    10    7   13 1   
@<TRIPOS>SUBSTRUCTURE
     1 2BR         1 TEMP              0 ****  ****    0 ROOT
