@<TRIPOS>MOLECULE
2BR
   13    13     1     0     0
SMALL
bcc


@<TRIPOS>ATOM
      1 C13        -0.0080    0.0340   -0.0110 ca        1 2BR     -0.167000
      2 C14         1.3770   -0.0780    0.0340 ca        1 2BR     -0.067000
      3 C15         2.0460   -0.1640    1.2610 ca        1 2BR     -0.115900
      4 C16         1.2950   -0.1360    2.4490 ca        1 2BR      0.157100
      5 C17        -0.1090   -0.0230    2.4020 ca        1 2BR     -0.159000
      6 C18        -0.7490    0.0610    1.1730 ca        1 2BR     -0.083000
      7 O3          1.8310   -0.2130    3.7100 oh        1 2BR     -0.491100
      8 Br1         3.9150   -0.3140    1.2690 br        1 2BR     -0.088100
      9 H13        -0.5200    0.1010   -0.9820 ha        1 2BR      0.140000
     10 H14         1.9520   -0.0980   -0.9060 ha        1 2BR      0.147000
     11 H17        -0.6720   -0.0030    3.3460 ha        1 2BR      0.156000
     12 H18        -1.8450    0.1500    1.1340 ha        1 2BR      0.139000
     13 HO3         2.7960   -0.2880    3.6320 ho        1 2BR      0.432000
@<TRIPOS>BOND
     1    1    2 ar  
     2    1    6 ar  
     3    1    9 1   
     4    2    3 ar  
     5    2   10 1   
     6    3    4 ar  
     7    3    8 1   
     8    4    5 ar  
     9    4    7 1   
    10    5    6 ar  
    11    5   11 1   
    12    6   12 1   
    13    7   13 1   
@<TRIPOS>SUBSTRUCTURE
     1 2BR         1 TEMP              0 ****  ****    0 ROOT
