@<TRIPOS>MOLECULE
2BR
   13    13     1     0     0
SMALL
bcc


@<TRIPOS>ATOM
      1 C13         2.2730   -1.5020    0.0460 ca        1 2BR     -0.167000
      2 C14         0.8880   -1.4160   -0.0470 ca        1 2BR     -0.067000
      3 C15         0.2560   -0.1700   -0.1380 ca        1 2BR     -0.115900
      4 C16         1.0430    0.9950   -0.1330 ca        1 2BR      0.157100
      5 C17         2.4460    0.9070   -0.0380 ca        1 2BR     -0.159000
      6 C18         3.0500   -0.3400    0.0510 ca        1 2BR     -0.083000
      7 O3          0.5440    2.2700   -0.2160 oh        1 2BR     -0.491100
      8 BR1        -1.6140   -0.1070   -0.2610 br        1 2BR     -0.088100
      9 H13         2.7570   -2.4870    0.1170 ha        1 2BR      0.140000
     10 H14         0.2850   -2.3380   -0.0490 ha        1 2BR      0.147000
     11 H17         3.0380    1.8340   -0.0370 ha        1 2BR      0.156000
     12 H18         4.1460   -0.4120    0.1240 ha        1 2BR      0.139000
     13 HO3        -0.4230    2.2210   -0.2770 ho        1 2BR      0.432000
@<TRIPOS>BOND
     1    1    2 ar  
     2    1    6 ar  
     3    1    9 1   
     4    2    3 ar  
     5    2   10 1   
     6    3    4 ar  
     7    3    8 1   
     8    4    5 ar  
     9    4    7 1   
    10    5    6 ar  
    11    5   11 1   
    12    6   12 1   
    13    7   13 1   
@<TRIPOS>SUBSTRUCTURE
     1 2BR         1 TEMP              0 ****  ****    0 ROOT
