@<TRIPOS>MOLECULE
2BS
   25    22     1     0     0
SMALL
bcc


@<TRIPOS>ATOM
      1 C1          1.0650   -0.1920   -1.4880 c1        1 2BS      0.351000
      2 S1         -3.1390    0.0620    1.5350 ss        1 2BS      0.387000
      3 C2          2.6140   -1.7390   -2.3650 c3        1 2BS     -0.009000
      4 N2         -2.5460    2.1930    2.4580 n2        1 2BS     -0.178000
      5 O2          2.1480   -1.0490   -1.2290 o         1 2BS     -0.282000
      6 C3          3.7960   -2.6020   -1.9820 c3        1 2BS     -0.245000
      7 C4          0.2750    0.3960   -0.3390 c2        1 2BS     -0.124000
      8 C5         -0.9320   -0.1980    0.0390 c1        1 2BS     -0.014000
      9 C6         -1.7710    0.4450    0.9380 c1        1 2BS     -0.352000
     10 C7         -3.5670    1.2000    2.4790 c1        1 2BS     -0.078000
     11 C8         -1.4000    1.7120    1.4750 c1        1 2BS      0.014000
     12 C9         -0.2010    2.3000    1.0980 c1        1 2BS     -0.110000
     13 O01         0.7680    0.0820   -2.6330 o         1 2BS     -0.357000
     14 N02        -4.7610    1.1310    3.2410 n2        1 2BS     -0.305000
     15 C10         0.6420    1.6490    0.1920 c2        1 2BS     -0.070000
     16 H2          2.8900   -1.0930   -3.0490 h1        1 2BS      0.102000
     17 H2A         1.8980   -2.3040   -2.7210 h1        1 2BS      0.102000
     18 H3          3.5640   -3.1450   -1.1990 hc        1 2BS      0.088667
     19 H3A         4.5620   -2.0310   -1.7670 hc        1 2BS      0.088667
     20 H3B         4.0270   -3.1910   -2.7310 hc        1 2BS      0.088667
     21 H5         -1.1790   -1.0720   -0.3190 ha        1 2BS      0.161000
     22 H9          0.0540    3.1670    1.4650 ha        1 2BS      0.158000
     23 HN02       -4.9720    1.8040    3.8230 hn        1 2BS      0.212500
     24 HN0A       -5.3180    0.4110    3.1550 hn        1 2BS      0.212500
     25 H10         1.4830    2.0650   -0.0760 ha        1 2BS      0.161000
@<TRIPOS>BOND
     1    1    7 1   
     2    1   13 1   
     3    2    9 1   
     4    2   10 1   
     5    3    5 1   
     6    3    6 1   
     7    3   16 1   
     8    3   17 1   
     9    4   10 1   
    10    4   11 1   
    11    6   18 1   
    12    6   19 1   
    13    6   20 1   
    14    7    8 1   
    15    7   15 1   
    16    8   21 1   
    17    9   11 1   
    18   12   15 1   
    19   12   22 1   
    20   14   23 1   
    21   14   24 1   
    22   15   25 1   
@<TRIPOS>SUBSTRUCTURE
     1 2BS         1 TEMP              0 ****  ****    0 ROOT
