@<TRIPOS>MOLECULE
2BS
   25    26     1     0     0
SMALL
bcc


@<TRIPOS>ATOM
      1 C1         -0.0960    0.0340   -0.0780 c         1 2BS      0.649700
      2 S1         -4.4630    0.0080    2.8330 ss        1 2BS     -0.060100
      3 C2          1.9640    0.0300   -1.2800 c3        1 2BS      0.140400
      4 N2         -2.8160   -0.0470    4.8840 nc        1 2BS     -0.607100
      5 O2          1.2720    0.0050   -0.0180 os        1 2BS     -0.440900
      6 C3          3.4370   -0.0100   -0.9530 c3        1 2BS     -0.101100
      7 C4         -0.7610    0.0060    1.2320 ca        1 2BS     -0.144600
      8 C5         -2.1560    0.0260    1.2630 ca        1 2BS     -0.017000
      9 C6         -2.8060   -0.0000    2.4920 ca        1 2BS     -0.124100
     10 C7         -4.1200   -0.0330    4.5690 cd        1 2BS      0.585100
     11 C8         -2.0520   -0.0430    3.7140 ca        1 2BS      0.153400
     12 C9         -0.6430   -0.0650    3.6590 ca        1 2BS     -0.112000
     13 O01        -0.6250    0.0800   -1.1940 o         1 2BS     -0.550000
     14 N02        -5.1680   -0.1450    5.4640 nv        1 2BS     -0.867800
     15 C10        -0.0150   -0.0400    2.4260 ca        1 2BS     -0.066000
     16 H2          1.6800    0.9670   -1.8270 h1        1 2BS      0.052700
     17 H2A         1.6430   -0.8590   -1.8830 h1        1 2BS      0.052700
     18 H3          3.6880   -0.9380   -0.3860 hc        1 2BS      0.048033
     19 H3A         4.0200    0.0070   -1.9050 hc        1 2BS      0.048033
     20 H3B         3.7250    0.8710   -0.3310 hc        1 2BS      0.048033
     21 H5         -2.7240    0.0600    0.3180 ha        1 2BS      0.163000
     22 H9         -0.0580   -0.1020    4.5900 ha        1 2BS      0.157000
     23 HN02       -4.9310   -0.0850    6.4310 hn        1 2BS      0.417300
     24 HN0A       -5.9880    0.3590    5.2080 hn        1 2BS      0.417300
     25 H10         1.0860   -0.0570    2.3660 ha        1 2BS      0.158000
@<TRIPOS>BOND
     1    1    5 1   
     2    1    7 1   
     3    1   13 2   
     4    2    9 1   
     5    2   10 1   
     6    3    5 1   
     7    3    6 1   
     8    3   16 1   
     9    3   17 1   
    10    4   10 2   
    11    4   11 1   
    12    6   18 1   
    13    6   19 1   
    14    6   20 1   
    15    7    8 ar  
    16    7   15 ar  
    17    8    9 ar  
    18    8   21 1   
    19    9   11 ar  
    20   10   14 1   
    21   11   12 ar  
    22   12   15 ar  
    23   12   22 1   
    24   14   23 1   
    25   14   24 1   
    26   15   25 1   
@<TRIPOS>SUBSTRUCTURE
     1 2BS         1 TEMP              0 ****  ****    0 ROOT
