@<TRIPOS>MOLECULE
2BS
   26    27     1     0     0
SMALL
bcc


@<TRIPOS>ATOM
      1 C1         -0.0880   -0.0570   -0.0920 c         1 2BS      0.632700
      2 S1         -4.4610   -0.0930    2.8080 ss        1 2BS      0.165900
      3 C2          1.9770   -0.0310   -1.2840 c3        1 2BS      0.141400
      4 N2         -2.8330    0.0670    4.8490 nc        1 2BS     -0.456100
      5 O2          1.2690   -0.0000   -0.0210 os        1 2BS     -0.432900
      6 C3          3.4420    0.0420   -0.9380 c3        1 2BS     -0.105100
      7 C4         -0.7640   -0.0220    1.2240 ca        1 2BS     -0.061600
      8 C5         -2.1550   -0.0760    1.2420 ca        1 2BS     -0.046000
      9 C6         -2.8160   -0.0440    2.4720 ca        1 2BS     -0.096100
     10 C7         -4.1290   -0.0010    4.5000 cd        1 2BS      0.267100
     11 C8         -2.0590    0.0430    3.6970 ca        1 2BS      0.091400
     12 C9         -0.6450    0.0970    3.6510 ca        1 2BS     -0.056000
     13 O01        -0.6380   -0.1300   -1.1930 o         1 2BS     -0.514000
     14 N02        -5.1800    0.0050    5.5060 n4        1 2BS     -0.743600
     15 C10        -0.0180    0.0640    2.4200 ca        1 2BS     -0.068000
     16 H2          1.7110   -0.9830   -1.8130 h1        1 2BS      0.062700
     17 H2A         1.6390    0.8430   -1.8990 h1        1 2BS      0.062700
     18 H3          3.7420   -0.8240   -0.3000 hc        1 2BS      0.056700
     19 H3A         3.6710    0.9850   -0.3850 hc        1 2BS      0.056700
     20 H3B         4.0350    0.0210   -1.8840 hc        1 2BS      0.056700
     21 H5         -2.7140   -0.1420    0.2910 ha        1 2BS      0.189000
     22 H9         -0.0640    0.1630    4.5860 ha        1 2BS      0.179000
     23 HN02       -4.7770    0.0650    6.4550 hn        1 2BS      0.475800
     24 HN0A       -5.7250   -0.8630    5.4310 hn        1 2BS      0.475800
     25 H10         1.0850    0.1040    2.3560 ha        1 2BS      0.189000
     26 H023       -5.7900    0.8170    5.3530 hn        1 2BS      0.475800
@<TRIPOS>BOND
     1    1    5 1   
     2    1    7 1   
     3    1   13 2   
     4    2    9 1   
     5    2   10 1   
     6    3    5 1   
     7    3    6 1   
     8    3   16 1   
     9    3   17 1   
    10    4   10 2   
    11    4   11 1   
    12    6   18 1   
    13    6   19 1   
    14    6   20 1   
    15    7    8 ar  
    16    7   15 ar  
    17    8    9 ar  
    18    8   21 1   
    19    9   11 ar  
    20   10   14 1   
    21   11   12 ar  
    22   12   15 ar  
    23   12   22 1   
    24   14   23 1   
    25   14   24 1   
    26   14   26 1   
    27   15   25 1   
@<TRIPOS>SUBSTRUCTURE
     1 2BS         1 TEMP              0 ****  ****    0 ROOT
