@<TRIPOS>MOLECULE
2BS
   25    26     1     0     0
SMALL
bcc


@<TRIPOS>ATOM
      1 C1         -2.3810   -0.6750   -0.0060 c         1 2BS      0.649700
      2 S1          2.8380   -1.2270   -0.0590 ss        1 2BS     -0.060100
      3 C2         -4.7340   -0.2830    0.0060 c3        1 2BS      0.140400
      4 N2          2.8820    1.4030   -0.0030 nc        1 2BS     -0.607100
      5 O2         -3.3950    0.2460    0.0030 os        1 2BS     -0.440900
      6 C3         -5.6570    0.9100    0.0140 c3        1 2BS     -0.101100
      7 C4         -1.0320   -0.0920   -0.0100 ca        1 2BS     -0.144600
      8 C5          0.0600   -0.9610   -0.0280 ca        1 2BS     -0.017000
      9 C6          1.3460   -0.4300   -0.0320 ca        1 2BS     -0.124100
     10 C7          3.6840    0.3270   -0.0350 cd        1 2BS      0.585100
     11 C8          1.5470    0.9920   -0.0150 ca        1 2BS      0.153400
     12 C9          0.4280    1.8510   -0.0010 ca        1 2BS     -0.112000
     13 O01        -2.6880   -1.8720   -0.0100 o         1 2BS     -0.550000
     14 N02         5.0620    0.3500   -0.1460 nh        1 2BS     -0.867800
     15 C10        -0.8430    1.3030    0.0020 ca        1 2BS     -0.066000
     16 H2         -4.8720   -0.9160   -0.9090 h1        1 2BS      0.052700
     17 H2A        -4.8650   -0.9230    0.9180 h1        1 2BS      0.052700
     18 H3         -5.4810    1.5370    0.9210 hc        1 2BS      0.048033
     19 H3A        -5.4880    1.5440   -0.8890 hc        1 2BS      0.048033
     20 H3B        -6.7140    0.5510    0.0170 hc        1 2BS      0.048033
     21 H5         -0.1080   -2.0510   -0.0390 ha        1 2BS      0.163000
     22 H9          0.5740    2.9410    0.0080 ha        1 2BS      0.157000
     23 HN02        5.5290   -0.3910    0.3270 hn        1 2BS      0.417300
     24 HN0A        5.4980    1.2420   -0.0490 hn        1 2BS      0.417300
     25 H10        -1.7280    1.9610    0.0130 ha        1 2BS      0.158000
@<TRIPOS>BOND
     1    1    5 1   
     2    1    7 1   
     3    1   13 2   
     4    2    9 1   
     5    2   10 1   
     6    3    5 1   
     7    3    6 1   
     8    3   16 1   
     9    3   17 1   
    10    4   10 2   
    11    4   11 1   
    12    6   18 1   
    13    6   19 1   
    14    6   20 1   
    15    7    8 ar  
    16    7   15 ar  
    17    8    9 ar  
    18    8   21 1   
    19    9   11 ar  
    20   10   14 1   
    21   11   12 ar  
    22   12   15 ar  
    23   12   22 1   
    24   14   23 1   
    25   14   24 1   
    26   15   25 1   
@<TRIPOS>SUBSTRUCTURE
     1 2BS         1 TEMP              0 ****  ****    0 ROOT
