@<TRIPOS>MOLECULE
2BT
   47    47     1     0     0
SMALL
bcc


@<TRIPOS>ATOM
      1 P          -0.0130    5.7880    1.9190 p4        1 2BT      1.710200
      2 OP3        -1.2380    5.7790    2.8020 os        1 2BT     -1.247000
      3 OP2         0.0290    7.0750    1.1300 o         1 2BT     -0.922500
      4 O5'        -0.0730    4.5620    0.9230 os        1 2BT     -0.568200
      5 C5'        -0.4010    3.2920    1.4400 c3        1 2BT      0.222400
      6 C4'        -0.0780    2.2410    0.4240 c3        1 2BT      0.064100
      7 O4'         1.0750    1.6980    0.6930 os        1 2BT     -0.431600
      8 C1'         0.9340    0.2200    0.2530 c3        1 2BT      0.272500
      9 N1          1.3500   -0.5670    1.1870 n         1 2BT     -0.370000
     10 C2          0.5930   -0.6860    2.4320 c         1 2BT      0.794500
     11 O2         -0.4920   -0.1540    2.5350 o         1 2BT     -0.713500
     12 N3          1.1450   -1.4430    3.5550 n         1 2BT     -0.598500
     13 C4          2.3710   -2.1440    3.4050 c         1 2BT      0.716700
     14 O4          2.7880   -2.8390    4.3100 o         1 2BT     -0.687500
     15 C5          3.0950   -2.0890    2.1270 cc        1 2BT     -0.291400
     16 C5M         4.4520   -2.7440    1.9980 c3        1 2BT     -0.044900
     17 C6          2.5520   -1.2990    1.0140 cd        1 2BT      0.053600
     18 C2'        -0.5930   -0.0050   -0.0070 c3        1 2BT      0.099100
     19 O2'        -0.8580   -0.0950   -1.4580 os        1 2BT     -0.383600
     20 CA'        -1.3880   -1.3340   -1.8660 c3        1 2BT      0.122400
     21 CB'        -2.1530   -1.1540   -3.1590 c3        1 2BT     -0.083400
     22 CC'        -1.7490   -2.2350   -4.1380 c3        1 2BT     -0.080400
     23 C3'        -1.1750    1.0420    0.4920 c3        1 2BT      0.117100
     24 O3'        -2.3430    1.3890   -0.2990 oh        1 2BT     -0.626800
     25 CD'        -2.7020   -2.2310   -5.3130 c3        1 2BT     -0.088100
     26 OP1         1.2260    5.6810    2.7750 o         1 2BT     -0.971300
     27 H5'         0.1160    3.1280    2.2560 h1        1 2BT     -0.000800
     28 H5''       -1.3580    3.2620    1.6490 h1        1 2BT     -0.000800
     29 H4'        -0.0640    2.6330   -0.4720 h1        1 2BT      0.052700
     30 H1'         1.4410    0.0640   -0.5690 h2        1 2BT      0.095700
     31 HN3         0.6710   -1.5170    4.3310 hn        1 2BT      0.319500
     32 H71         5.1170   -2.2170    2.4880 hc        1 2BT      0.059033
     33 H72         4.7030   -2.7910    1.0520 hc        1 2BT      0.059033
     34 H73         4.4140   -3.6500    2.3700 hc        1 2BT      0.059033
     35 H6          3.0300   -1.2600    0.1640 h4        1 2BT      0.304000
     36 H2'        -0.9000   -0.8150    0.4470 h1        1 2BT      0.059700
     37 HA'1       -0.6580   -1.9720   -2.0050 h1        1 2BT      0.023200
     38 HA'2       -1.9920   -1.6740   -1.1740 h1        1 2BT      0.023200
     39 HB'1       -1.9490   -0.2770   -3.5390 hc        1 2BT      0.052700
     40 HB'2       -3.1130   -1.2170   -2.9810 hc        1 2BT      0.052700
     41 HC'1       -0.8400   -2.0640   -4.4550 hc        1 2BT      0.035700
     42 HC'2       -1.7820   -3.1060   -3.6940 hc        1 2BT      0.035700
     43 H3'        -1.4330    0.8740    1.4190 h1        1 2BT      0.153700
     44 HO3'       -3.0320    1.5430    0.2410 ho        1 2BT      0.476000
     45 HD'1       -3.0000   -1.3140   -5.4900 hc        1 2BT      0.024033
     46 HD'2       -2.2450   -2.5850   -6.1050 hc        1 2BT      0.024033
     47 HD'3       -3.4780   -2.7930   -5.1060 hc        1 2BT      0.024033
@<TRIPOS>BOND
     1    1    3 1   
     2    1    4 1   
     3    1   26 2   
     4    4    5 1   
     5    5    6 1   
     6    5   27 1   
     7    5   28 1   
     8    6    7 1   
     9    6   23 1   
    10    6   29 1   
    11    7    8 1   
    12    8    9 1   
    13    8   18 1   
    14    8   30 1   
    15    9   10 1   
    16    9   17 1   
    17   10   11 2   
    18   10   12 1   
    19   12   13 1   
    20   12   31 1   
    21   13   14 2   
    22   13   15 1   
    23   15   16 1   
    24   15   17 2   
    25   16   32 1   
    26   16   33 1   
    27   16   34 1   
    28   17   35 1   
    29   18   19 1   
    30   18   23 1   
    31   18   36 1   
    32   19   20 1   
    33   20   21 1   
    34   20   37 1   
    35   20   38 1   
    36   21   22 1   
    37   21   39 1   
    38   21   40 1   
    39   22   25 1   
    40   22   41 1   
    41   22   42 1   
    42   23   24 1   
    43   23   43 1   
    44   24   44 1   
    45   25   45 1   
    46   25   46 1   
    47   25   47 1   
@<TRIPOS>SUBSTRUCTURE
     1 2BT         1 TEMP              0 ****  ****    0 ROOT
