@<TRIPOS>MOLECULE
2BT
   47    48     1     0     0
SMALL
bcc


@<TRIPOS>ATOM
      1 P           3.9370   -0.9250   -3.4170 p5        1 2BT      1.428800
      2 OP3         3.5290   -0.2310   -4.8430 oh        1 2BT     -0.780400
      3 OP2         2.8120   -1.7430   -2.9190 o         1 2BT     -0.843000
      4 O5'         4.0100    0.4500   -2.5100 os        1 2BT     -0.585200
      5 C5'         2.8060    0.9670   -2.0260 c3        1 2BT      0.182400
      6 C4'         2.7820    0.8890   -0.4910 c3        1 2BT      0.090100
      7 O4'         2.2410    2.1050    0.0470 os        1 2BT     -0.434600
      8 C1'         1.0010    1.8730    0.7500 c3        1 2BT      0.331500
      9 N1         -0.0440    2.7780    0.3130 n         1 2BT     -0.319400
     10 C2         -0.0770    4.0660    0.9100 c         1 2BT      0.722100
     11 O2          0.6900    4.4330    1.8440 o         1 2BT     -0.709100
     12 N3         -1.0540    4.9650    0.4590 n         1 2BT     -0.595500
     13 C4         -2.0010    4.6310   -0.5420 c         1 2BT      0.676300
     14 O4         -2.8190    5.5390   -0.8480 o         1 2BT     -0.724100
     15 C5         -1.9150    3.2930   -1.0780 ce        1 2BT     -0.499500
     16 C5M        -2.8970    2.8980   -2.1030 c3        1 2BT      0.044100
     17 C6         -0.9400    2.4000   -0.6570 c1        1 2BT     -0.082900
     18 C2'         0.6510    0.3650    0.5670 c3        1 2BT      0.073100
     19 O2'         0.3220   -0.1190    1.8690 os        1 2BT     -0.429600
     20 CA'        -0.3040   -1.4000    1.8230 c3        1 2BT      0.131400
     21 CB'        -0.6490   -1.7660    3.2560 c3        1 2BT     -0.083400
     22 CC'        -1.3260   -3.1180    3.3090 c3        1 2BT     -0.080400
     23 C3'         1.9480   -0.2880    0.0430 c3        1 2BT      0.078100
     24 O3'         2.6270   -0.9850    1.0730 oh        1 2BT     -0.599800
     25 CD'        -1.6740   -3.5070    4.7230 c3        1 2BT     -0.088100
     26 OP1         5.3260   -1.3720   -3.6580 o         1 2BT     -0.843000
     27 H5'         2.7480    2.0530   -2.3210 h1        1 2BT      0.046200
     28 H5''        1.9350    0.4100   -2.4670 h1        1 2BT      0.046200
     29 H4'         3.8380    0.8340   -0.1050 h1        1 2BT      0.069700
     30 H1'         1.2300    2.0990    1.8370 h2        1 2BT      0.075700
     31 HN3        -1.0620    5.8710    0.8630 hn        1 2BT      0.300500
     32 H71        -2.6240    1.9090   -2.5450 hc        1 2BT      0.000700
     33 H72        -2.9440    3.6590   -2.9220 hc        1 2BT      0.000700
     34 H73        -3.9250    2.8170   -1.6640 hc        1 2BT      0.000700
     35 H6          4.2990    0.0210   -5.3370 ho        1 2BT      0.418000
     36 H2'        -0.2010    0.2230   -0.1520 h1        1 2BT      0.126700
     37 HA'1        0.4100   -2.1420    1.3740 h1        1 2BT      0.039200
     38 HA'2       -1.2310   -1.3460    1.1910 h1        1 2BT      0.039200
     39 HB'1       -1.3190   -0.9790    3.6890 hc        1 2BT      0.046700
     40 HB'2        0.2880   -1.7800    3.8700 hc        1 2BT      0.046700
     41 HC'1       -0.6490   -3.8930    2.8610 hc        1 2BT      0.039200
     42 HC'2       -2.2590   -3.0940    2.6850 hc        1 2BT      0.039200
     43 H3'         1.7650   -1.0630   -0.7540 h1        1 2BT      0.142700
     44 HO3'        2.6630   -0.3920    1.8340 ho        1 2BT      0.391000
     45 HD'1       -0.7540   -3.5600    5.3540 hc        1 2BT      0.023367
     46 HD'2       -2.3660   -2.7570    5.1780 hc        1 2BT      0.023367
     47 HD'3       -2.1740   -4.5050    4.7420 hc        1 2BT      0.023367
@<TRIPOS>BOND
     1    1    2 1   
     2    1    3 1   
     3    1    4 1   
     4    1   26 1   
     5    2   35 1   
     6    4    5 1   
     7    5    6 1   
     8    5   27 1   
     9    5   28 1   
    10    6    7 1   
    11    6   23 1   
    12    6   29 1   
    13    7    8 1   
    14    8    9 1   
    15    8   18 1   
    16    8   30 1   
    17    9   10 1   
    18    9   17 2   
    19   10   11 2   
    20   10   12 1   
    21   12   13 1   
    22   12   31 1   
    23   13   14 2   
    24   13   15 1   
    25   15   16 1   
    26   15   17 2   
    27   16   32 1   
    28   16   33 1   
    29   16   34 1   
    30   18   19 1   
    31   18   23 1   
    32   18   36 1   
    33   19   20 1   
    34   20   21 1   
    35   20   37 1   
    36   20   38 1   
    37   21   22 1   
    38   21   39 1   
    39   21   40 1   
    40   22   25 1   
    41   22   41 1   
    42   22   42 1   
    43   23   24 1   
    44   23   43 1   
    45   24   44 1   
    46   25   45 1   
    47   25   46 1   
    48   25   47 1   
@<TRIPOS>SUBSTRUCTURE
     1 2BT         1 TEMP              0 ****  ****    0 ROOT
