@<TRIPOS>MOLECULE
2BU
   49    45     1     0     0
SMALL
bcc


@<TRIPOS>ATOM
      1 P          -5.2180   -2.4390   -2.6130 p3        1 2BU      2.537000
      2 OP1        -5.5690   -1.5200   -1.4690 o         1 2BU     -1.241500
      3 OP2        -4.4410   -3.6350   -2.0830 os        1 2BU     -1.250000
      4 OP3        -6.4810   -2.9170   -3.2770 o         1 2BU     -1.241500
      5 O5'        -4.3080   -1.6380   -3.6900 os        1 2BU     -0.730000
      6 C5'        -2.9800   -1.2450   -3.3050 c3        1 2BU      0.073000
      7 C4'        -1.9910   -1.7790   -4.3030 c3        1 2BU     -0.049000
      8 O4'        -0.5490   -1.0770   -4.0930 os        1 2BU     -0.294000
      9 C1'         0.0250   -1.7160   -3.1200 c3        1 2BU      0.165000
     10 N9         -0.2690   -1.0710   -1.8560 n3        1 2BU     -0.194000
     11 C4         -0.1890    0.1650   -1.2680 c1        1 2BU      0.028000
     12 N3         -0.5650    1.4260   -1.6980 n1        1 2BU     -0.199000
     13 C2         -0.3450    2.5080   -0.9080 c1        1 2BU     -0.034000
     14 N1          0.2540    2.3520    0.3240 n1        1 2BU     -0.276000
     15 C6          0.6220    1.1230    0.7470 c1        1 2BU      0.162000
     16 N6          0.9710    1.6860    2.0390 n2        1 2BU     -0.274000
     17 CB1         2.2890    1.4540    2.6010 c3        1 2BU     -0.072000
     18 CB2         2.2640    1.7590    4.1120 c3        1 2BU      0.018000
     19 OH2         2.9120    0.7260    4.8080 oh        1 2BU     -0.334000
     20 CB3         2.9630    3.0400    4.3690 c3        1 2BU     -0.003000
     21 OH3         2.1150    4.1010    4.0680 oh        1 2BU     -0.331000
     22 CB4         3.3700    3.1130    5.8660 c3        1 2BU     -0.054000
     23 OH4         3.3520    4.4420    6.2900 oh        1 2BU     -0.348000
     24 C5          0.3970    0.0130   -0.0610 c1        1 2BU     -0.189000
     25 N7          0.6820   -1.3060    0.1050 n1        1 2BU     -0.193000
     26 C8          0.2680   -1.9710   -1.0090 c1        1 2BU      0.018000
     27 C2'        -0.5890   -3.1450   -3.1560 c3        1 2BU     -0.198000
     28 C3'        -1.8090   -3.0500   -4.1150 c3        1 2BU     -0.001000
     29 O3'        -1.5020   -3.7210   -5.4080 oh        1 2BU     -0.385000
     30 H5'        -2.9220   -0.2780   -3.2790 h1        1 2BU      0.037500
     31 H5''       -2.7800   -1.6030   -2.4310 h1        1 2BU      0.037500
     32 H4'        -2.3070   -1.6200   -5.1950 h1        1 2BU      0.086000
     33 H1'         1.0170   -1.7610   -3.2680 h2        1 2BU      0.113000
     34 H2         -0.6140    3.4060   -1.2150 ha        1 2BU      0.158000
     35 H6          0.3640    2.1830    2.4960 hn        1 2BU      0.212000
     36 HB12        2.5400    0.5210    2.4620 h1        1 2BU      0.116000
     37 HB11        2.9430    2.0400    2.1590 h1        1 2BU      0.116000
     38 HB2         1.3410    1.8250    4.4150 h1        1 2BU      0.126000
     39 HO2         2.3570    0.0450    4.9060 ho        1 2BU      0.220000
     40 HB3         3.7600    3.0920    3.8110 h1        1 2BU      0.093000
     41 HO3         2.5970    4.7980    3.7940 ho        1 2BU      0.214000
     42 HB41        2.7350    2.5870    6.4060 h1        1 2BU      0.081500
     43 HB42        4.2670    2.7490    5.9770 h1        1 2BU      0.081500
     44 HO4         3.8390    4.5240    7.0350 ho        1 2BU      0.196000
     45 H8          0.2850   -2.9560   -1.1390 DU        1 2BU      0.350000
     46 H2'         0.0720   -3.7960   -3.5070 hc        1 2BU      0.090000
     47 H2''       -0.8780   -3.4060   -2.2740 hc        1 2BU      0.090000
     48 H3'        -2.5980   -3.4480   -3.7020 h1        1 2BU      0.189000
     49 HO3'       -1.6940   -4.5790   -5.3470 ho        1 2BU      0.282000
@<TRIPOS>BOND
     1    1    2 1   
     2    1    4 1   
     3    1    5 1   
     4    5    6 1   
     5    6    7 1   
     6    6   30 1   
     7    6   31 1   
     8    7    8 1   
     9    7   28 1   
    10    7   32 1   
    11    8    9 1   
    12    9   10 1   
    13    9   27 1   
    14    9   33 1   
    15   10   11 1   
    16   10   26 1   
    17   11   24 1   
    18   12   13 1   
    19   13   34 1   
    20   14   15 1   
    21   15   24 1   
    22   16   17 1   
    23   16   35 1   
    24   17   18 1   
    25   17   36 1   
    26   17   37 1   
    27   18   19 1   
    28   18   20 1   
    29   18   38 1   
    30   19   39 1   
    31   20   21 1   
    32   20   22 1   
    33   20   40 1   
    34   21   41 1   
    35   22   23 1   
    36   22   42 1   
    37   22   43 1   
    38   23   44 1   
    39   25   26 1   
    40   27   28 1   
    41   27   46 1   
    42   27   47 1   
    43   28   29 1   
    44   28   48 1   
    45   29   49 1   
@<TRIPOS>SUBSTRUCTURE
     1 2BU         1 TEMP              0 ****  ****    0 ROOT
