@<TRIPOS>MOLECULE
2BU
   49    51     1     0     0
SMALL
bcc


@<TRIPOS>ATOM
      1 P          -2.2610   -2.8930    0.5900 p5        1 2BU      1.430800
      2 OP1        -2.5350   -4.2950    0.2220 o         1 2BU     -0.843000
      3 OP2        -3.4600   -1.9180    0.0510 oh        1 2BU     -0.786400
      4 OP3        -2.0180   -2.3610    1.9510 o         1 2BU     -0.843000
      5 O5'        -1.0330   -2.3370   -0.3620 os        1 2BU     -0.579200
      6 C5'        -0.5720   -1.0430   -0.1210 c3        1 2BU      0.186400
      7 C4'         0.8860   -1.0800    0.3600 c3        1 2BU      0.087100
      8 O4'         1.6220    0.0020   -0.2300 os        1 2BU     -0.441600
      9 C1'         2.0310    0.9620    0.7820 c3        1 2BU      0.270800
     10 N9          1.7490    2.3110    0.3940 nh        1 2BU     -0.261200
     11 C4          2.5690    3.0800   -0.4520 ca        1 2BU      0.386800
     12 N3          3.7610    2.8460   -1.0470 nb        1 2BU     -0.713000
     13 C2          4.2370    3.9170   -1.7420 ca        1 2BU      0.568900
     14 N1          3.6990    5.1460   -1.9230 nb        1 2BU     -0.756000
     15 C6          2.4830    5.3840   -1.3340 ca        1 2BU      0.554200
     16 N6          1.8010    6.6220   -1.5580 nh        1 2BU     -0.798900
     17 CB1         2.6160    7.8070   -1.3820 c3        1 2BU      0.144800
     18 CB2         1.7780    9.0890   -1.2470 c3        1 2BU      0.101100
     19 OH2         1.2800    9.2660    0.0760 oh        1 2BU     -0.637800
     20 CB3         2.6260   10.3330   -1.5490 c3        1 2BU      0.108100
     21 OH3         1.8530   11.5170   -1.4070 oh        1 2BU     -0.619800
     22 CB4         3.8560   10.4280   -0.6410 c3        1 2BU      0.098400
     23 OH4         4.5350   11.6560   -0.8220 oh        1 2BU     -0.613800
     24 C5          1.8600    4.3830   -0.5480 ca        1 2BU     -0.109200
     25 N7          0.6960    4.3410    0.2150 ne        1 2BU     -0.693800
     26 C8          0.6260    3.1100    0.7720 c1        1 2BU      0.105400
     27 C2'         1.3720    0.5200    2.1090 c3        1 2BU     -0.142400
     28 C3'         1.0220   -0.9530    1.8910 c3        1 2BU      0.099100
     29 O3'         2.0490   -1.7960    2.3930 oh        1 2BU     -0.607800
     30 H5'        -0.6030   -0.4710   -1.0920 h1        1 2BU      0.039200
     31 H5''       -1.2230   -0.5290    0.6390 h1        1 2BU      0.039200
     32 H4'         1.3770   -2.0200   -0.0130 h1        1 2BU      0.067700
     33 H1'         3.1570    0.8390    0.8410 h2        1 2BU      0.038700
     34 H2          5.2140    3.7560   -2.2370 h5        1 2BU      0.010100
     35 H6          0.9770    6.6540   -0.9840 hn        1 2BU      0.387800
     36 HB12        3.2730    7.9000   -2.2920 h1        1 2BU      0.048200
     37 HB11        3.2920    7.7410   -0.4790 h1        1 2BU      0.048200
     38 HB2         0.9010    9.0780   -1.9560 h1        1 2BU      0.060700
     39 HO2         0.9240    8.4180    0.3700 ho        1 2BU      0.431000
     40 HB3         2.9370   10.3270   -2.6300 h1        1 2BU      0.082700
     41 HO3         1.3740   11.4440   -0.5700 ho        1 2BU      0.418000
     42 HB41        4.6030    9.6330   -0.9010 h1        1 2BU      0.060200
     43 HB42        3.5430   10.3230    0.4320 h1        1 2BU      0.060200
     44 HO4         3.8620   12.3480   -0.8670 ho        1 2BU      0.406000
     45 H8         -3.5560   -1.1450    0.5950 ho        1 2BU      0.424000
     46 H2'         0.4430    1.1140    2.3090 hc        1 2BU      0.076700
     47 H2''        2.0810    0.6530    2.9580 hc        1 2BU      0.076700
     48 H3'         0.0900   -1.2820    2.4320 h1        1 2BU      0.149700
     49 HO3'        2.8380   -1.6140    1.8710 ho        1 2BU      0.381000
@<TRIPOS>BOND
     1    1    2 1   
     2    1    3 1   
     3    1    4 1   
     4    1    5 1   
     5    3   45 1   
     6    5    6 1   
     7    6    7 1   
     8    6   30 1   
     9    6   31 1   
    10    7    8 1   
    11    7   28 1   
    12    7   32 1   
    13    8    9 1   
    14    9   10 1   
    15    9   27 1   
    16    9   33 1   
    17   10   11 1   
    18   10   26 2   
    19   11   12 ar  
    20   11   24 ar  
    21   12   13 ar  
    22   13   14 ar  
    23   13   34 1   
    24   14   15 ar  
    25   15   16 1   
    26   15   24 ar  
    27   16   17 1   
    28   16   35 1   
    29   17   18 1   
    30   17   36 1   
    31   17   37 1   
    32   18   19 1   
    33   18   20 1   
    34   18   38 1   
    35   19   39 1   
    36   20   21 1   
    37   20   22 1   
    38   20   40 1   
    39   21   41 1   
    40   22   23 1   
    41   22   42 1   
    42   22   43 1   
    43   23   44 1   
    44   24   25 1   
    45   25   26 2   
    46   27   28 1   
    47   27   46 1   
    48   27   47 1   
    49   28   29 1   
    50   28   48 1   
    51   29   49 1   
@<TRIPOS>SUBSTRUCTURE
     1 2BU         1 TEMP              0 ****  ****    0 ROOT
