@<TRIPOS>MOLECULE
2BV
   53    54     1     0     0
SMALL
bcc


@<TRIPOS>ATOM
      1 O1          0.1360    0.8310   -3.8540 oh        1 2BV     -0.808400
      2 P           0.7020    0.7510   -2.3440 p5        1 2BV      1.509100
      3 O2         -0.2370    1.5320   -1.5340 o         1 2BV     -0.887300
      4 C12         0.8430   -0.8600   -2.0530 c3        1 2BV     -0.424600
      5 C13         0.7170   -1.1630   -0.5690 c3        1 2BV     -0.047700
      6 C18         2.0550   -1.5660    0.0450 c3        1 2BV     -0.075400
      7 C17         1.9090   -1.8610    1.5240 c3        1 2BV     -0.075900
      8 C16         0.8720   -2.9350    1.7760 c3        1 2BV     -0.078400
      9 C15        -0.4570   -2.5640    1.1510 c3        1 2BV     -0.075900
     10 C14        -0.3080   -2.2660   -0.3270 c3        1 2BV     -0.075400
     11 C11         2.2300    1.3720   -2.4200 c3        1 2BV     -0.454600
     12 C10         2.5960    2.0320   -1.0970 c3        1 2BV      0.160100
     13 O3          3.8040    1.5000   -0.5790 oh        1 2BV     -0.593800
     14 C9          2.7250    3.5660   -1.1990 c3        1 2BV      0.136800
     15 N           1.5060    4.2290   -1.6070 n3        1 2BV     -0.827200
     16 C2          1.5070    5.6640   -1.3550 c3        1 2BV      0.222800
     17 C1          0.3180    6.3460   -2.0390 c3        1 2BV     -0.087100
     18 C3          1.5030    6.0540    0.1090 ca        1 2BV     -0.112300
     19 C8          0.5060    5.5790    0.9690 ca        1 2BV     -0.114000
     20 C7          0.4960    5.9510    2.3100 ca        1 2BV     -0.115000
     21 C6          1.4850    6.8080    2.8090 ca        1 2BV      0.017400
     22 CL1         1.4480    7.2460    4.4470 cl        1 2BV     -0.070400
     23 C5          2.4840    7.2880    1.9510 ca        1 2BV      0.016400
     24 CL2         3.7000    8.3290    2.5150 cl        1 2BV     -0.073400
     25 C4          2.4900    6.9070    0.6040 ca        1 2BV     -0.113000
     26 H2          1.7990   -1.3040   -2.4360 hc        1 2BV      0.108700
     27 H3          0.0450   -1.4240   -2.6110 hc        1 2BV      0.108700
     28 H4          0.3480   -0.2330   -0.0410 hc        1 2BV      0.071700
     29 H5          2.8080   -0.7430   -0.0930 hc        1 2BV      0.044200
     30 H6          2.4440   -2.4760   -0.4820 hc        1 2BV      0.044200
     31 H7          1.6160   -0.9220    2.0640 hc        1 2BV      0.043450
     32 H8          2.9000   -2.1900    1.9340 hc        1 2BV      0.043450
     33 H9          1.2280   -3.9080    1.3470 hc        1 2BV      0.039700
     34 H10        -1.1860   -3.4040    1.2890 hc        1 2BV      0.043450
     35 H11        -1.3010   -1.9530   -0.7430 hc        1 2BV      0.044200
     36 H12         0.0120   -3.1940   -0.8680 hc        1 2BV      0.044200
     37 H13         2.3090    2.1280   -3.2470 hc        1 2BV      0.116700
     38 H14         3.0110    0.6040   -2.6610 hc        1 2BV      0.116700
     39 H15         1.8280    1.7670   -0.3080 h1        1 2BV      0.092700
     40 H16         4.5240    1.7950   -1.1510 ho        1 2BV      0.403000
     41 H17         3.5160    3.8120   -1.9640 h1        1 2BV      0.040700
     42 H18         3.1040    3.9280   -0.1970 h1        1 2BV      0.040700
     43 H19         0.6940    3.8020   -1.1920 hn        1 2BV      0.394800
     44 H21         2.4540    6.0730   -1.8230 h1        1 2BV      0.058700
     45 H22        -0.6480    5.9840   -1.6130 hc        1 2BV      0.045033
     46 H23         0.3910    7.4480   -1.8790 hc        1 2BV      0.045033
     47 H24         0.3280    6.1380   -3.1350 hc        1 2BV      0.045033
     48 H25        -0.2810    4.9090    0.5860 ha        1 2BV      0.152000
     49 H26        -0.2900    5.5720    2.9810 ha        1 2BV      0.153000
     50 H27         3.2780    7.2880   -0.0650 ha        1 2BV      0.149000
     51 H28         0.7410   -3.0810    2.8790 hc        1 2BV      0.039700
     52 H29        -0.8780   -1.6640    1.6730 hc        1 2BV      0.043450
     53 HN3        -0.6180    1.4010   -3.9790 ho        1 2BV      0.476000
@<TRIPOS>BOND
     1    1    2 1   
     2    1   53 1   
     3    2    3 2   
     4    2    4 1   
     5    2   11 1   
     6    4    5 1   
     7    4   26 1   
     8    4   27 1   
     9    5    6 1   
    10    5   10 1   
    11    5   28 1   
    12    6    7 1   
    13    6   29 1   
    14    6   30 1   
    15    7    8 1   
    16    7   31 1   
    17    7   32 1   
    18    8    9 1   
    19    8   33 1   
    20    8   51 1   
    21    9   10 1   
    22    9   34 1   
    23    9   52 1   
    24   10   35 1   
    25   10   36 1   
    26   11   12 1   
    27   11   37 1   
    28   11   38 1   
    29   12   13 1   
    30   12   14 1   
    31   12   39 1   
    32   13   40 1   
    33   14   15 1   
    34   14   41 1   
    35   14   42 1   
    36   15   16 1   
    37   15   43 1   
    38   16   17 1   
    39   16   18 1   
    40   16   44 1   
    41   17   45 1   
    42   17   46 1   
    43   17   47 1   
    44   18   19 ar  
    45   18   25 ar  
    46   19   20 ar  
    47   19   48 1   
    48   20   21 ar  
    49   20   49 1   
    50   21   22 1   
    51   21   23 ar  
    52   23   24 1   
    53   23   25 ar  
    54   25   50 1   
@<TRIPOS>SUBSTRUCTURE
     1 2BV         1 TEMP              0 ****  ****    0 ROOT
