@<TRIPOS>MOLECULE
2BV
   53    54     1     0     0
SMALL
bcc


@<TRIPOS>ATOM
      1 O1          0.1800    1.6280   -2.5170 oh        1 2BV     -0.803400
      2 P           0.7400    0.8280   -1.2330 p5        1 2BV      1.504100
      3 O2         -0.1950    1.0750   -0.1350 o         1 2BV     -0.881300
      4 C12         0.8990   -0.7110   -1.7960 c3        1 2BV     -0.420600
      5 C13         0.8280   -1.7190   -0.6640 c3        1 2BV     -0.047700
      6 C18         2.1590   -2.4370   -0.4660 c3        1 2BV     -0.071900
      7 C17         2.0800   -3.4250    0.6800 c3        1 2BV     -0.077400
      8 C16         0.9720   -4.4340    0.4610 c3        1 2BV     -0.077400
      9 C15        -0.3560   -3.7430    0.2280 c3        1 2BV     -0.077400
     10 C14        -0.2700   -2.7480   -0.9110 c3        1 2BV     -0.071900
     11 C11         2.2780    1.3850   -1.0040 c3        1 2BV     -0.459600
     12 C10         2.3570    2.3580    0.1650 c3        1 2BV      0.155100
     13 O3          3.5520    2.1530    0.9100 oh        1 2BV     -0.594800
     14 C9          2.4440    3.8380   -0.2790 c3        1 2BV      0.158800
     15 N           1.1770    4.3310   -0.7820 n7        1 2BV     -0.833200
     16 C2          1.2250    5.7060   -1.2620 c3        1 2BV      0.221800
     17 C1         -0.0640    6.0760   -2.0050 c3        1 2BV     -0.090100
     18 C3          1.4760    6.7470   -0.1920 ca        1 2BV     -0.111300
     19 C8          0.6280    6.8480    0.9170 ca        1 2BV     -0.117000
     20 C7          0.8540    7.8160    1.8910 ca        1 2BV     -0.114000
     21 C6          1.9310    8.7010    1.7670 ca        1 2BV      0.018400
     22 Cl1         2.1820    9.8720    2.9680 cl        1 2BV     -0.067400
     23 C5          2.7820    8.6060    0.6560 ca        1 2BV      0.018400
     24 Cl2         4.0980    9.6600    0.4660 cl        1 2BV     -0.069400
     25 C4          2.5520    7.6280   -0.3180 ca        1 2BV     -0.110000
     26 H2          1.8420   -0.8700   -2.3810 hc        1 2BV      0.109200
     27 H3          0.0830   -0.9330   -2.5390 hc        1 2BV      0.109200
     28 H4          0.5690   -1.1730    0.2920 hc        1 2BV      0.069700
     29 H5          2.9730   -1.6940   -0.2590 hc        1 2BV      0.040950
     30 H6          2.4310   -2.9780   -1.4100 hc        1 2BV      0.040950
     31 H7          1.8990   -2.8730    1.6390 hc        1 2BV      0.043700
     32 H8          3.0610   -3.9590    0.7780 hc        1 2BV      0.043700
     33 H9          1.2200   -5.0760   -0.4240 hc        1 2BV      0.041200
     34 H10        -1.1420   -4.5070   -0.0040 hc        1 2BV      0.043700
     35 H11        -1.2560   -2.2250   -1.0220 hc        1 2BV      0.040950
     36 H12        -0.0600   -3.2900   -1.8710 hc        1 2BV      0.040950
     37 H13         2.6650    1.8970   -1.9250 hc        1 2BV      0.112700
     38 H14         3.0130    0.5580   -0.8140 hc        1 2BV      0.112700
     39 H15         1.4610    2.2030    0.8380 h1        1 2BV      0.080700
     40 H16         3.4350    1.3320    1.4020 ho        1 2BV      0.403000
     41 H17         3.2140    3.9260   -1.0940 h1        1 2BV      0.053200
     42 H18         2.8210    4.4310    0.6060 h1        1 2BV      0.053200
     43 H19        -0.3550    2.3950   -2.3300 ho        1 2BV      0.478000
     44 H21         2.0760    5.7570   -2.0090 h1        1 2BV      0.064700
     45 H22         0.0450    7.1030   -2.4280 hc        1 2BV      0.045367
     46 H23        -0.2520    5.3600   -2.8400 hc        1 2BV      0.045367
     47 H24        -0.9410    6.0640   -1.3150 hc        1 2BV      0.045367
     48 H25        -0.2280    6.1640    1.0220 ha        1 2BV      0.143000
     49 H26         0.1830    7.8880    2.7620 ha        1 2BV      0.153000
     50 H27         3.2250    7.5570   -1.1870 ha        1 2BV      0.151000
     51 H28         0.8940   -5.1070    1.3540 hc        1 2BV      0.041200
     52 H29        -0.6700   -3.2100    1.1650 hc        1 2BV      0.043700
     53 HN3         0.4570    4.2280   -0.0890 hn        1 2BV      0.369800
@<TRIPOS>BOND
     1    1    2 1   
     2    1   43 1   
     3    2    3 2   
     4    2    4 1   
     5    2   11 1   
     6    4    5 1   
     7    4   26 1   
     8    4   27 1   
     9    5    6 1   
    10    5   10 1   
    11    5   28 1   
    12    6    7 1   
    13    6   29 1   
    14    6   30 1   
    15    7    8 1   
    16    7   31 1   
    17    7   32 1   
    18    8    9 1   
    19    8   33 1   
    20    8   51 1   
    21    9   10 1   
    22    9   34 1   
    23    9   52 1   
    24   10   35 1   
    25   10   36 1   
    26   11   12 1   
    27   11   37 1   
    28   11   38 1   
    29   12   13 1   
    30   12   14 1   
    31   12   39 1   
    32   13   40 1   
    33   14   15 1   
    34   14   41 1   
    35   14   42 1   
    36   15   16 1   
    37   15   53 1   
    38   16   17 1   
    39   16   18 1   
    40   16   44 1   
    41   17   45 1   
    42   17   46 1   
    43   17   47 1   
    44   18   19 ar  
    45   18   25 ar  
    46   19   20 ar  
    47   19   48 1   
    48   20   21 ar  
    49   20   49 1   
    50   21   22 1   
    51   21   23 ar  
    52   23   24 1   
    53   23   25 ar  
    54   25   50 1   
@<TRIPOS>SUBSTRUCTURE
     1 2BV         1 TEMP              0 ****  ****    0 ROOT
