@<TRIPOS>MOLECULE
2BV
   54    55     1     0     0
SMALL
bcc


@<TRIPOS>ATOM
      1 O1          1.6300    0.6900    1.3330 o         1 2BV     -0.897300
      2 P           2.8080    0.0210    0.7720 p5        1 2BV      1.514100
      3 O2          3.9030   -0.0090    1.9470 oh        1 2BV     -0.809400
      4 C12         2.7450   -1.4830    0.1570 c3        1 2BV     -0.458600
      5 C13         1.3630   -1.7980   -0.3990 c3        1 2BV     -0.049700
      6 C18         1.3920   -1.9620   -1.9150 c3        1 2BV     -0.072400
      7 C17         0.0070   -2.2510   -2.4570 c3        1 2BV     -0.077400
      8 C16        -0.5890   -3.4850   -1.8100 c3        1 2BV     -0.080400
      9 C15        -0.5930   -3.3630   -0.3010 c3        1 2BV     -0.077400
     10 C14         0.7920   -3.0630    0.2350 c3        1 2BV     -0.072400
     11 C11         3.4930    1.0000   -0.3980 c3        1 2BV     -0.433600
     12 C10         3.3950    2.4530    0.0230 c3        1 2BV      0.171100
     13 O3          4.3910    3.2830   -0.5510 oh        1 2BV     -0.624800
     14 C9          2.0530    3.0920   -0.4180 c3        1 2BV      0.088800
     15 N           1.9150    4.4790    0.0970 n4        1 2BV     -0.759000
     16 C2          0.6060    5.1280   -0.3100 c3        1 2BV      0.200800
     17 C1         -0.5730    4.5540    0.4640 c3        1 2BV     -0.127100
     18 C3          0.7210    6.6130   -0.1270 ca        1 2BV     -0.176300
     19 C8          0.7490    7.1790    1.1530 ca        1 2BV     -0.106000
     20 C7          0.8310    8.5590    1.3050 ca        1 2BV     -0.109000
     21 C6          0.8850    9.3930    0.1780 ca        1 2BV      0.048400
     22 CL1         0.9820   11.0620    0.3930 cl        1 2BV     -0.009400
     23 C5          0.8570    8.8250   -1.1080 ca        1 2BV      0.014400
     24 CL2         0.9170    9.7900   -2.4920 cl        1 2BV     -0.019400
     25 C4          0.7770    7.4350   -1.2540 ca        1 2BV     -0.088000
     26 H1          3.6010    0.2040    2.8270 ho        1 2BV      0.489000
     27 H2          3.5090   -1.6750   -0.6440 hc        1 2BV      0.127700
     28 H3          3.0010   -2.2540    0.9400 hc        1 2BV      0.127700
     29 H4          0.6660   -0.9460   -0.1430 hc        1 2BV      0.062700
     30 H5          2.0820   -2.8050   -2.1830 hc        1 2BV      0.042450
     31 H6          1.7920   -1.0320   -2.3980 hc        1 2BV      0.042450
     32 H7          0.0670   -2.4000   -3.5670 hc        1 2BV      0.047700
     33 H8         -0.6620   -1.3700   -2.2700 hc        1 2BV      0.047700
     34 H9          0.0030   -4.3880   -2.1120 hc        1 2BV      0.051200
     35 H10        -0.9650   -4.3190    0.1520 hc        1 2BV      0.047700
     36 H11         1.4750   -3.9260    0.0190 hc        1 2BV      0.042450
     37 H12         0.7400   -2.9380    1.3480 hc        1 2BV      0.042450
     38 H13         4.5770    0.7500   -0.5580 hc        1 2BV      0.120700
     39 H14         3.0140    0.8600   -1.4020 hc        1 2BV      0.120700
     40 H15         3.4850    2.4940    1.1520 h1        1 2BV      0.060700
     41 H16         5.2480    2.8470   -0.4520 ho        1 2BV      0.445000
     42 H17         1.2110    2.4590    0.0010 hx        1 2BV      0.131200
     43 H18         2.0060    3.1240   -1.5420 hx        1 2BV      0.131200
     44 H19         1.9740    4.4660    1.1210 hn        1 2BV      0.455800
     45 H21         0.4700    4.8900   -1.4110 hx        1 2BV      0.104700
     46 H22        -0.7090    3.4650    0.2530 hc        1 2BV      0.080367
     47 H23        -0.4580    4.6970    1.5660 hc        1 2BV      0.080367
     48 H24        -1.4970    5.0960    0.1370 hc        1 2BV      0.080367
     49 H25         0.6890    6.5420    2.0490 ha        1 2BV      0.142000
     50 H26         0.8470    9.0020    2.3150 ha        1 2BV      0.174000
     51 H27         0.7470    7.0000   -2.2670 ha        1 2BV      0.158000
     52 H28        -1.6380   -3.6310   -2.1790 hc        1 2BV      0.051200
     53 H29        -1.2990   -2.5480    0.0090 hc        1 2BV      0.047700
     54 HN3         2.6990    5.0440   -0.2610 hn        1 2BV      0.455800
@<TRIPOS>BOND
     1    1    2 2   
     2    2    3 1   
     3    2    4 1   
     4    2   11 1   
     5    3   26 1   
     6    4    5 1   
     7    4   27 1   
     8    4   28 1   
     9    5    6 1   
    10    5   10 1   
    11    5   29 1   
    12    6    7 1   
    13    6   30 1   
    14    6   31 1   
    15    7    8 1   
    16    7   32 1   
    17    7   33 1   
    18    8    9 1   
    19    8   34 1   
    20    8   52 1   
    21    9   10 1   
    22    9   35 1   
    23    9   53 1   
    24   10   36 1   
    25   10   37 1   
    26   11   12 1   
    27   11   38 1   
    28   11   39 1   
    29   12   13 1   
    30   12   14 1   
    31   12   40 1   
    32   13   41 1   
    33   14   15 1   
    34   14   42 1   
    35   14   43 1   
    36   15   16 1   
    37   15   44 1   
    38   15   54 1   
    39   16   17 1   
    40   16   18 1   
    41   16   45 1   
    42   17   46 1   
    43   17   47 1   
    44   17   48 1   
    45   18   19 ar  
    46   18   25 ar  
    47   19   20 ar  
    48   19   49 1   
    49   20   21 ar  
    50   20   50 1   
    51   21   22 1   
    52   21   23 ar  
    53   23   24 1   
    54   23   25 ar  
    55   25   51 1   
@<TRIPOS>SUBSTRUCTURE
     1 2BV         1 TEMP              0 ****  ****    0 ROOT
