@<TRIPOS>MOLECULE
2BV
   53    54     1     0     0
SMALL
bcc


@<TRIPOS>ATOM
      1 O1         -2.8040    1.6310    0.8010 o         1 2BV     -0.881300
      2 P          -3.3700    0.7480    1.8210 p5        1 2BV      1.504100
      3 O2         -3.4400    1.6350    3.1670 oh        1 2BV     -0.806400
      4 C12        -4.9070    0.1990    1.6270 c3        1 2BV     -0.425600
      5 C13        -5.1930   -0.1220    0.1710 c3        1 2BV     -0.047700
      6 C18        -5.4260   -1.6150   -0.0410 c3        1 2BV     -0.071900
      7 C17        -5.6900   -1.9240   -1.5000 c3        1 2BV     -0.077400
      8 C16        -6.8700   -1.1330   -2.0250 c3        1 2BV     -0.078400
      9 C15        -6.6760    0.3520   -1.7950 c3        1 2BV     -0.077400
     10 C14        -6.4030    0.6550   -0.3370 c3        1 2BV     -0.071900
     11 C11        -2.4670   -0.5790    2.2160 c3        1 2BV     -0.456600
     12 C10        -1.0120   -0.3790    1.8150 c3        1 2BV      0.117100
     13 O3         -0.1380   -0.5880    2.9110 oh        1 2BV     -0.593800
     14 C9         -0.6160   -1.2980    0.6360 c3        1 2BV      0.140800
     15 N           0.7380   -1.1550    0.1620 n3        1 2BV     -0.813200
     16 C2          0.9220   -0.2280   -0.9520 c3        1 2BV      0.215800
     17 C1          0.4660    1.2150   -0.7190 c3        1 2BV     -0.141100
     18 C3          2.3700   -0.2130   -1.3860 ca        1 2BV     -0.060300
     19 C8          3.3690    0.2550   -0.5260 ca        1 2BV     -0.116000
     20 C7          4.6990    0.2790   -0.9370 ca        1 2BV     -0.116000
     21 C6          5.0450   -0.1660   -2.2180 ca        1 2BV      0.015400
     22 CL1         6.6730   -0.1220   -2.6950 cl        1 2BV     -0.073400
     23 C5          4.0470   -0.6390   -3.0830 ca        1 2BV      0.018400
     24 CL2         4.4270   -1.1890   -4.6430 cl        1 2BV     -0.073400
     25 C4          2.7130   -0.6650   -2.6620 ca        1 2BV     -0.108000
     26 H1         -3.0560    2.5070    3.1100 ho        1 2BV      0.478000
     27 H2         -5.1360   -0.6990    2.2590 hc        1 2BV      0.110200
     28 H3         -5.6440    0.9710    1.9850 hc        1 2BV      0.110200
     29 H4         -4.3030    0.1940   -0.4520 hc        1 2BV      0.068700
     30 H5         -4.5330   -2.1980    0.3050 hc        1 2BV      0.040700
     31 H6         -6.3020   -1.9430    0.5780 hc        1 2BV      0.040700
     32 H7         -4.7770   -1.6810   -2.1050 hc        1 2BV      0.044450
     33 H8         -5.8900   -3.0210   -1.6170 hc        1 2BV      0.044450
     34 H9         -6.9970   -1.3310   -3.1210 hc        1 2BV      0.041700
     35 H10        -5.8190    0.7190   -2.4190 hc        1 2BV      0.044450
     36 H11        -7.3010    0.3870    0.2800 hc        1 2BV      0.040700
     37 H12        -6.2210    1.7550   -0.2140 hc        1 2BV      0.040700
     38 H13        -2.4990   -0.7650    3.3250 hc        1 2BV      0.112200
     39 H14        -2.8550   -1.5210    1.7490 hc        1 2BV      0.112200
     40 H15        -0.8350    0.7060    1.5370 h1        1 2BV      0.110700
     41 H16        -0.1660   -1.5270    3.1320 ho        1 2BV      0.402000
     42 H17        -0.7180   -2.3670    0.9860 h1        1 2BV      0.054200
     43 H18        -1.3370   -1.1400   -0.2120 h1        1 2BV      0.054200
     44 H19         1.3520   -0.9210    0.9230 hn        1 2BV      0.371800
     45 H21         0.2990   -0.6440   -1.8040 h1        1 2BV      0.061700
     46 H22         0.6970    1.8270   -1.6230 hc        1 2BV      0.054700
     47 H23        -0.6370    1.2620   -0.5350 hc        1 2BV      0.054700
     48 H24         0.9940    1.6650    0.1560 hc        1 2BV      0.054700
     49 H25         3.1060    0.6120    0.4820 ha        1 2BV      0.142000
     50 H26         5.4800    0.6480   -0.2560 ha        1 2BV      0.151000
     51 H27         1.9340   -1.0460   -3.3410 ha        1 2BV      0.152000
     52 H28        -7.8070   -1.4720   -1.5100 hc        1 2BV      0.041700
     53 H29        -7.5940    0.9060   -2.1240 hc        1 2BV      0.044450
@<TRIPOS>BOND
     1    1    2 2   
     2    2    3 1   
     3    2    4 1   
     4    2   11 1   
     5    3   26 1   
     6    4    5 1   
     7    4   27 1   
     8    4   28 1   
     9    5    6 1   
    10    5   10 1   
    11    5   29 1   
    12    6    7 1   
    13    6   30 1   
    14    6   31 1   
    15    7    8 1   
    16    7   32 1   
    17    7   33 1   
    18    8    9 1   
    19    8   34 1   
    20    8   52 1   
    21    9   10 1   
    22    9   35 1   
    23    9   53 1   
    24   10   36 1   
    25   10   37 1   
    26   11   12 1   
    27   11   38 1   
    28   11   39 1   
    29   12   13 1   
    30   12   14 1   
    31   12   40 1   
    32   13   41 1   
    33   14   15 1   
    34   14   42 1   
    35   14   43 1   
    36   15   16 1   
    37   15   44 1   
    38   16   17 1   
    39   16   18 1   
    40   16   45 1   
    41   17   46 1   
    42   17   47 1   
    43   17   48 1   
    44   18   19 ar  
    45   18   25 ar  
    46   19   20 ar  
    47   19   49 1   
    48   20   21 ar  
    49   20   50 1   
    50   21   22 1   
    51   21   23 ar  
    52   23   24 1   
    53   23   25 ar  
    54   25   51 1   
@<TRIPOS>SUBSTRUCTURE
     1 2BV         1 TEMP              0 ****  ****    0 ROOT
