@<TRIPOS>MOLECULE
2BV
   53    51     1     0     0
SMALL
bcc


@<TRIPOS>ATOM
      1 O1         -2.1060   -1.4780    0.2200 o         1 2BV     -1.149000
      2 P          -0.6930   -1.6330   -0.0510 p3        1 2BV      2.818000
      3 O2          0.0810   -1.8170    1.3100 oh        1 2BV     -0.840000
      4 C12        -0.4210   -3.1480   -1.1430 c3        1 2BV     -0.905000
      5 C13        -1.0760   -4.2130   -0.6160 c3        1 2BV     -0.082000
      6 C18        -2.0530   -4.9210   -1.6830 c3        1 2BV     -0.152000
      7 C17        -2.7710   -6.1290   -1.1120 c3        1 2BV     -0.154500
      8 C16        -2.1490   -6.5970   -0.0030 c3        1 2BV     -0.156000
      9 C15        -0.8140   -6.6710    0.1710 c3        1 2BV     -0.154500
     10 C14        -0.1070   -5.4570   -0.4010 c3        1 2BV     -0.152000
     11 C11        -0.0890   -0.1980   -0.8840 c2        1 2BV     -0.921000
     12 C10        -0.1540    1.0000    0.0450 c3        1 2BV      0.053000
     13 O3          0.5860    0.7460    1.1770 oh        1 2BV     -0.332000
     14 C9          0.4150    2.2390   -0.6700 c3        1 2BV     -0.110000
     15 N           0.2080    3.4090    0.1600 n3        1 2BV     -0.305000
     16 C2          0.8720    4.5230   -0.4110 c3        1 2BV      0.018000
     17 C1         -0.1360    5.4220   -1.0730 c3        1 2BV     -0.248000
     18 C3          1.6200    5.3020    0.6970 c2        1 2BV     -0.060000
     19 C8          0.9150    5.8490    1.7770 c2        1 2BV     -0.116000
     20 C7          1.5840    6.5420    2.7460 c1        1 2BV     -0.115000
     21 C6          2.9450    6.7000    2.6580 c1        1 2BV     -0.060500
     22 CL1         3.7930    7.6270    3.8610 cl        1 2BV      0.009500
     23 C5          3.6350    6.1570    1.5910 c1        1 2BV     -0.060500
     24 CL2         5.3500    6.3330    1.4920 cl        1 2BV      0.009500
     25 C4          2.9580    5.4590    0.6150 c1        1 2BV     -0.106000
     26 H1          0.5140   -2.5630    1.2960 ho        1 2BV      0.276000
     27 H2         -0.7680   -2.9630   -2.0650 hc        1 2BV      0.147500
     28 H3          0.5510   -3.3500   -1.1890 hc        1 2BV      0.147500
     29 H4         -1.5550   -3.9790    0.2150 hc        1 2BV      0.100000
     30 H5         -1.5090   -5.2140   -2.4750 hc        1 2BV      0.082250
     31 H6         -2.7260   -4.2620   -1.9860 hc        1 2BV      0.082250
     32 H7         -2.7980   -6.8410   -1.7900 hc        1 2BV      0.079500
     33 H8         -3.7080   -5.8660   -0.8730 hc        1 2BV      0.079500
     34 H9         -2.4900   -7.5030    0.1380 hc        1 2BV      0.082500
     35 H10        -0.4900   -7.4440   -0.2630 hc        1 2BV      0.079500
     36 H11         0.2870   -5.6990   -1.2590 hc        1 2BV      0.082250
     37 H12         0.6070   -5.1930    0.2110 hc        1 2BV      0.082250
     38 H13        -0.6410   -0.0270   -1.6770 ha        1 2BV      0.162500
     39 H14         0.8260   -0.3450   -1.1540 ha        1 2BV      0.162500
     40 H15        -1.0940    1.1690    0.2980 h1        1 2BV      0.121000
     41 H16         0.0910    0.9670    1.9220 ho        1 2BV      0.222000
     42 H17         1.4050    2.1110   -0.8330 h1        1 2BV      0.079000
     43 H18        -0.0430    2.3590   -1.5240 h1        1 2BV      0.079000
     44 H19        -0.6730    3.5820    0.2190 hn        1 2BV      0.163000
     45 H21         1.4960    4.2210   -1.0590 h1        1 2BV      0.105000
     46 H22        -0.9770    5.3830   -0.5830 hc        1 2BV      0.083000
     47 H23         0.2030    6.3600   -1.0770 hc        1 2BV      0.083000
     48 H24        -0.2840    5.1160   -2.0170 hc        1 2BV      0.083000
     49 H25        -0.0680    5.7340    1.8370 ha        1 2BV      0.140000
     50 H26         1.0920    6.9280    3.5050 ha        1 2BV      0.153000
     51 H27         3.4610    5.0640   -0.1620 ha        1 2BV      0.153000
     52 H28        -2.4850   -6.0510    0.7410 hc        1 2BV      0.082500
     53 H29        -0.6160   -6.7360    1.1300 hc        1 2BV      0.079500
@<TRIPOS>BOND
     1    1    2 1   
     2    2    3 1   
     3    2    4 1   
     4    3   26 1   
     5    4    5 1   
     6    4   27 1   
     7    4   28 1   
     8    5    6 1   
     9    5   10 1   
    10    5   29 1   
    11    6    7 1   
    12    6   30 1   
    13    6   31 1   
    14    7    8 1   
    15    7   32 1   
    16    7   33 1   
    17    8    9 1   
    18    8   34 1   
    19    8   52 1   
    20    9   10 1   
    21    9   35 1   
    22    9   53 1   
    23   10   36 1   
    24   10   37 1   
    25   11   12 1   
    26   11   38 1   
    27   11   39 1   
    28   12   13 1   
    29   12   14 1   
    30   12   40 1   
    31   13   41 1   
    32   14   15 1   
    33   14   42 1   
    34   14   43 1   
    35   15   16 1   
    36   15   44 1   
    37   16   17 1   
    38   16   18 1   
    39   16   45 1   
    40   17   46 1   
    41   17   47 1   
    42   17   48 1   
    43   18   19 1   
    44   18   25 1   
    45   19   20 1   
    46   19   49 1   
    47   20   50 1   
    48   21   22 1   
    49   21   23 1   
    50   23   24 1   
    51   25   51 1   
@<TRIPOS>SUBSTRUCTURE
     1 2BV         1 TEMP              0 ****  ****    0 ROOT
