@<TRIPOS>MOLECULE
2BW
   34    32     1     0     0
SMALL
bcc


@<TRIPOS>ATOM
      1 O3         -2.5430   -0.5670    0.2030 oh        1 2BW     -0.816000
      2 P          -1.0500   -0.2590    0.6570 p3        1 2BW      2.825000
      3 O4         -1.0140   -0.0440    2.1260 o         1 2BW     -1.105000
      4 C6          0.0280   -1.6800    0.2210 c2        1 2BW     -0.915000
      5 C7         -0.3000   -2.8720    1.1340 c3        1 2BW     -0.159000
      6 C8          0.5660   -4.0750    0.7370 c3        1 2BW     -0.066000
      7 N           0.2580   -5.1880    1.5880 n3        1 2BW     -0.349000
      8 C3         -0.4490    1.2530   -0.1990 c3        1 2BW     -0.506000
      9 O2          0.4540    1.9540    0.6520 os        1 2BW     -0.308000
     10 C4         -0.0860    3.1500    1.2060 c3        1 2BW     -0.015500
     11 C5          0.9790    3.8420    2.0630 c3        1 2BW     -0.219000
     12 O1          0.2220    0.8840   -1.4000 os        1 2BW     -0.308000
     13 C2         -0.0270    1.7630   -2.4950 c3        1 2BW     -0.015500
     14 C1          0.7070    1.2490   -3.7420 c3        1 2BW     -0.219000
     15 H1         -2.5680   -0.6800   -0.6790 ho        1 2BW      0.274000
     16 H2          0.9690   -1.4260    0.3400 ha        1 2BW      0.155500
     17 H3         -0.1270   -1.9330   -0.7160 ha        1 2BW      0.155500
     18 H4         -0.1160   -2.6300    2.0680 hc        1 2BW      0.109000
     19 H5         -1.2500   -3.1070    1.0370 hc        1 2BW      0.109000
     20 H6          0.3830   -4.3170   -0.1980 h1        1 2BW      0.064000
     21 H7          1.5160   -3.8410    0.8340 h1        1 2BW      0.064000
     22 H8          1.0160   -5.4510    2.0340 hn        1 2BW      0.146500
     23 H9         -0.0550   -5.8850    1.0790 hn        1 2BW      0.146500
     24 H11        -1.2120    1.8320   -0.4150 h2        1 2BW      0.127000
     25 H12        -0.3640    3.7510    0.4800 h1        1 2BW      0.074500
     26 H13        -0.8640    2.9300    1.7650 h1        1 2BW      0.074500
     27 H14         1.2680    3.2350    2.7790 hc        1 2BW      0.088167
     28 H15         1.7500    4.0770    1.5010 hc        1 2BW      0.088167
     29 H16         0.6010    4.6590    2.4590 hc        1 2BW      0.088167
     30 H17        -0.9930    1.7990   -2.6740 h1        1 2BW      0.074500
     31 H18         0.2990    2.6640   -2.2710 h1        1 2BW      0.074500
     32 H19         1.3300    1.9560   -3.4640 hc        1 2BW      0.088167
     33 H20         0.8830    1.6670   -4.6170 hc        1 2BW      0.088167
     34 H21        -0.2100    1.2880   -4.0940 hc        1 2BW      0.088167
@<TRIPOS>BOND
     1    1    2 1   
     2    1   15 1   
     3    2    3 1   
     4    2    8 1   
     5    4    5 1   
     6    4   16 1   
     7    4   17 1   
     8    5    6 1   
     9    5   18 1   
    10    5   19 1   
    11    6    7 1   
    12    6   20 1   
    13    6   21 1   
    14    7   22 1   
    15    7   23 1   
    16    8    9 1   
    17    8   12 1   
    18    8   24 1   
    19    9   10 1   
    20   10   11 1   
    21   10   25 1   
    22   10   26 1   
    23   11   27 1   
    24   11   28 1   
    25   11   29 1   
    26   12   13 1   
    27   13   14 1   
    28   13   30 1   
    29   13   31 1   
    30   14   32 1   
    31   14   33 1   
    32   14   34 1   
@<TRIPOS>SUBSTRUCTURE
     1 2BW         1 TEMP              0 ****  ****    0 ROOT
