@<TRIPOS>MOLECULE
2BW
   34    33     1     0     0
SMALL
bcc


@<TRIPOS>ATOM
      1 O3          0.6210   -0.1220    0.7820 o         1 2BW     -0.858500
      2 P           2.0290   -0.0170    0.3280 p5        1 2BW      1.235400
      3 O4          3.1610   -0.2630    1.2530 o         1 2BW     -0.858500
      4 C6          2.2000   -1.2440   -0.9000 c3        1 2BW     -0.314600
      5 C7          1.9590   -2.4910   -0.1090 c3        1 2BW     -0.116400
      6 C8          2.0320   -3.7250   -0.9860 c3        1 2BW      0.115800
      7 N           1.7530   -4.9630   -0.1850 n4        1 2BW     -0.845600
      8 C3          2.3460    1.4360   -0.5480 c3        1 2BW      0.125700
      9 O2          1.9060    1.2740   -1.8710 os        1 2BW     -0.443100
     10 C4          2.3920    2.2590   -2.7840 c3        1 2BW      0.121900
     11 C5          1.5280    2.1890   -4.0210 c3        1 2BW     -0.092100
     12 O1          1.7450    2.5910   -0.0000 os        1 2BW     -0.443100
     13 C2          0.3440    2.7790   -0.2450 c3        1 2BW      0.121900
     14 C1         -0.0780    3.9560    0.6020 c3        1 2BW     -0.092100
     15 H2          1.4490   -1.1010   -1.7080 hc        1 2BW      0.073200
     16 H3          3.2130   -1.2220   -1.3550 hc        1 2BW      0.073200
     17 H4          0.9420   -2.3940    0.3730 hc        1 2BW      0.099700
     18 H5          2.7320   -2.5270    0.7130 hc        1 2BW      0.099700
     19 H6          1.2660   -3.6700   -1.8110 hx        1 2BW      0.096700
     20 H7          3.0580   -3.8330   -1.4370 hx        1 2BW      0.096700
     21 H8          2.4390   -5.0360    0.5730 hn        1 2BW      0.449133
     22 H9          0.8200   -4.8890    0.2340 hn        1 2BW      0.449133
     23 H11         3.4480    1.6910   -0.5080 h2        1 2BW      0.074700
     24 H12         3.4630    2.0230   -3.0220 h1        1 2BW      0.041200
     25 H13         2.3380    3.2760   -2.3110 h1        1 2BW      0.041200
     26 H14         0.4660    2.4170   -3.7630 hc        1 2BW      0.036367
     27 H15         1.5680    1.1690   -4.4700 hc        1 2BW      0.036367
     28 H16         1.8900    2.9320   -4.7710 hc        1 2BW      0.036367
     29 H17        -0.2030    1.8370    0.0400 h1        1 2BW      0.041200
     30 H18         0.1930    2.9880   -1.3370 h1        1 2BW      0.041200
     31 H19         0.0900    3.7330    1.6830 hc        1 2BW      0.036367
     32 H20         0.5110    4.8650    0.3350 hc        1 2BW      0.036367
     33 H21        -1.1620    4.1580    0.4340 hc        1 2BW      0.036367
     34 HN3         1.7990   -5.7970   -0.7690 hn        1 2BW      0.449133
@<TRIPOS>BOND
     1    1    2 1   
     2    2    3 1   
     3    2    4 1   
     4    2    8 1   
     5    4    5 1   
     6    4   15 1   
     7    4   16 1   
     8    5    6 1   
     9    5   17 1   
    10    5   18 1   
    11    6    7 1   
    12    6   19 1   
    13    6   20 1   
    14    7   21 1   
    15    7   22 1   
    16    7   34 1   
    17    8    9 1   
    18    8   12 1   
    19    8   23 1   
    20    9   10 1   
    21   10   11 1   
    22   10   24 1   
    23   10   25 1   
    24   11   26 1   
    25   11   27 1   
    26   11   28 1   
    27   12   13 1   
    28   13   14 1   
    29   13   29 1   
    30   13   30 1   
    31   14   31 1   
    32   14   32 1   
    33   14   33 1   
@<TRIPOS>SUBSTRUCTURE
     1 2BW         1 TEMP              0 ****  ****    0 ROOT
