@<TRIPOS>MOLECULE
2BW
   35    34     1     0     0
SMALL
bcc


@<TRIPOS>ATOM
      1 O3         -0.1990   -0.5540    0.4100 oh        1 2BW     -0.795400
      2 P           1.3610   -0.2420    0.2400 p5        1 2BW      1.494100
      3 O4          2.0820   -0.3690    1.5000 o         1 2BW     -0.851300
      4 C6          1.8170   -1.4060   -0.8600 c3        1 2BW     -0.373600
      5 C7          1.8720   -2.6960   -0.0880 c3        1 2BW     -0.112400
      6 C8          2.3640   -3.8350   -0.9630 c3        1 2BW      0.112800
      7 N           2.4910   -5.1120   -0.1960 n4        1 2BW     -0.840600
      8 C3          1.5190    1.2910   -0.4620 c3        1 2BW      0.072700
      9 O2          1.6620    1.0870   -1.8440 os        1 2BW     -0.461600
     10 C4          2.3070    2.1310   -2.5850 c3        1 2BW      0.133400
     11 C5          1.5540    2.3150   -3.8810 c3        1 2BW     -0.123600
     12 O1          0.2460    1.8520   -0.2410 os        1 2BW     -0.461600
     13 C2          0.0730    3.2490   -0.4780 c3        1 2BW      0.133400
     14 C1          0.9250    4.1060    0.4240 c3        1 2BW     -0.123600
     15 H1         -0.7950    0.1470    0.6640 ho        1 2BW      0.502000
     16 H2          1.0940   -1.4800   -1.7150 hc        1 2BW      0.119200
     17 H3          2.8060   -1.1730   -1.3300 hc        1 2BW      0.119200
     18 H4          0.8400   -2.9090    0.3070 hc        1 2BW      0.099700
     19 H5          2.5510   -2.5420    0.8020 hc        1 2BW      0.099700
     20 H6          1.6450   -4.0140   -1.8140 hx        1 2BW      0.112200
     21 H7          3.3790   -3.5890   -1.3900 hx        1 2BW      0.112200
     22 H8          2.8330   -5.8600   -0.8060 hn        1 2BW      0.462467
     23 H9          3.1460   -4.9870    0.5850 hn        1 2BW      0.462467
     24 H11         2.3340    1.9380   -0.0370 h2        1 2BW      0.103700
     25 H12         3.3580    1.7810   -2.7720 h1        1 2BW      0.054450
     26 H13         2.3390    3.0830   -1.9940 h1        1 2BW      0.054450
     27 H14         1.4980    1.3510   -4.4400 hc        1 2BW      0.053533
     28 H15         2.0830    3.0700   -4.5100 hc        1 2BW      0.053533
     29 H16         0.5130    2.6670   -3.6850 hc        1 2BW      0.053533
     30 H17         0.2680    3.4650   -1.5610 h1        1 2BW      0.054450
     31 H18        -1.0220    3.3940   -0.2590 h1        1 2BW      0.054450
     32 H19         0.8730    3.7440    1.4790 hc        1 2BW      0.053533
     33 H20         1.9930    4.1000    0.0990 hc        1 2BW      0.053533
     34 H21         0.5550    5.1600    0.3890 hc        1 2BW      0.053533
     35 HN3         1.5790   -5.3830    0.1880 hn        1 2BW      0.462467
@<TRIPOS>BOND
     1    1    2 1   
     2    1   15 1   
     3    2    3 2   
     4    2    4 1   
     5    2    8 1   
     6    4    5 1   
     7    4   16 1   
     8    4   17 1   
     9    5    6 1   
    10    5   18 1   
    11    5   19 1   
    12    6    7 1   
    13    6   20 1   
    14    6   21 1   
    15    7   22 1   
    16    7   23 1   
    17    7   35 1   
    18    8    9 1   
    19    8   12 1   
    20    8   24 1   
    21    9   10 1   
    22   10   11 1   
    23   10   25 1   
    24   10   26 1   
    25   11   27 1   
    26   11   28 1   
    27   11   29 1   
    28   12   13 1   
    29   13   14 1   
    30   13   30 1   
    31   13   31 1   
    32   14   32 1   
    33   14   33 1   
    34   14   34 1   
@<TRIPOS>SUBSTRUCTURE
     1 2BW         1 TEMP              0 ****  ****    0 ROOT
