@<TRIPOS>MOLECULE
2BW
   34    33     1     0     0
SMALL
bcc


@<TRIPOS>ATOM
      1 O3          0.6020    0.7140    1.7740 oh        1 2BW     -0.781400
      2 P           0.5160    0.6060    0.1750 p5        1 2BW      1.496100
      3 O4          0.5940    1.9270   -0.4350 o         1 2BW     -0.858300
      4 C6          1.6470   -0.5030   -0.2300 c3        1 2BW     -0.409600
      5 C7          2.9990    0.1410   -0.0520 c3        1 2BW     -0.079400
      6 C8          4.1240   -0.8270   -0.4040 c3        1 2BW      0.170800
      7 N           5.4380   -0.2370   -0.3070 n3        1 2BW     -0.915800
      8 C3         -1.0170   -0.0830   -0.1560 c3        1 2BW      0.084700
      9 O2         -0.8750   -1.4640    0.0450 os        1 2BW     -0.443600
     10 C4         -1.9720   -2.3000   -0.3180 c3        1 2BW      0.133400
     11 C5         -2.7510   -2.7120    0.9080 c3        1 2BW     -0.127100
     12 O1         -1.8200    0.4130    0.8930 os        1 2BW     -0.443600
     13 C2         -3.1850    0.6880    0.5800 c3        1 2BW      0.133400
     14 C1         -3.3300    1.9980   -0.1550 c3        1 2BW     -0.127100
     15 H1         -0.0860    1.2080    2.2100 ho        1 2BW      0.481000
     16 H2          1.5850   -1.4300    0.4030 hc        1 2BW      0.114700
     17 H3          1.5420   -0.8710   -1.2830 hc        1 2BW      0.114700
     18 H4          3.0490    1.0570   -0.7020 hc        1 2BW      0.071200
     19 H5          3.0920    0.4780    1.0160 hc        1 2BW      0.071200
     20 H6          4.0100   -1.7430    0.2520 h1        1 2BW      0.024700
     21 H7          3.9890   -1.1680   -1.4700 h1        1 2BW      0.024700
     22 H8          5.5580    0.2420    0.5630 hn        1 2BW      0.350800
     23 H9          6.1420   -0.9420   -0.3970 hn        1 2BW      0.350800
     24 H11        -1.4460    0.1550   -1.1640 h2        1 2BW      0.082700
     25 H12        -2.6310   -1.7920   -1.0690 h1        1 2BW      0.047200
     26 H13        -1.4860   -3.1950   -0.7980 h1        1 2BW      0.047200
     27 H14        -3.1410   -1.8120    1.4430 hc        1 2BW      0.048867
     28 H15        -3.6060   -3.3650    0.6110 hc        1 2BW      0.048867
     29 H16        -2.0930   -3.2740    1.6140 hc        1 2BW      0.048867
     30 H17        -3.6230   -0.1580   -0.0110 h1        1 2BW      0.047200
     31 H18        -3.6760    0.7330    1.5910 h1        1 2BW      0.047200
     32 H19        -2.8620    2.8290    0.4270 hc        1 2BW      0.048867
     33 H20        -2.8310    1.9540   -1.1530 hc        1 2BW      0.048867
     34 H21        -4.4120    2.2260   -0.3040 hc        1 2BW      0.048867
@<TRIPOS>BOND
     1    1    2 1   
     2    1   15 1   
     3    2    3 2   
     4    2    4 1   
     5    2    8 1   
     6    4    5 1   
     7    4   16 1   
     8    4   17 1   
     9    5    6 1   
    10    5   18 1   
    11    5   19 1   
    12    6    7 1   
    13    6   20 1   
    14    6   21 1   
    15    7   22 1   
    16    7   23 1   
    17    8    9 1   
    18    8   12 1   
    19    8   24 1   
    20    9   10 1   
    21   10   11 1   
    22   10   25 1   
    23   10   26 1   
    24   11   27 1   
    25   11   28 1   
    26   11   29 1   
    27   12   13 1   
    28   13   14 1   
    29   13   30 1   
    30   13   31 1   
    31   14   32 1   
    32   14   33 1   
    33   14   34 1   
@<TRIPOS>SUBSTRUCTURE
     1 2BW         1 TEMP              0 ****  ****    0 ROOT
