@<TRIPOS>MOLECULE
2BW
   34    33     1     0     0
SMALL
bcc


@<TRIPOS>ATOM
      1 O3          0.5880   -0.1290    0.7610 o         1 2BW     -0.858500
      2 P           2.0040   -0.0240    0.3360 p5        1 2BW      1.235400
      3 O4          3.1170   -0.2750    1.2820 o         1 2BW     -0.858500
      4 C6          2.1980   -1.2450   -0.8940 c3        1 2BW     -0.314600
      5 C7          1.9390   -2.4950   -0.1150 c3        1 2BW     -0.116400
      6 C8          2.0270   -3.7250   -0.9960 c3        1 2BW      0.115800
      7 N           1.7290   -4.9670   -0.2060 nz        1 2BW     -0.845600
      8 C3          2.3410    1.4330   -0.5270 c3        1 2BW      0.125700
      9 O2          1.9260    1.2780   -1.8590 os        1 2BW     -0.443100
     10 C4          2.4320    2.2670   -2.7570 c3        1 2BW      0.121900
     11 C5          1.5930    2.2040   -4.0120 c3        1 2BW     -0.092100
     12 O1          1.7300    2.5860    0.0140 os        1 2BW     -0.443100
     13 C2          0.3340    2.7770   -0.2570 c3        1 2BW      0.121900
     14 C1         -0.1020    3.9510    0.5870 c3        1 2BW     -0.092100
     15 H2          1.4640   -1.0970   -1.7170 hc        1 2BW      0.073200
     16 H3          3.2200   -1.2230   -1.3290 hc        1 2BW      0.073200
     17 H4          2.6950   -2.5370    0.7230 hc        1 2BW      0.099700
     18 H5          0.9130   -2.3990    0.3480 hc        1 2BW      0.099700
     19 H6          1.2790   -3.6650   -1.8350 hx        1 2BW      0.096700
     20 H7          3.0620   -3.8330   -1.4260 hx        1 2BW      0.096700
     21 H8          2.4000   -5.0440    0.5650 hn        1 2BW      0.449133
     22 H9          1.7850   -5.7980   -0.7930 hn        1 2BW      0.449133
     23 H11         3.4420    1.6860   -0.4640 h2        1 2BW      0.074700
     24 H12         2.3700    3.2810   -2.2810 h1        1 2BW      0.041200
     25 H13         3.5080    2.0310   -2.9760 h1        1 2BW      0.041200
     26 H14         1.9710    2.9500   -4.7510 hc        1 2BW      0.036367
     27 H15         1.6410    1.1850   -4.4650 hc        1 2BW      0.036367
     28 H16         0.5260    2.4320   -3.7740 hc        1 2BW      0.036367
     29 H17         0.2060    2.9910   -1.3510 h1        1 2BW      0.041200
     30 H18        -0.2190    1.8350    0.0130 h1        1 2BW      0.041200
     31 H19         0.0430    3.7230    1.6700 hc        1 2BW      0.036367
     32 H20        -1.1830    4.1560    0.3980 hc        1 2BW      0.036367
     33 H21         0.4930    4.8610    0.3360 hc        1 2BW      0.036367
     34 HN3         0.7880   -4.8920    0.1940 hn        1 2BW      0.449133
@<TRIPOS>BOND
     1    1    2 1   
     2    2    3 1   
     3    2    4 1   
     4    2    8 1   
     5    4    5 1   
     6    4   15 1   
     7    4   16 1   
     8    5    6 1   
     9    5   17 1   
    10    5   18 1   
    11    6    7 1   
    12    6   19 1   
    13    6   20 1   
    14    7   21 1   
    15    7   22 1   
    16    7   34 1   
    17    8    9 1   
    18    8   12 1   
    19    8   23 1   
    20    9   10 1   
    21   10   11 1   
    22   10   24 1   
    23   10   25 1   
    24   11   26 1   
    25   11   27 1   
    26   11   28 1   
    27   12   13 1   
    28   13   14 1   
    29   13   29 1   
    30   13   30 1   
    31   14   31 1   
    32   14   32 1   
    33   14   33 1   
@<TRIPOS>SUBSTRUCTURE
     1 2BW         1 TEMP              0 ****  ****    0 ROOT
