@<TRIPOS>MOLECULE
2BX
   26    26     1     0     0
SMALL
bcc


@<TRIPOS>ATOM
      1 O1          2.3750    1.0160    1.8330 o         1 2BX     -0.848300
      2 C1          2.8220    0.8690    0.6580 c         1 2BX      0.911600
      3 O2          4.0220    1.0830    0.3300 o         1 2BX     -0.848300
      4 C2          1.8640    0.4090   -0.4570 c3        1 2BX     -0.193400
      5 C3          0.5340   -0.0540    0.0970 c3        1 2BX      0.126100
      6 C6         -0.3350    1.1270    0.5580 c3        1 2BX      0.109800
      7 N          -1.6930    0.7770    0.9370 n3        1 2BX     -0.792200
      8 C5         -2.3470   -0.0890   -0.0620 c3        1 2BX      0.139200
      9 C8         -3.6080   -0.7420    0.5210 c3        1 2BX     -0.081100
     10 C7         -2.7650    0.7240   -1.2950 c3        1 2BX     -0.081100
     11 C4         -1.4190   -1.2390   -0.5450 c3        1 2BX      0.108400
     12 O3         -0.1440   -0.7780   -0.9510 os        1 2BX     -0.432600
     13 H2          1.7150    1.2570   -1.1700 hc        1 2BX      0.038200
     14 H3          2.3450   -0.4290   -1.0200 hc        1 2BX      0.038200
     15 H4          0.7080   -0.7580    0.9590 h1        1 2BX      0.049700
     16 H5          0.1910    1.6020    1.4370 h1        1 2BX      0.081700
     17 H6         -0.4000    1.8810   -0.2740 h1        1 2BX      0.081700
     18 H7         -1.6740    0.2820    1.8120 hn        1 2BX      0.342800
     19 H9         -4.3480    0.0380    0.8190 hc        1 2BX      0.032200
     20 H10        -4.0720   -1.4010   -0.2510 hc        1 2BX      0.032200
     21 H11        -3.3620   -1.3640    1.4150 hc        1 2BX      0.032200
     22 H12        -1.8570    1.0780   -1.8420 hc        1 2BX      0.032200
     23 H13        -3.3650    0.0780   -1.9780 hc        1 2BX      0.032200
     24 H14        -3.3800    1.6060   -0.9990 hc        1 2BX      0.032200
     25 H15        -1.3050   -2.0000    0.2740 h1        1 2BX      0.029200
     26 H16        -1.8500   -1.7270   -1.4570 h1        1 2BX      0.029200
@<TRIPOS>BOND
     1    1    2 1   
     2    2    3 1   
     3    2    4 1   
     4    4    5 1   
     5    4   13 1   
     6    4   14 1   
     7    5    6 1   
     8    5   12 1   
     9    5   15 1   
    10    6    7 1   
    11    6   16 1   
    12    6   17 1   
    13    7    8 1   
    14    7   18 1   
    15    8    9 1   
    16    8   10 1   
    17    8   11 1   
    18    9   19 1   
    19    9   20 1   
    20    9   21 1   
    21   10   22 1   
    22   10   23 1   
    23   10   24 1   
    24   11   12 1   
    25   11   25 1   
    26   11   26 1   
@<TRIPOS>SUBSTRUCTURE
     1 2BX         1 TEMP              0 ****  ****    0 ROOT
