@<TRIPOS>MOLECULE
2BX
   26    26     1     0     0
SMALL
bcc


@<TRIPOS>ATOM
      1 O1          2.2800    1.8590   -1.2020 o         1 2BX     -0.846300
      2 C1          1.9350    0.9030   -0.4460 c         1 2BX      0.910600
      3 O2          1.7670    1.0190    0.8000 o         1 2BX     -0.846300
      4 C2          1.7360   -0.4950   -1.0630 c3        1 2BX     -0.197400
      5 C3          0.7220   -0.4710   -2.1900 c3        1 2BX      0.163100
      6 C6          1.2680    0.2590   -3.4260 c3        1 2BX      0.113800
      7 N           0.4090    0.1320   -4.5900 n7        1 2BX     -0.801200
      8 C5          0.0410   -1.2600   -4.8880 c3        1 2BX      0.141200
      9 C8         -1.0950   -1.2990   -5.9210 c3        1 2BX     -0.100100
     10 C7          1.2020   -2.1030   -5.4420 c3        1 2BX     -0.100100
     11 C4         -0.4770   -1.9550   -3.5990 c3        1 2BX      0.146400
     12 O3          0.4320   -1.8460   -2.5220 os        1 2BX     -0.436600
     13 H2          1.3840   -1.2010   -0.2700 hc        1 2BX      0.037200
     14 H3          2.7220   -0.8600   -1.4430 hc        1 2BX      0.037200
     15 H4         -0.2340    0.0150   -1.8460 h1        1 2BX      0.047700
     16 H5          2.3090   -0.1300   -3.6290 h1        1 2BX      0.068200
     17 H6          1.3590    1.3540   -3.1580 h1        1 2BX      0.068200
     18 H7          0.8690    0.5240   -5.3910 hn        1 2BX      0.342800
     19 H9         -0.7480   -0.8940   -6.9010 hc        1 2BX      0.031033
     20 H10        -1.4230   -2.3560   -6.0660 hc        1 2BX      0.031033
     21 H11        -1.9670   -0.6970   -5.5730 hc        1 2BX      0.031033
     22 H12         1.9960   -2.2080   -4.6630 hc        1 2BX      0.031033
     23 H13         1.6400   -1.6260   -6.3500 hc        1 2BX      0.031033
     24 H14         0.8350   -3.1190   -5.7170 hc        1 2BX      0.031033
     25 H15        -1.4700   -1.5190   -3.3110 h1        1 2BX      0.033200
     26 H16        -0.5800   -3.0570   -3.7790 h1        1 2BX      0.033200
@<TRIPOS>BOND
     1    1    2 1   
     2    2    3 1   
     3    2    4 1   
     4    4    5 1   
     5    4   13 1   
     6    4   14 1   
     7    5    6 1   
     8    5   12 1   
     9    5   15 1   
    10    6    7 1   
    11    6   16 1   
    12    6   17 1   
    13    7    8 1   
    14    7   18 1   
    15    8    9 1   
    16    8   10 1   
    17    8   11 1   
    18    9   19 1   
    19    9   20 1   
    20    9   21 1   
    21   10   22 1   
    22   10   23 1   
    23   10   24 1   
    24   11   12 1   
    25   11   25 1   
    26   11   26 1   
@<TRIPOS>SUBSTRUCTURE
     1 2BX         1 TEMP              0 ****  ****    0 ROOT
