@<TRIPOS>MOLECULE
2BX
   26    26     1     0     0
SMALL
bcc


@<TRIPOS>ATOM
      1 O1          2.3260    1.8060   -1.1750 o         1 2BX     -0.846300
      2 C1          1.8880    0.8900   -0.4190 c         1 2BX      0.910600
      3 O2          1.6670    1.0420    0.8150 o         1 2BX     -0.846300
      4 C2          1.6340   -0.5070   -1.0200 c3        1 2BX     -0.197400
      5 C3          0.6770   -0.4470   -2.1940 c3        1 2BX      0.163100
      6 C6          1.3240    0.2240   -3.4150 c3        1 2BX      0.113800
      7 N           0.5140    0.1230   -4.6170 n3        1 2BX     -0.801200
      8 C5          0.0780   -1.2510   -4.9070 c3        1 2BX      0.141200
      9 C8         -1.0080   -1.2450   -5.9920 c3        1 2BX     -0.100100
     10 C7          1.2110   -2.1720   -5.3890 c3        1 2BX     -0.100100
     11 C4         -0.5400   -1.8870   -3.6320 c3        1 2BX      0.146400
     12 O3          0.3220   -1.8090   -2.5150 os        1 2BX     -0.436600
     13 H2          2.6140   -0.9380   -1.3450 hc        1 2BX      0.037200
     14 H3          1.2040   -1.1740   -0.2320 hc        1 2BX      0.037200
     15 H4         -0.2620    0.1010   -1.9060 h1        1 2BX      0.047700
     16 H5          1.4670    1.3160   -3.1640 h1        1 2BX      0.068200
     17 H6          2.3480   -0.2300   -3.5620 h1        1 2BX      0.068200
     18 H7          1.0340    0.4710   -5.4020 hn        1 2BX      0.342800
     19 H9         -1.3920   -2.2830   -6.1340 hc        1 2BX      0.031033
     20 H10        -1.8590   -0.5850   -5.6980 hc        1 2BX      0.031033
     21 H11        -0.5920   -0.8810   -6.9620 hc        1 2BX      0.031033
     22 H12         1.7200   -1.7410   -6.2840 hc        1 2BX      0.031033
     23 H13         0.7980   -3.1710   -5.6630 hc        1 2BX      0.031033
     24 H14         1.9600   -2.3080   -4.5720 hc        1 2BX      0.031033
     25 H15        -0.7010   -2.9850   -3.7970 h1        1 2BX      0.033200
     26 H16        -1.5180   -1.3870   -3.4000 h1        1 2BX      0.033200
@<TRIPOS>BOND
     1    1    2 1   
     2    2    3 1   
     3    2    4 1   
     4    4    5 1   
     5    4   13 1   
     6    4   14 1   
     7    5    6 1   
     8    5   12 1   
     9    5   15 1   
    10    6    7 1   
    11    6   16 1   
    12    6   17 1   
    13    7    8 1   
    14    7   18 1   
    15    8    9 1   
    16    8   10 1   
    17    8   11 1   
    18    9   19 1   
    19    9   20 1   
    20    9   21 1   
    21   10   22 1   
    22   10   23 1   
    23   10   24 1   
    24   11   12 1   
    25   11   25 1   
    26   11   26 1   
@<TRIPOS>SUBSTRUCTURE
     1 2BX         1 TEMP              0 ****  ****    0 ROOT
