@<TRIPOS>MOLECULE
2BX
   26    25     1     0     0
SMALL
bcc


@<TRIPOS>ATOM
      1 O1         -2.8020   -0.8460    3.1840 o         1 2BX     -0.586000
      2 C1         -1.5420   -0.8460    3.1840 c1        1 2BX      0.332000
      3 O2         -0.9120   -0.8460    4.2760 o         1 2BX     -0.586000
      4 C2         -0.7800   -0.9180    1.8660 c2        1 2BX     -0.252000
      5 C3         -0.6620    0.4810    1.2690 c3        1 2BX      0.052000
      6 C6          0.7980    0.7680    0.9760 c3        1 2BX     -0.114000
      7 N           1.3020   -0.0220   -0.0910 n3        1 2BX     -0.274000
      8 C5          0.4950    0.0500   -1.2500 c3        1 2BX     -0.016000
      9 C8          0.6120    1.4540   -1.8470 c3        1 2BX     -0.218000
     10 C7          1.0020   -0.9650   -2.2700 c3        1 2BX     -0.218000
     11 C4         -0.9660   -0.2370   -0.9570 c3        1 2BX     -0.005000
     12 O3         -1.4690    0.5530    0.1090 os        1 2BX     -0.298000
     13 H2         -1.2610   -1.4970    1.2440 ha        1 2BX      0.079000
     14 H3          0.1120   -1.2810    2.0250 ha        1 2BX      0.079000
     15 H4         -0.9870    1.1310    1.9210 h1        1 2BX      0.120000
     16 H5          0.8940    1.7110    0.7430 h1        1 2BX      0.096000
     17 H6          1.3230    0.5860    1.7790 h1        1 2BX      0.096000
     18 H7          2.1500    0.2450   -0.2940 hn        1 2BX      0.137000
     19 H9          0.0480    2.0710   -1.3430 hc        1 2BX      0.069833
     20 H10         0.3230    1.4370   -2.7800 hc        1 2BX      0.069833
     21 H11         1.5410    1.7510   -1.8000 hc        1 2BX      0.069833
     22 H12         1.8800   -0.6890   -2.5950 hc        1 2BX      0.069833
     23 H13         0.3780   -1.0140   -3.0190 hc        1 2BX      0.069833
     24 H14         1.0730   -1.8430   -1.8480 hc        1 2BX      0.069833
     25 H15        -1.0610   -1.1800   -0.7230 h1        1 2BX      0.078000
     26 H16        -1.4910   -0.0550   -1.7590 h1        1 2BX      0.078000
@<TRIPOS>BOND
     1    1    2 1   
     2    2    3 1   
     3    4    5 1   
     4    4   13 1   
     5    4   14 1   
     6    5    6 1   
     7    5   12 1   
     8    5   15 1   
     9    6    7 1   
    10    6   16 1   
    11    6   17 1   
    12    7    8 1   
    13    7   18 1   
    14    8    9 1   
    15    8   10 1   
    16    8   11 1   
    17    9   19 1   
    18    9   20 1   
    19    9   21 1   
    20   10   22 1   
    21   10   23 1   
    22   10   24 1   
    23   11   12 1   
    24   11   25 1   
    25   11   26 1   
@<TRIPOS>SUBSTRUCTURE
     1 2BX         1 TEMP              0 ****  ****    0 ROOT
