@<TRIPOS>MOLECULE
2BX
   26    26     1     0     0
SMALL
bcc


@<TRIPOS>ATOM
      1 O1          2.2800    1.8230   -1.1620 o         1 2BX     -0.846300
      2 C1          1.8900    0.8790   -0.4140 c         1 2BX      0.910600
      3 O2          1.6920    1.0020    0.8270 o         1 2BX     -0.846300
      4 C2          1.6700   -0.5150   -1.0340 c3        1 2BX     -0.197400
      5 C3          0.6910   -0.4680   -2.1890 c3        1 2BX      0.163100
      6 C6          1.2940    0.2420   -3.4110 c3        1 2BX      0.113800
      7 N           0.4660    0.1350   -4.6000 n3        1 2BX     -0.801200
      8 C5          0.0680   -1.2480   -4.9040 c3        1 2BX      0.141200
      9 C8         -1.0380   -1.2600   -5.9700 c3        1 2BX     -0.100100
     10 C7          1.2200   -2.1250   -5.4200 c3        1 2BX     -0.100100
     11 C4         -0.5070   -1.9230   -3.6290 c3        1 2BX      0.146400
     12 O3          0.3720   -1.8350   -2.5250 os        1 2BX     -0.436600
     13 H2          2.6570   -0.9090   -1.3830 hc        1 2BX      0.037200
     14 H3          1.2760   -1.2090   -0.2490 hc        1 2BX      0.037200
     15 H4         -0.2600    0.0460   -1.8760 h1        1 2BX      0.047700
     16 H5          2.3290   -0.1770   -3.5830 h1        1 2BX      0.068200
     17 H6          1.4070    1.3350   -3.1450 h1        1 2BX      0.068200
     18 H7          0.9600    0.5100   -5.3880 hn        1 2BX      0.342800
     19 H9         -0.6500   -0.8690   -6.9400 hc        1 2BX      0.031033
     20 H10        -1.3910   -2.3070   -6.1210 hc        1 2BX      0.031033
     21 H11        -1.9030   -0.6320   -5.6500 hc        1 2BX      0.031033
     22 H12         1.6990   -1.6650   -6.3170 hc        1 2BX      0.031033
     23 H13         0.8330   -3.1320   -5.7030 hc        1 2BX      0.031033
     24 H14         1.9880   -2.2500   -4.6190 hc        1 2BX      0.031033
     25 H15        -0.6360   -3.0220   -3.8080 h1        1 2BX      0.033200
     26 H16        -1.4960   -1.4580   -3.3710 h1        1 2BX      0.033200
@<TRIPOS>BOND
     1    1    2 1   
     2    2    3 1   
     3    2    4 1   
     4    4    5 1   
     5    4   13 1   
     6    4   14 1   
     7    5    6 1   
     8    5   12 1   
     9    5   15 1   
    10    6    7 1   
    11    6   16 1   
    12    6   17 1   
    13    7    8 1   
    14    7   18 1   
    15    8    9 1   
    16    8   10 1   
    17    8   11 1   
    18    9   19 1   
    19    9   20 1   
    20    9   21 1   
    21   10   22 1   
    22   10   23 1   
    23   10   24 1   
    24   11   12 1   
    25   11   25 1   
    26   11   26 1   
@<TRIPOS>SUBSTRUCTURE
     1 2BX         1 TEMP              0 ****  ****    0 ROOT
