@<TRIPOS>MOLECULE
2BY
   26    23     1     0     0
SMALL
bcc


@<TRIPOS>ATOM
      1 CL         -5.2710    0.0650    0.1380 cl        1 2BY     -0.123000
      2 C3         -3.5330    0.0410    0.1060 c1        1 2BY     -0.093000
      3 C2         -2.8060    0.3520    1.2670 c1        1 2BY     -0.148000
      4 C4         -2.8810   -0.1760   -1.0660 c1        1 2BY     -0.159000
      5 C5         -1.4780   -0.0890   -1.1150 c1        1 2BY     -0.166000
      6 C6         -0.7620    0.2170    0.0270 c1        1 2BY     -0.003000
      7 C1         -1.4240    0.4370    1.2180 c2        1 2BY     -0.123000
      8 C7          0.7760    0.2540   -0.0180 c2        1 2BY     -0.081000
      9 C8          1.2140    1.1200   -1.1440 c3        1 2BY     -0.063000
     10 N           2.2760    1.9340   -0.7200 n3        1 2BY     -0.356000
     11 C9          1.3220   -1.1860   -0.2220 c3        1 2BY     -0.764000
     12 P           2.3950   -1.6370    1.1830 p5        1 2BY      1.632500
     13 O1          3.0580   -3.0010    0.9020 o         1 2BY     -0.950167
     14 O3          1.5320   -1.7350    2.4920 o         1 2BY     -0.950167
     15 O2          3.4710   -0.5750    1.3630 o         1 2BY     -0.950167
     16 H1         -3.2950    0.5120    2.1500 ha        1 2BY      0.123000
     17 H2         -3.4080   -0.2920   -1.9170 ha        1 2BY      0.104000
     18 H3         -1.0100   -0.2450   -1.9540 ha        1 2BY      0.117000
     19 H4         -0.9300    0.6490    2.0050 ha        1 2BY      0.276000
     20 H5          1.1150    0.6130    0.8130 ha        1 2BY      0.148000
     21 H6          0.4070    1.7270   -1.4540 h1        1 2BY      0.037000
     22 H7          1.5240    0.5300   -1.9300 h1        1 2BY      0.037000
     23 H8          2.2840    1.9730    0.2150 hn        1 2BY      0.162500
     24 H9          3.0530    1.5890   -1.0120 hn        1 2BY      0.162500
     25 H11         1.8390   -1.2260   -1.0520 hc        1 2BY      0.064000
     26 H12         0.5290   -1.8510   -0.2770 hc        1 2BY      0.064000
@<TRIPOS>BOND
     1    1    2 1   
     2    2    4 1   
     3    3    7 1   
     4    3   16 1   
     5    4   17 1   
     6    5    6 1   
     7    5   18 1   
     8    6    7 1   
     9    7   19 1   
    10    8    9 1   
    11    8   11 1   
    12    8   20 1   
    13    9   10 1   
    14    9   21 1   
    15    9   22 1   
    16   10   23 1   
    17   10   24 1   
    18   11   12 1   
    19   11   25 1   
    20   11   26 1   
    21   12   13 1   
    22   12   14 1   
    23   12   15 1   
@<TRIPOS>SUBSTRUCTURE
     1 2BY         1 TEMP              0 ****  ****    0 ROOT
