@<TRIPOS>MOLECULE
2BY
   26    26     1     0     0
SMALL
bcc


@<TRIPOS>ATOM
      1 CL         -5.1380    0.5900   -0.0740 cl        1 2BY     -0.186400
      2 C3         -3.4460    0.2930   -0.0680 ca        1 2BY     -0.023600
      3 C2         -2.7060    0.5360    1.0920 ca        1 2BY     -0.137500
      4 C4         -2.8250   -0.1820   -1.2240 ca        1 2BY     -0.137500
      5 C5         -1.4530   -0.4280   -1.2080 ca        1 2BY     -0.137500
      6 C6         -0.6880   -0.2070   -0.0530 ca        1 2BY      0.010700
      7 C1         -1.3370    0.2870    1.0920 ca        1 2BY     -0.137500
      8 C7          0.7810   -0.5000   -0.0390 c3        1 2BY     -0.047400
      9 C8          1.0020   -1.9400    0.4850 c3        1 2BY      0.102800
     10 N           0.5780   -3.0090   -0.3890 n3        1 2BY     -0.910800
     11 C9          1.5820    0.4810    0.7550 c3        1 2BY     -0.271600
     12 P           3.2740    0.5060    0.0400 p5        1 2BY      1.212700
     13 O1          3.9020    1.7210    0.6730 o         1 2BY     -0.947500
     14 O3          3.8260   -0.8330    0.4890 o         1 2BY     -0.947500
     15 O2          3.0190    0.5940   -1.4490 o         1 2BY     -0.947500
     16 H1         -3.1990    0.9230    1.9940 ha        1 2BY      0.114500
     17 H2         -3.4090   -0.3580   -2.1370 ha        1 2BY      0.114500
     18 H3         -0.9520   -0.7840   -2.1210 ha        1 2BY      0.146500
     19 H4         -0.7310    0.4870    1.9900 ha        1 2BY      0.146500
     20 H5          1.1820   -0.4300   -1.1040 hc        1 2BY      0.120700
     21 H6          2.1350   -1.9910    0.6630 h1        1 2BY      0.089200
     22 H7          0.4640   -2.0640    1.4640 h1        1 2BY      0.089200
     23 H8         -0.2900   -2.7630   -0.8320 hn        1 2BY      0.318800
     24 H9          1.2580   -3.1240   -1.1200 hn        1 2BY      0.318800
     25 H11         1.1830    1.5110    0.6640 hc        1 2BY      0.022700
     26 H12         1.6610    0.2080    1.8250 hc        1 2BY      0.022700
@<TRIPOS>BOND
     1    1    2 1   
     2    2    3 ar  
     3    2    4 ar  
     4    3    7 ar  
     5    3   16 1   
     6    4    5 ar  
     7    4   17 1   
     8    5    6 ar  
     9    5   18 1   
    10    6    7 ar  
    11    6    8 1   
    12    7   19 1   
    13    8    9 1   
    14    8   11 1   
    15    8   20 1   
    16    9   10 1   
    17    9   21 1   
    18    9   22 1   
    19   10   23 1   
    20   10   24 1   
    21   11   12 1   
    22   11   25 1   
    23   11   26 1   
    24   12   13 1   
    25   12   14 1   
    26   12   15 1   
@<TRIPOS>SUBSTRUCTURE
     1 2BY         1 TEMP              0 ****  ****    0 ROOT
