@<TRIPOS>MOLECULE
2BY
   27    27     1     0     0
SMALL
bcc


@<TRIPOS>ATOM
      1 CL         -0.0870    1.3470    0.4480 cl        1 2BY     -0.075000
      2 C3          1.5380    0.8320    0.2930 ca        1 2BY     -0.085000
      3 C2          2.1120    0.0460    1.2940 ca        1 2BY     -0.138000
      4 C4          2.2760    1.2040   -0.8330 ca        1 2BY     -0.138000
      5 C5          3.5970    0.7770   -0.9570 ca        1 2BY     -0.122000
      6 C6          4.1880   -0.0200    0.0330 ca        1 2BY      0.006000
      7 C1          3.4330   -0.3740    1.1590 ca        1 2BY     -0.122000
      8 C7          5.6150   -0.4690   -0.1140 c3        1 2BY      0.108000
      9 C8          5.7150   -1.8950    0.2600 c2        1 2BY     -0.807000
     10 N           6.9530   -2.5550    0.1820 n4        1 2BY      0.100000
     11 C9          6.5330    0.4680    0.6690 c3        1 2BY     -0.855000
     12 P           7.9340    0.7970   -0.2010 p5        1 2BY      2.016000
     13 O1          7.6910    1.6360   -1.3910 o         1 2BY     -0.874500
     14 O3          8.7630   -0.4560   -0.2770 o         1 2BY     -0.874500
     15 O2          8.8160    1.6530    0.8930 oh        1 2BY     -0.832000
     16 H1          1.5290   -0.2390    2.1810 ha        1 2BY      0.127000
     17 H2          1.8230    1.8300   -1.6140 ha        1 2BY      0.127000
     18 H3          4.1890    1.0770   -1.8360 ha        1 2BY      0.151500
     19 H4          3.9020   -0.9940    1.9400 ha        1 2BY      0.151500
     20 H5          5.9000   -0.3330   -1.2080 hc        1 2BY      0.046000
     21 H6          9.6530    1.2410    1.0690 ho        1 2BY      0.222000
     22 H7          4.8360   -2.5060    0.4360 hx        1 2BY      0.122000
     23 H8          7.1460   -3.0690    1.0420 hn        1 2BY      0.177000
     24 H9          6.9820   -3.2470   -0.5730 hn        1 2BY      0.177000
     25 H11         6.7660    0.0080    1.6580 hc        1 2BY      0.108000
     26 H12         5.9960    1.4230    0.8900 hc        1 2BY      0.108000
     27 HN3         7.7230   -1.8510    0.0220 hn        1 2BY      0.177000
@<TRIPOS>BOND
     1    1    2 1   
     2    2    3 1   
     3    2    4 1   
     4    3    7 1   
     5    3   16 1   
     6    4    5 1   
     7    4   17 1   
     8    5    6 1   
     9    5   18 1   
    10    6    7 1   
    11    6    8 1   
    12    7   19 1   
    13    8    9 1   
    14    8   11 1   
    15    8   20 1   
    16    9   10 1   
    17    9   22 1   
    18   10   23 1   
    19   10   24 1   
    20   10   27 1   
    21   11   12 1   
    22   11   25 1   
    23   11   26 1   
    24   12   13 1   
    25   12   14 1   
    26   12   15 1   
    27   15   21 1   
@<TRIPOS>SUBSTRUCTURE
     1 2BY         1 TEMP              0 ****  ****    0 ROOT
