@<TRIPOS>MOLECULE
2BY
   27    27     1     0     0
SMALL
bcc


@<TRIPOS>ATOM
      1 CL         -0.1220    1.2230    0.4190 cl        1 2BY     -0.075000
      2 C3          1.5150    0.7420    0.2760 ca        1 2BY     -0.085000
      3 C2          2.1180    0.0280    1.3140 ca        1 2BY     -0.138000
      4 C4          2.2330    1.0690   -0.8760 ca        1 2BY     -0.138000
      5 C5          3.5640    0.6690   -0.9890 ca        1 2BY     -0.122000
      6 C6          4.1840   -0.0560    0.0370 ca        1 2BY      0.006000
      7 C1          3.4480   -0.3650    1.1890 ca        1 2BY     -0.122000
      8 C7          5.6210   -0.4760   -0.0990 c3        1 2BY      0.108000
      9 C8          5.7600   -1.8770    0.3510 c2        1 2BY     -0.807000
     10 N           7.0140   -2.5090    0.2960 n4        1 2BY      0.100000
     11 C9          6.5200    0.5240    0.6230 c3        1 2BY     -0.855000
     12 P           7.9060    0.8410   -0.2760 p5        1 2BY      2.016000
     13 O1          7.6320    1.6090   -1.5070 o         1 2BY     -0.874500
     14 O3          8.7650   -0.3930   -0.2930 o         1 2BY     -0.874500
     15 O2          8.7740    1.7770    0.7620 oh        1 2BY     -0.832000
     16 H1          1.5500   -0.2220    2.2210 ha        1 2BY      0.127000
     17 H2          1.7580    1.6390   -1.6870 ha        1 2BY      0.127000
     18 H3          4.1400    0.9350   -1.8900 ha        1 2BY      0.151000
     19 H4          3.9400   -0.9280    1.9980 ha        1 2BY      0.151000
     20 H5          5.8940   -0.3930   -1.2010 hc        1 2BY      0.046000
     21 H6          9.6230    1.3960    0.9520 ho        1 2BY      0.222000
     22 H7          4.8990   -2.4990    0.5690 hx        1 2BY      0.122000
     23 H8          7.7640   -1.7960    0.0900 hn        1 2BY      0.177000
     24 H9          7.0540   -3.2390   -0.4210 hn        1 2BY      0.177000
     25 H11         5.9620    1.4770    0.7970 hc        1 2BY      0.108000
     26 H12         6.7740    0.1250    1.6340 hc        1 2BY      0.108000
     27 HN3         7.2270   -2.9700    1.1800 hn        1 2BY      0.177000
@<TRIPOS>BOND
     1    1    2 1   
     2    2    3 1   
     3    2    4 1   
     4    3    7 1   
     5    3   16 1   
     6    4    5 1   
     7    4   17 1   
     8    5    6 1   
     9    5   18 1   
    10    6    7 1   
    11    6    8 1   
    12    7   19 1   
    13    8    9 1   
    14    8   11 1   
    15    8   20 1   
    16    9   10 1   
    17    9   22 1   
    18   10   23 1   
    19   10   24 1   
    20   10   27 1   
    21   11   12 1   
    22   11   25 1   
    23   11   26 1   
    24   12   13 1   
    25   12   14 1   
    26   12   15 1   
    27   15   21 1   
@<TRIPOS>SUBSTRUCTURE
     1 2BY         1 TEMP              0 ****  ****    0 ROOT
