@<TRIPOS>MOLECULE
2BY
   27    27     1     0     0
SMALL
bcc


@<TRIPOS>ATOM
      1 Cl         -0.1230    1.2040    0.4860 cl        1 2BY     -0.075000
      2 C3          1.5130    0.7290    0.3220 ca        1 2BY     -0.085000
      3 C2          2.1300    0.0110    1.3490 ca        1 2BY     -0.138000
      4 C4          2.2180    1.0640   -0.8360 ca        1 2BY     -0.138000
      5 C5          3.5480    0.6690   -0.9660 ca        1 2BY     -0.122000
      6 C6          4.1820   -0.0590    0.0500 ca        1 2BY      0.006000
      7 C1          3.4600   -0.3770    1.2080 ca        1 2BY     -0.122000
      8 C7          5.6190   -0.4740   -0.1050 c3        1 2BY      0.108000
      9 C8          5.7680   -1.8750    0.3380 c2        1 2BY     -0.807000
     10 N           7.0240   -2.5030    0.2670 nz        1 2BY      0.100000
     11 C9          6.5230    0.5270    0.6110 c3        1 2BY     -0.855000
     12 P           7.8970    0.8520   -0.3030 p5        1 2BY      2.016000
     13 O1          7.6060    1.6230   -1.5280 o         1 2BY     -0.874500
     14 O3          8.7610   -0.3790   -0.3340 o         1 2BY     -0.874500
     15 O2          8.7740    1.7870    0.7290 oh        1 2BY     -0.832000
     16 H1          1.5730   -0.2440    2.2610 ha        1 2BY      0.127000
     17 H2          1.7310    1.6360   -1.6390 ha        1 2BY      0.127000
     18 H3          4.1140    0.9410   -1.8720 ha        1 2BY      0.151000
     19 H4          3.9630   -0.9420    2.0080 ha        1 2BY      0.151000
     20 H5          5.8780   -0.3850   -1.2100 hc        1 2BY      0.046000
     21 H6          9.6260    1.4090    0.9080 ho        1 2BY      0.222000
     22 H7          4.9110   -2.5020    0.5630 hx        1 2BY      0.122000
     23 H8          7.7690   -1.7860    0.0550 hn        1 2BY      0.177000
     24 H9          7.2480   -2.9670    1.1470 hn        1 2BY      0.177000
     25 H11         6.7890    0.1250    1.6170 hc        1 2BY      0.108000
     26 H12         5.9630    1.4770    0.7950 hc        1 2BY      0.108000
     27 HN3         7.0580   -3.2310   -0.4540 hn        1 2BY      0.177000
@<TRIPOS>BOND
     1    1    2 1   
     2    2    3 1   
     3    2    4 1   
     4    3    7 1   
     5    3   16 1   
     6    4    5 1   
     7    4   17 1   
     8    5    6 1   
     9    5   18 1   
    10    6    7 1   
    11    6    8 1   
    12    7   19 1   
    13    8    9 1   
    14    8   11 1   
    15    8   20 1   
    16    9   10 1   
    17    9   22 1   
    18   10   23 1   
    19   10   24 1   
    20   10   27 1   
    21   11   12 1   
    22   11   25 1   
    23   11   26 1   
    24   12   13 1   
    25   12   14 1   
    26   12   15 1   
    27   15   21 1   
@<TRIPOS>SUBSTRUCTURE
     1 2BY         1 TEMP              0 ****  ****    0 ROOT
