@<TRIPOS>MOLECULE
2BZ
   35    30     1     0     0
SMALL
bcc


@<TRIPOS>ATOM
      1 N3         -1.8400    0.3600   -2.2990 n2        1 2BZ     -0.075000
      2 C4         -0.4830    0.2380   -2.3180 c1        1 2BZ      0.051000
      3 C5          0.3620   -0.0180   -1.2770 c1        1 2BZ     -0.089000
      4 C6          0.0480   -0.2190    0.0720 c1        1 2BZ      0.100000
      5 C7          0.7090   -0.1600    1.2900 c1        1 2BZ     -0.065000
      6 C10         1.4000    0.3110   -3.8450 c1        1 2BZ     -0.099250
      7 C13        -3.5830   -0.0220    0.7980 c1        1 2BZ     -0.069000
      8 C20         1.2150    1.0230    1.8070 c1        1 2BZ     -0.097000
      9 C21         1.9680    1.0040    2.9700 c1        1 2BZ     -0.099250
     10 C22         2.2150   -0.1960    3.6160 c1        1 2BZ     -0.099250
     11 C24         0.9560   -1.3600    1.9360 c1        1 2BZ     -0.041000
     12 C1         -2.3940    0.0050    0.0860 c2        1 2BZ     -0.102000
     13 C2         -2.6950    0.2570   -1.2270 c2        1 2BZ     -0.021000
     14 N8         -1.1580   -0.2070    0.6600 n2        1 2BZ     -0.094000
     15 C9          0.0340    0.4060   -3.6230 c1        1 2BZ     -0.099250
     16 C11         2.2600    0.0500   -2.7860 c1        1 2BZ     -0.122000
     17 C12         1.7530   -0.1140   -1.5050 c1        1 2BZ     -0.049000
     18 C14        -4.3970    0.0330    2.0720 c2        1 2BZ     -0.159000
     19 N15        -4.6000    0.2110   -0.0740 n2        1 2BZ      0.003000
     20 N16        -4.0560    0.3850   -1.3320 n2        1 2BZ      0.022000
     21 N17         3.6550    0.0480   -3.0460 no        1 2BZ      0.569000
     22 O18         4.1990    0.9960   -3.8650 o         1 2BZ     -0.349500
     23 O19         4.3720   -0.7960   -2.5290 o         1 2BZ     -0.349500
     24 C23         1.7090   -1.3780    3.1000 c1        1 2BZ     -0.123000
     25 CL25        0.5240   -2.9850    1.4780 cl        1 2BZ      0.001000
     26 H10         1.7570    0.4270   -4.7460 ha        1 2BZ      0.161500
     27 H20         1.0410    1.8680    1.3510 ha        1 2BZ      0.147000
     28 H21         2.3250    1.8370    3.3330 ha        1 2BZ      0.161500
     29 H22         2.7460   -0.2090    4.4350 ha        1 2BZ      0.161500
     30 H9         -0.5700    0.5890   -4.3680 ha        1 2BZ      0.161500
     31 H12         2.3580   -0.2970   -0.7610 ha        1 2BZ      0.187000
     32 H14        -5.0640   -0.6840    2.0650 ha        1 2BZ      0.107000
     33 H14A       -3.8030   -0.0800    2.8440 ha        1 2BZ      0.107000
     34 H14B       -4.8490    0.9010    2.1330 ha        1 2BZ      0.107000
     35 H23         1.8830   -2.2230    3.5550 ha        1 2BZ      0.154000
@<TRIPOS>BOND
     1    1    2 1   
     2    1   13 1   
     3    2    3 1   
     4    4    5 1   
     5    4   14 1   
     6    5    8 1   
     7    6   15 1   
     8    6   26 1   
     9    7   12 1   
    10    7   19 1   
    11    8   27 1   
    12    9   10 1   
    13    9   28 1   
    14   10   29 1   
    15   11   24 1   
    16   11   25 1   
    17   12   13 1   
    18   12   14 1   
    19   13   20 1   
    20   15   30 1   
    21   16   17 1   
    22   16   21 1   
    23   17   31 1   
    24   18   32 1   
    25   18   33 1   
    26   18   34 1   
    27   19   20 1   
    28   21   22 1   
    29   21   23 1   
    30   24   35 1   
@<TRIPOS>SUBSTRUCTURE
     1 2BZ         1 TEMP              0 ****  ****    0 ROOT
