@<TRIPOS>MOLECULE
2BZ
   35    38     1     0     0
SMALL
bcc


@<TRIPOS>ATOM
      1 N3          0.0130   -0.3120    0.0530 nc        1 2BZ     -0.294000
      2 C4          1.4040   -0.1490    0.0440 ca        1 2BZ      0.400600
      3 C5          2.2910    0.0250    1.1390 ca        1 2BZ     -0.261800
      4 C6          1.9210   -0.0390    2.5690 cc        1 2BZ      0.315000
      5 C7          3.0790   -0.1330    3.5110 ca        1 2BZ     -0.172500
      6 C10         3.2780    0.0710   -1.5290 ca        1 2BZ     -0.066000
      7 C13        -1.7060    0.0310    3.1660 cc        1 2BZ      0.288300
      8 C20         3.5560    1.0250    4.1350 ca        1 2BZ     -0.097000
      9 C21         4.6170    0.9490    5.0350 ca        1 2BZ     -0.127000
     10 C22         5.2000   -0.2840    5.3250 ca        1 2BZ     -0.105000
     11 C24         3.6560   -1.3740    3.8200 ca        1 2BZ      0.037400
     12 C1         -0.4610   -0.0270    2.5590 cd        1 2BZ      0.117000
     13 C2         -0.7540   -0.2270    1.0800 cd        1 2BZ      0.242000
     14 N8          0.7660   -0.0230    3.1630 nd        1 2BZ     -0.313000
     15 C9          1.9360   -0.1440   -1.2800 ca        1 2BZ     -0.164300
     16 C11         4.1390    0.2950   -0.4400 ca        1 2BZ     -0.167200
     17 C12         3.6530    0.2670    0.8660 ca        1 2BZ     -0.049000
     18 C14        -2.0620    0.2220    4.5750 c3        1 2BZ     -0.135400
     19 N15        -2.7270   -0.1400    2.1290 nc        1 2BZ     -0.260000
     20 N16        -2.2520   -0.2960    1.0080 nd        1 2BZ     -0.241000
     21 N17         5.5820    0.5610   -0.6890 no        1 2BZ      0.314200
     22 O18         5.9860    0.5450   -1.8200 o         1 2BZ     -0.199500
     23 O19         6.3010    0.7870    0.2470 o         1 2BZ     -0.199500
     24 C23         4.7220   -1.4460    4.7230 ca        1 2BZ     -0.123000
     25 CL25        3.0760   -2.8040    3.1090 cl        1 2BZ     -0.077400
     26 H10         3.6680    0.0730   -2.5620 ha        1 2BZ      0.181000
     27 H20         3.0860    1.9960    3.9150 ha        1 2BZ      0.147000
     28 H21         4.9920    1.8640    5.5170 ha        1 2BZ      0.145000
     29 H22         6.0400   -0.3440    6.0350 ha        1 2BZ      0.145000
     30 H9          1.2560   -0.3090   -2.1350 ha        1 2BZ      0.175000
     31 H12         4.3630    0.4440    1.6980 ha        1 2BZ      0.187000
     32 H14        -1.1420    0.2340    5.2110 hc        1 2BZ      0.067700
     33 H14A       -2.7340   -0.6030    4.9260 hc        1 2BZ      0.067700
     34 H14B       -2.6060    1.1930    4.7080 hc        1 2BZ      0.067700
     35 H23         5.1780   -2.4210    4.9590 ha        1 2BZ      0.154000
@<TRIPOS>BOND
     1    1    2 1   
     2    1   13 2   
     3    2    3 ar  
     4    2   15 ar  
     5    3    4 1   
     6    3   17 ar  
     7    4    5 1   
     8    4   14 2   
     9    5    8 ar  
    10    5   11 ar  
    11    6   15 ar  
    12    6   16 ar  
    13    6   26 1   
    14    7   12 2   
    15    7   18 1   
    16    7   19 1   
    17    8    9 ar  
    18    8   27 1   
    19    9   10 ar  
    20    9   28 1   
    21   10   24 ar  
    22   10   29 1   
    23   11   24 ar  
    24   11   25 1   
    25   12   13 1   
    26   12   14 1   
    27   13   20 1   
    28   15   30 1   
    29   16   17 ar  
    30   16   21 1   
    31   17   31 1   
    32   18   32 1   
    33   18   33 1   
    34   18   34 1   
    35   19   20 2   
    36   21   22 1   
    37   21   23 1   
    38   24   35 1   
@<TRIPOS>SUBSTRUCTURE
     1 2BZ         1 TEMP              0 ****  ****    0 ROOT
