@<TRIPOS>MOLECULE
2BZ
   35    38     1     0     0
SMALL
bcc


@<TRIPOS>ATOM
      1 N3          0.0120   -0.3170    0.0540 nc        1 2BZ     -0.294000
      2 C4          1.4030   -0.1570    0.0450 ca        1 2BZ      0.400600
      3 C5          2.2910    0.0190    1.1390 ca        1 2BZ     -0.261800
      4 C6          1.9200   -0.0370    2.5700 cc        1 2BZ      0.315000
      5 C7          3.0790   -0.1300    3.5120 ca        1 2BZ     -0.172500
      6 C10         3.2780    0.0500   -1.5290 ca        1 2BZ     -0.066000
      7 C13        -1.7060    0.0480    3.1660 cc        1 2BZ      0.288300
      8 C20         3.5580    1.0290    4.1310 ca        1 2BZ     -0.097000
      9 C21         4.6200    0.9540    5.0310 ca        1 2BZ     -0.127000
     10 C22         5.2000   -0.2800    5.3260 ca        1 2BZ     -0.105000
     11 C24         3.6520   -1.3710    3.8250 ca        1 2BZ      0.037400
     12 C1         -0.4610   -0.0180    2.5590 cd        1 2BZ      0.117000
     13 C2         -0.7550   -0.2240    1.0810 cd        1 2BZ      0.242000
     14 N8          0.7660   -0.0140    3.1630 nd        1 2BZ     -0.313000
     15 C9          1.9360   -0.1610   -1.2790 ca        1 2BZ     -0.164300
     16 C11         4.1390    0.2780   -0.4410 ca        1 2BZ     -0.167200
     17 C12         3.6540    0.2570    0.8650 ca        1 2BZ     -0.049000
     18 C14        -2.0610    0.2480    4.5740 c3        1 2BZ     -0.135400
     19 N15        -2.7270   -0.1250    2.1300 nc        1 2BZ     -0.260000
     20 N16        -2.2530   -0.2890    1.0090 nd        1 2BZ     -0.241000
     21 N17         5.5840    0.5390   -0.6910 no        1 2BZ      0.314200
     22 O18         5.9880    0.5150   -1.8220 o         1 2BZ     -0.199500
     23 O19         6.3030    0.7680    0.2440 o         1 2BZ     -0.199500
     24 C23         4.7190   -1.4430    4.7290 ca        1 2BZ     -0.123000
     25 Cl25        3.0680   -2.8020    3.1200 cl        1 2BZ     -0.077400
     26 H10         3.6680    0.0450   -2.5620 ha        1 2BZ      0.181000
     27 H20         3.0910    2.0000    3.9070 ha        1 2BZ      0.147000
     28 H21         4.9970    1.8700    5.5100 ha        1 2BZ      0.145000
     29 H22         6.0390   -0.3390    6.0360 ha        1 2BZ      0.145000
     30 H9          1.2550   -0.3280   -2.1340 ha        1 2BZ      0.175000
     31 H12         4.3640    0.4360    1.6970 ha        1 2BZ      0.187000
     32 H14        -2.6010    1.2210    4.7020 hc        1 2BZ      0.067700
     33 H14A       -2.7380   -0.5730    4.9280 hc        1 2BZ      0.067700
     34 H14B       -1.1410    0.2580    5.2100 hc        1 2BZ      0.067700
     35 H23         5.1720   -2.4180    4.9690 ha        1 2BZ      0.154000
@<TRIPOS>BOND
     1    1    2 1   
     2    1   13 2   
     3    2    3 ar  
     4    2   15 ar  
     5    3    4 1   
     6    3   17 ar  
     7    4    5 1   
     8    4   14 2   
     9    5    8 ar  
    10    5   11 ar  
    11    6   15 ar  
    12    6   16 ar  
    13    6   26 1   
    14    7   12 2   
    15    7   18 1   
    16    7   19 1   
    17    8    9 ar  
    18    8   27 1   
    19    9   10 ar  
    20    9   28 1   
    21   10   24 ar  
    22   10   29 1   
    23   11   24 ar  
    24   11   25 1   
    25   12   13 1   
    26   12   14 1   
    27   13   20 1   
    28   15   30 1   
    29   16   17 ar  
    30   16   21 1   
    31   17   31 1   
    32   18   32 1   
    33   18   33 1   
    34   18   34 1   
    35   19   20 2   
    36   21   22 1   
    37   21   23 1   
    38   24   35 1   
@<TRIPOS>SUBSTRUCTURE
     1 2BZ         1 TEMP              0 ****  ****    0 ROOT
