@<TRIPOS>MOLECULE
2BZ
   35    38     1     0     0
SMALL
bcc


@<TRIPOS>ATOM
      1 N3          0.0110   -0.3280    0.0580 nc        1 2BZ     -0.294000
      2 C4          1.4010   -0.1630    0.0460 ca        1 2BZ      0.400600
      3 C5          2.2890    0.0180    1.1390 ca        1 2BZ     -0.261800
      4 C6          1.9210   -0.0380    2.5700 cc        1 2BZ      0.315000
      5 C7          3.0810   -0.1260    3.5110 ca        1 2BZ     -0.172500
      6 C10         3.2730    0.0500   -1.5300 ca        1 2BZ     -0.066000
      7 C13        -1.7050    0.0350    3.1710 cc        1 2BZ      0.288300
      8 C20         3.5570    1.0350    4.1300 ca        1 2BZ     -0.097000
      9 C21         4.6200    0.9650    5.0280 ca        1 2BZ     -0.127000
     10 C22         5.2050   -0.2670    5.3230 ca        1 2BZ     -0.105000
     11 C24         3.6600   -1.3650    3.8240 ca        1 2BZ      0.037400
     12 C1         -0.4600   -0.0270    2.5620 cd        1 2BZ      0.117000
     13 C2         -0.7550   -0.2370    1.0850 cd        1 2BZ      0.242000
     14 N8          0.7670   -0.0190    3.1650 nd        1 2BZ     -0.313000
     15 C9          1.9330   -0.1660   -1.2780 ca        1 2BZ     -0.164300
     16 C11         4.1350    0.2830   -0.4440 ca        1 2BZ     -0.167200
     17 C12         3.6510    0.2620    0.8630 ca        1 2BZ     -0.049000
     18 C14        -2.0600    0.2350    4.5790 c3        1 2BZ     -0.135400
     19 N15        -2.7270   -0.1440    2.1360 nc        1 2BZ     -0.260000
     20 N16        -2.2530   -0.3080    1.0150 nd        1 2BZ     -0.241000
     21 N17         5.5780    0.5500   -0.6960 no        1 2BZ      0.314200
     22 O18         5.9800    0.5270   -1.8270 o         1 2BZ     -0.199500
     23 O19         6.2970    0.7830    0.2380 o         1 2BZ     -0.199500
     24 C23         4.7270   -1.4320    4.7260 ca        1 2BZ     -0.123000
     25 CL25        3.0800   -2.7990    3.1200 cl        1 2BZ     -0.077400
     26 H10         3.6620    0.0460   -2.5640 ha        1 2BZ      0.181000
     27 H20         3.0850    2.0040    3.9050 ha        1 2BZ      0.147000
     28 H21         4.9940    1.8820    5.5060 ha        1 2BZ      0.145000
     29 H22         6.0450   -0.3230    6.0320 ha        1 2BZ      0.145000
     30 H9          1.2510   -0.3370   -2.1320 ha        1 2BZ      0.175000
     31 H12         4.3620    0.4450    1.6940 ha        1 2BZ      0.187000
     32 H14        -2.6030    1.2070    4.7060 hc        1 2BZ      0.067700
     33 H14A       -2.7330   -0.5870    4.9340 hc        1 2BZ      0.067700
     34 H14B       -1.1390    0.2490    5.2130 hc        1 2BZ      0.067700
     35 H23         5.1850   -2.4050    4.9660 ha        1 2BZ      0.154000
@<TRIPOS>BOND
     1    1    2 1   
     2    1   13 2   
     3    2    3 ar  
     4    2   15 ar  
     5    3    4 1   
     6    3   17 ar  
     7    4    5 1   
     8    4   14 2   
     9    5    8 ar  
    10    5   11 ar  
    11    6   15 ar  
    12    6   16 ar  
    13    6   26 1   
    14    7   12 2   
    15    7   18 1   
    16    7   19 1   
    17    8    9 ar  
    18    8   27 1   
    19    9   10 ar  
    20    9   28 1   
    21   10   24 ar  
    22   10   29 1   
    23   11   24 ar  
    24   11   25 1   
    25   12   13 1   
    26   12   14 1   
    27   13   20 1   
    28   15   30 1   
    29   16   17 ar  
    30   16   21 1   
    31   17   31 1   
    32   18   32 1   
    33   18   33 1   
    34   18   34 1   
    35   19   20 2   
    36   21   22 1   
    37   21   23 1   
    38   24   35 1   
@<TRIPOS>SUBSTRUCTURE
     1 2BZ         1 TEMP              0 ****  ****    0 ROOT
