@<TRIPOS>MOLECULE
2BZ
   35    38     1     0     0
SMALL
bcc


@<TRIPOS>ATOM
      1 N3          1.8830   -2.2450   -0.3140 nc        1 2BZ     -0.294000
      2 C4          0.5340   -1.9710   -0.0580 ca        1 2BZ      0.400600
      3 C5         -0.0870   -0.7270    0.2290 ca        1 2BZ     -0.261800
      4 C6          0.5760    0.5950    0.2090 cc        1 2BZ      0.315000
      5 C7         -0.3570    1.7630    0.2380 ca        1 2BZ     -0.172500
      6 C10        -1.6180   -3.1240    0.2120 ca        1 2BZ     -0.066000
      7 C13         4.2450    0.4090    0.0670 cc        1 2BZ      0.288300
      8 C20        -0.6240    2.4030    1.4540 ca        1 2BZ     -0.097000
      9 C21        -1.4720    3.5080    1.4920 ca        1 2BZ     -0.127000
     10 C22        -2.0470    3.9890    0.3160 ca        1 2BZ     -0.105000
     11 C24        -0.9230    2.2600   -0.9450 ca        1 2BZ      0.037400
     12 C1          2.8970    0.0830    0.0620 cd        1 2BZ      0.117000
     13 C2          2.8560   -1.4100   -0.2300 cd        1 2BZ      0.242000
     14 N8          1.8300    0.9300    0.1770 nd        1 2BZ     -0.313000
     15 C9         -0.2690   -3.1510   -0.0820 ca        1 2BZ     -0.164300
     16 C11        -2.2120   -1.8950    0.5470 ca        1 2BZ     -0.167200
     17 C12        -1.4600   -0.7210    0.5500 ca        1 2BZ     -0.049000
     18 C14         4.9040    1.6970    0.3040 c3        1 2BZ     -0.135400
     19 N15         5.0090   -0.8070   -0.2230 nc        1 2BZ     -0.260000
     20 N16         4.2980   -1.7910   -0.4030 nd        1 2BZ     -0.241000
     21 N17        -3.6580   -1.8500    0.8980 no        1 2BZ      0.314200
     22 O18        -4.2950   -2.8680    0.8530 o         1 2BZ     -0.199500
     23 O19        -4.1460   -0.8000    1.2180 o         1 2BZ     -0.199500
     24 C23        -1.7740    3.3710   -0.9030 ca        1 2BZ     -0.123000
     25 CL25       -0.5890    1.5320   -2.4430 cl        1 2BZ     -0.077400
     26 H10        -2.2190   -4.0510    0.1890 ha        1 2BZ      0.181000
     27 H20        -0.1580    2.0300    2.3790 ha        1 2BZ      0.147000
     28 H21        -1.6830    4.0030    2.4520 ha        1 2BZ      0.145000
     29 H22        -2.7170    4.8610    0.3460 ha        1 2BZ      0.145000
     30 H9          0.2030   -4.1180   -0.3340 ha        1 2BZ      0.175000
     31 H12        -1.9650    0.2290    0.8150 ha        1 2BZ      0.187000
     32 H14         5.5150    1.6510    1.2420 hc        1 2BZ      0.067700
     33 H14A        5.5910    1.9480   -0.5450 hc        1 2BZ      0.067700
     34 H14B        4.1440    2.5100    0.4060 hc        1 2BZ      0.067700
     35 H23        -2.2230    3.7560   -1.8320 ha        1 2BZ      0.154000
@<TRIPOS>BOND
     1    1    2 1   
     2    1   13 2   
     3    2    3 ar  
     4    2   15 ar  
     5    3    4 1   
     6    3   17 ar  
     7    4    5 1   
     8    4   14 2   
     9    5    8 ar  
    10    5   11 ar  
    11    6   15 ar  
    12    6   16 ar  
    13    6   26 1   
    14    7   12 2   
    15    7   18 1   
    16    7   19 1   
    17    8    9 ar  
    18    8   27 1   
    19    9   10 ar  
    20    9   28 1   
    21   10   24 ar  
    22   10   29 1   
    23   11   24 ar  
    24   11   25 1   
    25   12   13 1   
    26   12   14 1   
    27   13   20 1   
    28   15   30 1   
    29   16   17 ar  
    30   16   21 1   
    31   17   31 1   
    32   18   32 1   
    33   18   33 1   
    34   18   34 1   
    35   19   20 2   
    36   21   22 1   
    37   21   23 1   
    38   24   35 1   
@<TRIPOS>SUBSTRUCTURE
     1 2BZ         1 TEMP              0 ****  ****    0 ROOT
