@<TRIPOS>MOLECULE
2C0
   26    26     1     0     0
SMALL
bcc


@<TRIPOS>ATOM
      1 Cl         -0.0510   -0.2200   -0.0430 cl        1 2C0     -0.086400
      2 C8          1.6440   -0.1140   -0.0570 ca        1 2C0      0.019400
      3 C7          2.3330    0.1770    1.1250 ca        1 2C0     -0.121000
      4 C6          3.7230    0.2630    1.1080 ca        1 2C0     -0.118000
      5 C9          2.3430   -0.3180   -1.2510 ca        1 2C0     -0.121000
      6 C10         3.7330   -0.2290   -1.2580 ca        1 2C0     -0.118000
      7 C5          4.4340    0.0590   -0.0810 ca        1 2C0     -0.090300
      8 C2          5.9260    0.1720   -0.0790 c3        1 2C0     -0.033400
      9 C1          6.3370    1.5480   -0.6460 c3        1 2C0      0.157800
     10 N           6.1140    2.6240    0.2870 n8        1 2C0     -0.920800
     11 C3          6.5720   -0.9380   -0.8940 c3        1 2C0     -0.176400
     12 C4          7.9120   -1.3930   -0.3970 c         1 2C0      0.624100
     13 O2          8.3970   -2.5070   -0.6030 o         1 2C0     -0.493000
     14 O1          8.7380   -0.5770    0.3210 oh        1 2C0     -0.582100
     15 H1          1.7820    0.3350    2.0650 ha        1 2C0      0.151500
     16 H2          4.2640    0.4900    2.0400 ha        1 2C0      0.141000
     17 H3          1.8010   -0.5480   -2.1810 ha        1 2C0      0.151500
     18 H4          4.2830   -0.3890   -2.1980 ha        1 2C0      0.141000
     19 H5          6.2840    0.0870    0.9890 hc        1 2C0      0.076700
     20 H6          7.4390    1.5340   -0.8870 h1        1 2C0      0.031700
     21 H7          5.7910    1.6890   -1.6260 h1        1 2C0      0.031700
     22 H8          8.3250    0.2850    0.4740 ho        1 2C0      0.435000
     23 H9          5.1850    2.5910    0.6590 hn        1 2C0      0.358800
     24 H11         6.7030   -0.6140   -1.9630 hc        1 2C0      0.090200
     25 H12         5.9000   -1.8410   -0.9020 hc        1 2C0      0.090200
     26 HN3         6.2660    3.5080   -0.1550 hn        1 2C0      0.358800
@<TRIPOS>BOND
     1    1    2 1   
     2    2    3 ar  
     3    2    5 ar  
     4    3    4 ar  
     5    3   15 1   
     6    4    7 ar  
     7    4   16 1   
     8    5    6 ar  
     9    5   17 1   
    10    6    7 ar  
    11    6   18 1   
    12    7    8 1   
    13    8    9 1   
    14    8   11 1   
    15    8   19 1   
    16    9   10 1   
    17    9   20 1   
    18    9   21 1   
    19   10   23 1   
    20   10   26 1   
    21   11   12 1   
    22   11   24 1   
    23   11   25 1   
    24   12   13 2   
    25   12   14 1   
    26   14   22 1   
@<TRIPOS>SUBSTRUCTURE
     1 2C0         1 TEMP              0 ****  ****    0 ROOT
