@<TRIPOS>MOLECULE
2C0
   26    26     1     0     0
SMALL
bcc


@<TRIPOS>ATOM
      1 CL         -0.0260   -0.1830    0.1050 cl        1 2C0     -0.087400
      2 C8          1.6680   -0.0660    0.0390 ca        1 2C0      0.018400
      3 C7          2.3680    0.4940    1.1130 ca        1 2C0     -0.122500
      4 C6          3.7570    0.5860    1.0540 ca        1 2C0     -0.119000
      5 C9          2.3530   -0.5280   -1.0880 ca        1 2C0     -0.122500
      6 C10         3.7430   -0.4310   -1.1360 ca        1 2C0     -0.119000
      7 C5          4.4570    0.1200   -0.0670 ca        1 2C0     -0.091300
      8 C2          5.9460    0.2450   -0.1010 c3        1 2C0     -0.021400
      9 C1          6.3650    1.5300   -0.8430 c3        1 2C0      0.162800
     10 N           5.9820    2.7280   -0.1400 n3        1 2C0     -0.918800
     11 C3          6.5970   -0.9600   -0.7690 c3        1 2C0     -0.178400
     12 C4          8.0590   -1.0450   -0.4400 c         1 2C0      0.625100
     13 O2          9.0010   -0.8460   -1.2060 o         1 2C0     -0.486000
     14 O1          8.4420   -1.3970    0.8240 oh        1 2C0     -0.578100
     15 H1          1.8280    0.8610    1.9990 ha        1 2C0      0.150500
     16 H2          4.3080    1.0320    1.8970 ha        1 2C0      0.142500
     17 H3          1.8020   -0.9650   -1.9340 ha        1 2C0      0.150500
     18 H4          4.2770   -0.7900   -2.0290 ha        1 2C0      0.142500
     19 H5          6.3250    0.3070    0.9620 hc        1 2C0      0.070700
     20 H6          5.9390    1.4750   -1.8890 h1        1 2C0      0.039200
     21 H7          7.4900    1.5270   -0.9360 h1        1 2C0      0.039200
     22 H8          7.6620   -1.5180    1.3820 ho        1 2C0      0.426000
     23 H9          4.9950    2.7520    0.0210 hn        1 2C0      0.356300
     24 H11         6.4910   -0.8910   -1.8840 hc        1 2C0      0.082200
     25 H12         6.0910   -1.9020   -0.4300 hc        1 2C0      0.082200
     26 HN3         6.2570    3.5390   -0.6580 hn        1 2C0      0.356300
@<TRIPOS>BOND
     1    1    2 1   
     2    2    3 ar  
     3    2    5 ar  
     4    3    4 ar  
     5    3   15 1   
     6    4    7 ar  
     7    4   16 1   
     8    5    6 ar  
     9    5   17 1   
    10    6    7 ar  
    11    6   18 1   
    12    7    8 1   
    13    8    9 1   
    14    8   11 1   
    15    8   19 1   
    16    9   10 1   
    17    9   20 1   
    18    9   21 1   
    19   10   23 1   
    20   10   26 1   
    21   11   12 1   
    22   11   24 1   
    23   11   25 1   
    24   12   13 2   
    25   12   14 1   
    26   14   22 1   
@<TRIPOS>SUBSTRUCTURE
     1 2C0         1 TEMP              0 ****  ****    0 ROOT
