@<TRIPOS>MOLECULE
2C0
   25    25     1     0     0
SMALL
bcc


@<TRIPOS>ATOM
      1 CL         -4.5830    0.4320   -0.0340 cl        1 2C0     -0.138400
      2 C8         -2.8890    0.2160   -0.0890 ca        1 2C0     -0.002600
      3 C7         -2.2980   -0.3290   -1.2310 ca        1 2C0     -0.132000
      4 C6         -0.9160   -0.5050   -1.2690 ca        1 2C0     -0.125500
      5 C9         -2.1080    0.5880    1.0070 ca        1 2C0     -0.132000
      6 C10        -0.7280    0.4070    0.9570 ca        1 2C0     -0.125500
      7 C5         -0.1150   -0.1430   -0.1780 ca        1 2C0     -0.041300
      8 C2          1.3680   -0.3450   -0.2320 c3        1 2C0     -0.013400
      9 C1          1.7950   -1.4640    0.7330 c3        1 2C0      0.140800
     10 N           1.2230   -2.7550    0.4190 n3        1 2C0     -0.912800
     11 C3          2.1180    0.9320    0.1100 c3        1 2C0     -0.196400
     12 C4          3.6190    0.8080   -0.2240 c         1 2C0      0.910600
     13 O2          4.3600    0.1800    0.5870 o         1 2C0     -0.844300
     14 O1          4.0340    1.3570   -1.2830 o         1 2C0     -0.844300
     15 H1         -2.9150   -0.6160   -2.0950 ha        1 2C0      0.132000
     16 H2         -0.4460   -0.9340   -2.1680 ha        1 2C0      0.144500
     17 H3         -2.5750    1.0230    1.9020 ha        1 2C0      0.132000
     18 H4         -0.1040    0.7050    1.8140 ha        1 2C0      0.144500
     19 H5          1.6610   -0.6450   -1.2790 hc        1 2C0      0.076700
     20 H6          2.9240   -1.5400    0.6740 h1        1 2C0      0.056700
     21 H7          1.5340   -1.1310    1.7820 h1        1 2C0      0.056700
     22 H8          1.4890   -3.4200    1.1180 hn        1 2C0      0.328800
     23 H9          0.2230   -2.7010    0.3920 hn        1 2C0      0.328800
     24 H11         1.6880    1.7820   -0.4760 hc        1 2C0      0.027200
     25 H12         2.0120    1.1630    1.2000 hc        1 2C0      0.027200
@<TRIPOS>BOND
     1    1    2 1   
     2    2    3 ar  
     3    2    5 ar  
     4    3    4 ar  
     5    3   15 1   
     6    4    7 ar  
     7    4   16 1   
     8    5    6 ar  
     9    5   17 1   
    10    6    7 ar  
    11    6   18 1   
    12    7    8 1   
    13    8    9 1   
    14    8   11 1   
    15    8   19 1   
    16    9   10 1   
    17    9   20 1   
    18    9   21 1   
    19   10   22 1   
    20   10   23 1   
    21   11   12 1   
    22   11   24 1   
    23   11   25 1   
    24   12   13 1   
    25   12   14 1   
@<TRIPOS>SUBSTRUCTURE
     1 2C0         1 TEMP              0 ****  ****    0 ROOT
