@<TRIPOS>MOLECULE
2C0
   25    22     1     0     0
SMALL
bcc


@<TRIPOS>ATOM
      1 CL         -5.1080   -0.3740    0.1980 cl        1 2C0     -0.147900
      2 C8         -3.3830   -0.1390    0.1710 c1        1 2C0      0.008900
      3 C7         -2.7140   -0.0830   -1.0390 c1        1 2C0     -0.067000
      4 C6         -1.3110   -0.0070   -1.0660 c1        1 2C0     -0.067000
      5 C9         -2.6590   -0.1200    1.3700 c1        1 2C0     -0.072500
      6 C10        -1.2580   -0.0430    1.3410 c1        1 2C0     -0.077500
      7 C5         -0.5910    0.0130    0.1250 c1        1 2C0     -0.006100
      8 C2          0.9230    0.0750    0.0930 c3        1 2C0     -0.098600
      9 C1          1.3530    1.2810   -0.6930 c3        1 2C0      0.151800
     10 N           1.9700    2.2530    0.2020 n3        1 2C0     -0.908800
     11 C3          1.4690   -1.1880   -0.5680 c3        1 2C0     -0.191400
     12 C4          2.6430   -1.7410    0.2710 c         1 2C0      0.908600
     13 O2          2.4060   -2.4140    1.3270 o         1 2C0     -0.845800
     14 O1          3.8200   -1.6440   -0.1580 o         1 2C0     -0.845800
     15 H1         -3.2300   -0.0570   -1.8920 ha        1 2C0      0.082500
     16 H2         -0.8360    0.0330   -1.9310 ha        1 2C0      0.082500
     17 H3         -3.1250   -0.2200    2.2200 ha        1 2C0      0.074500
     18 H4         -0.7550   -0.0310    2.1710 ha        1 2C0      0.080500
     19 H5          1.2660    0.1410    1.0040 hc        1 2C0      0.085700
     20 H6          0.5650    1.6890   -1.1260 h1        1 2C0      0.064700
     21 H7          2.0040    1.0090   -1.3840 h1        1 2C0      0.064700
     22 H8          2.6610    1.8590    0.6480 hn        1 2C0      0.332800
     23 H9          1.3530    2.5500    0.8000 hn        1 2C0      0.332800
     24 H11         0.7570   -1.8640   -0.6210 hc        1 2C0      0.029200
     25 H12         1.7800   -0.9770   -1.4610 hc        1 2C0      0.029200
@<TRIPOS>BOND
     1    1    2 1   
     2    2    5 3   
     3    3    4 3   
     4    3   15 1   
     5    4   16 1   
     6    5   17 1   
     7    6    7 3   
     8    6   18 1   
     9    7    8 1   
    10    8    9 1   
    11    8   11 1   
    12    8   19 1   
    13    9   10 1   
    14    9   20 1   
    15    9   21 1   
    16   10   22 1   
    17   10   23 1   
    18   11   12 1   
    19   11   24 1   
    20   11   25 1   
    21   12   13 1   
    22   12   14 1   
@<TRIPOS>SUBSTRUCTURE
     1 2C0         1 TEMP              0 ****  ****    0 ROOT
