@<TRIPOS>MOLECULE
2C0
   26    26     1     0     0
SMALL
bcc


@<TRIPOS>ATOM
      1 CL         -0.0480   -0.2690   -0.0700 cl        1 2C0     -0.086400
      2 C8          1.6470   -0.1460   -0.0750 ca        1 2C0      0.019400
      3 C7          2.3240    0.1690    1.1070 ca        1 2C0     -0.121000
      4 C6          3.7140    0.2680    1.0980 ca        1 2C0     -0.118000
      5 C9          2.3550   -0.3600   -1.2610 ca        1 2C0     -0.121000
      6 C10         3.7440   -0.2580   -1.2600 ca        1 2C0     -0.118000
      7 C5          4.4350    0.0540   -0.0830 ca        1 2C0     -0.090300
      8 C2          5.9260    0.1830   -0.0730 c3        1 2C0     -0.033400
      9 C1          6.3260    1.5550   -0.6560 c3        1 2C0      0.157800
     10 N           6.0870    2.6410    0.2600 n3        1 2C0     -0.920800
     11 C3          6.5880   -0.9320   -0.8680 c3        1 2C0     -0.176400
     12 C4          7.9290   -1.3660   -0.3560 c         1 2C0      0.624100
     13 O2          8.4260   -2.4780   -0.5430 o         1 2C0     -0.493000
     14 O1          8.7410   -0.5320    0.3560 oh        1 2C0     -0.582100
     15 H1          1.7660    0.3350    2.0420 ha        1 2C0      0.151500
     16 H2          4.2460    0.5150    2.0300 ha        1 2C0      0.141000
     17 H3          1.8220   -0.6090   -2.1910 ha        1 2C0      0.151500
     18 H4          4.3020   -0.4250   -2.1940 ha        1 2C0      0.141000
     19 H5          6.2770    0.1160    0.9990 hc        1 2C0      0.076700
     20 H6          5.7850    1.6760   -1.6420 h1        1 2C0      0.031700
     21 H7          7.4300    1.5480   -0.8890 h1        1 2C0      0.031700
     22 H8          6.2320    3.5210   -0.1940 hn        1 2C0      0.358800
     23 H9          8.3190    0.3270    0.4940 ho        1 2C0      0.435000
     24 H11         5.9250   -1.8420   -0.8680 hc        1 2C0      0.090200
     25 H12         6.7220   -0.6220   -1.9410 hc        1 2C0      0.090200
     26 HN3         5.1550    2.6040    0.6260 hn        1 2C0      0.358800
@<TRIPOS>BOND
     1    1    2 1   
     2    2    3 ar  
     3    2    5 ar  
     4    3    4 ar  
     5    3   15 1   
     6    4    7 ar  
     7    4   16 1   
     8    5    6 ar  
     9    5   17 1   
    10    6    7 ar  
    11    6   18 1   
    12    7    8 1   
    13    8    9 1   
    14    8   11 1   
    15    8   19 1   
    16    9   10 1   
    17    9   20 1   
    18    9   21 1   
    19   10   22 1   
    20   10   26 1   
    21   11   12 1   
    22   11   24 1   
    23   11   25 1   
    24   12   13 2   
    25   12   14 1   
    26   14   23 1   
@<TRIPOS>SUBSTRUCTURE
     1 2C0         1 TEMP              0 ****  ****    0 ROOT
