@<TRIPOS>MOLECULE
2C1
   51    50     1     0     0
SMALL
bcc


@<TRIPOS>ATOM
      1 N3          0.2390   -0.0700    2.3400 n7        1 2C1     -0.801000
      2 C5          1.5950   -0.1100    2.0090 c2        1 2C1      0.340000
      3 C6          3.7420    0.9940    1.9860 c2        1 2C1      0.136000
      4 C7          5.8590   -0.0070    1.9310 c2        1 2C1      0.144000
      5 C8         -1.5900    2.8550    1.5100 c2        1 2C1      0.012000
      6 C10        -1.2140    5.2770    1.4300 c2        1 2C1     -0.514000
      7 N12         6.6760   -1.1640    1.9890 ns        1 2C1     -0.311000
      8 C13        -1.6260    4.1450    0.8190 c2        1 2C1      0.083000
      9 C15         4.3210    2.2890    1.8220 c2        1 2C1     -0.155000
     10 C28         8.1830   -5.9410    3.1250 c2        1 2C1      0.114000
     11 S1         -0.5340    1.0720    3.2390 s6        1 2C1      2.861000
     12 C2         -0.5530    2.4470    2.2510 c2        1 2C1     -0.882000
     13 S4         -0.5220    5.2580    2.9620 ss        1 2C1      0.721000
     14 N9          4.5060   -0.1390    2.0220 n2        1 2C1     -0.271000
     15 N11         2.3490    0.9610    2.1740 n2        1 2C1     -0.319000
     16 C14         6.2580   -2.4050    2.3940 c2        1 2C1      0.317000
     17 C16         6.5020    1.2520    1.7710 c2        1 2C1     -0.196000
     18 O17        -1.8580    0.6360    3.3820 o         1 2C1     -0.898000
     19 O18         0.1740    1.4200    4.3890 o         1 2C1     -0.898000
     20 C19         5.7050    2.3970    1.7120 c2        1 2C1     -0.093000
     21 O20         1.8910   -1.3540    1.4940 oh        1 2C1     -0.270000
     22 O21         7.0730   -3.3580    2.4270 o         1 2C1     -0.493000
     23 N22         9.0260   -5.4020    2.3080 n8        1 2C1     -0.133000
     24 Br1         6.5010    4.0730    1.4910 br        1 2C1      0.119000
     25 O26        -0.7050    6.9310    4.9500 os        1 2C1     -0.093000
     26 C27        -1.0660    6.6100    3.7010 c2        1 2C1     -0.098000
     27 C29         0.1800    6.0300    5.6450 c3        1 2C1     -0.123000
     28 H1          0.3830    3.0420    2.2690 h4        1 2C1      0.185000
     29 H2         -2.5110    2.2400    1.4110 ha        1 2C1      0.191000
     30 H3          7.6360   -1.0220    1.7490 hn        1 2C1      0.251000
     31 H4          3.6770    3.1800    1.7880 ha        1 2C1      0.169000
     32 H5          8.8560   -4.4810    1.9160 hn        1 2C1      0.293000
     33 H6          7.2510   -5.3880    3.4050 h4        1 2C1      0.213000
     34 H7          8.3620   -6.9490    3.5600 h4        1 2C1      0.213000
     35 H8          2.8150   -1.3950    1.1970 ho        1 2C1      0.272000
     36 H9          7.5970    1.3250    1.6950 ha        1 2C1      0.172000
     37 H10         5.1900   -2.5220    2.6880 h5        1 2C1      0.179000
     38 H11        -1.2780    6.2380    0.8900 h4        1 2C1      0.189000
     39 H12        -1.4170    8.2740    2.3980 hc        1 2C1      0.155000
     40 H13        -3.2280    3.8110   -0.5540 hc        1 2C1      0.127333
     41 H14        -2.0920    5.1460   -1.0400 hc        1 2C1      0.127333
     42 H15        -1.5770    3.4100   -1.1910 hc        1 2C1      0.127333
     43 H16        -2.3850    8.3040    3.9320 hc        1 2C1      0.155000
     44 H17        -2.8360    7.1430    2.6000 hc        1 2C1      0.155000
     45 H18         0.2900    6.5210    6.6490 h1        1 2C1      0.138000
     46 H19        -0.2970    5.0220    5.7360 h1        1 2C1      0.138000
     47 H20         1.1610    5.9780    5.1090 h1        1 2C1      0.138000
     48 C23        -1.9780    7.6310    3.1290 c3        1 2C1     -0.248000
     49 H32        -0.2630   -0.8830    2.0300 hn        1 2C1      0.288000
     50 H222        9.8790   -5.8550    2.0230 hn        1 2C1      0.293000
     51 C25        -2.1550    4.1360   -0.5630 c3        1 2C1     -0.219000
@<TRIPOS>BOND
     1    1    2 1   
     2    1   11 1   
     3    1   49 1   
     4    2   15 1   
     5    2   21 1   
     6    3    9 1   
     7    3   14 1   
     8    3   15 1   
     9    4    7 1   
    10    4   14 1   
    11    4   17 1   
    12    5    8 1   
    13    5   12 1   
    14    5   29 1   
    15    6    8 1   
    16    6   13 1   
    17    6   38 1   
    18    7   16 1   
    19    7   30 1   
    20    8   51 1   
    21    9   20 1   
    22    9   31 1   
    23   10   23 1   
    24   10   33 1   
    25   10   34 1   
    26   11   12 1   
    27   11   18 1   
    28   11   19 1   
    29   12   28 1   
    30   13   26 1   
    31   16   22 1   
    32   16   37 1   
    33   17   20 1   
    34   17   36 1   
    35   20   24 1   
    36   21   35 1   
    37   23   32 1   
    38   23   50 1   
    39   25   26 1   
    40   25   27 1   
    41   26   48 1   
    42   27   45 1   
    43   27   46 1   
    44   27   47 1   
    45   39   48 1   
    46   40   51 1   
    47   41   51 1   
    48   42   51 1   
    49   43   48 1   
    50   44   48 1   
@<TRIPOS>SUBSTRUCTURE
     1 2C1         1 TEMP              0 ****  ****    0 ROOT
