@<TRIPOS>MOLECULE
2C1
   51    50     1     0     0
SMALL
bcc


@<TRIPOS>ATOM
      1 N3         -0.4140   -0.5960    2.7820 nh        1 2C1     -0.942800
      2 C5          1.0080   -0.5040    2.6600 c2        1 2C1      0.821500
      3 C6          2.9620   -0.3050    1.2410 ca        1 2C1      0.667300
      4 C7          5.2140   -0.4450    1.8810 ca        1 2C1      0.546200
      5 C8         -1.2680    3.4070    1.4940 cc        1 2C1     -0.009000
      6 C10        -0.8110    4.9920    3.1140 cd        1 2C1     -0.070400
      7 N12         6.1530   -0.6230    2.9310 n         1 2C1     -0.541400
      8 C13        -0.7970    4.6870    1.7140 cc        1 2C1     -0.103300
      9 C15         3.3320   -0.0920   -0.1240 ca        1 2C1     -0.195300
     10 C28        10.0760   -2.5950    0.0750 c2        1 2C1      0.428100
     11 S1         -2.2440    1.3430    2.6560 s4        1 2C1      1.741300
     12 C2         -1.6510    2.7210    2.7160 cd        1 2C1     -0.841600
     13 S4         -1.3520    3.7680    3.9970 ss        1 2C1      0.561200
     14 N9          3.8930   -0.4680    2.2240 nb        1 2C1     -0.789000
     15 N11         1.5770   -0.3810    1.4830 ne        1 2C1     -0.771700
     16 C14         7.4250   -1.1180    2.8010 c         1 2C1      0.713900
     17 C16         5.6490   -0.2300    0.5480 ca        1 2C1     -0.256300
     18 O17        -2.5010    0.7750    1.4530 o         1 2C1     -0.435900
     19 O18        -2.6550    0.7600    3.8090 o         1 2C1     -0.435900
     20 C19         4.6840   -0.0560   -0.4480 ca        1 2C1      0.028100
     21 O20         1.5440   -0.5060    3.9310 oh        1 2C1     -0.622600
     22 O21         7.9580   -1.4650    1.7250 o         1 2C1     -0.714100
     23 N22         9.0060   -2.6170   -0.6500 nh        1 2C1     -0.288100
     24 BR1         5.2240    0.2260   -2.2160 br        1 2C1     -0.033100
     25 O26        -0.9010    5.3710    5.7630 os        1 2C1     -0.487600
     26 C27        -0.8660    6.6040    5.0390 c3        1 2C1      0.116400
     27 C29        -1.3310    5.5320    7.1140 c3        1 2C1      0.119700
     28 H1         -0.6630   -1.0010    3.6720 hn        1 2C1      0.434800
     29 H2         -1.3650    2.9370    0.5060 ha        1 2C1      0.195000
     30 H3          5.8120   -0.4720    3.8600 hn        1 2C1      0.349500
     31 H4          2.5530    0.0330   -0.8940 ha        1 2C1      0.190000
     32 H5          8.9850   -2.9950   -1.5830 hn        1 2C1      0.342700
     33 H6         10.0390   -2.1650    1.1060 h4        1 2C1      0.084300
     34 H7         11.0420   -2.9990   -0.3060 h4        1 2C1      0.084300
     35 H8          2.5150   -0.4530    3.9060 ho        1 2C1      0.482000
     36 H9          6.7230   -0.1860    0.3130 ha        1 2C1      0.165000
     37 H10         7.9750   -1.1800    3.7740 h5        1 2C1      0.070200
     38 H11        -0.6720    7.1170    2.9470 hc        1 2C1      0.102200
     39 H12         0.7780    6.2860    3.6460 hc        1 2C1      0.102200
     40 H13         0.6600    6.0290    0.9150 hc        1 2C1      0.071033
     41 H14        -1.0670    6.4880    0.6020 hc        1 2C1      0.071033
     42 H15        -0.3110    5.1250   -0.3280 hc        1 2C1      0.071033
     43 H16        -0.1800    7.3270    5.5560 h1        1 2C1      0.066700
     44 H17        -1.9020    7.0380    5.0010 h1        1 2C1      0.066700
     45 H18        -2.3730    5.9340    7.1410 h1        1 2C1      0.057033
     46 H19        -0.6340    6.2160    7.6570 h1        1 2C1      0.057033
     47 H20        -1.2880    4.5000    7.5440 h1        1 2C1      0.057033
     48 C23        -0.3500    6.2900    3.6420 c3        1 2C1     -0.047100
     49 H32        -0.8160   -1.1220    2.0210 hn        1 2C1      0.434800
     50 H222        8.1280   -2.2490   -0.2970 hn        1 2C1      0.342700
     51 C25        -0.3560    5.6250    0.6710 c3        1 2C1     -0.052800
@<TRIPOS>BOND
     1    1    2 1   
     2    1   28 1   
     3    1   49 1   
     4    2   15 2   
     5    2   21 1   
     6    3    9 ar  
     7    3   14 ar  
     8    3   15 1   
     9    4    7 1   
    10    4   14 ar  
    11    4   17 ar  
    12    5    8 1   
    13    5   12 2   
    14    5   29 1   
    15    6    8 2   
    16    6   13 1   
    17    6   48 1   
    18    7   16 1   
    19    7   30 1   
    20    8   51 1   
    21    9   20 ar  
    22    9   31 1   
    23   10   23 2   
    24   10   33 1   
    25   10   34 1   
    26   11   12 1   
    27   11   18 1   
    28   11   19 1   
    29   12   13 1   
    30   16   22 2   
    31   16   37 1   
    32   17   20 ar  
    33   17   36 1   
    34   20   24 1   
    35   21   35 1   
    36   23   32 1   
    37   23   50 1   
    38   25   26 1   
    39   25   27 1   
    40   26   43 1   
    41   26   44 1   
    42   26   48 1   
    43   27   45 1   
    44   27   46 1   
    45   27   47 1   
    46   38   48 1   
    47   39   48 1   
    48   40   51 1   
    49   41   51 1   
    50   42   51 1   
@<TRIPOS>SUBSTRUCTURE
     1 2C1         1 TEMP              0 ****  ****    0 ROOT
