@<TRIPOS>MOLECULE
2C1
   53    51     1     0     0
SMALL
bcc


@<TRIPOS>ATOM
      1 N3       -246.6850  152.1480 -207.7500 n2        1 2C1     -1.085000
      2 C5       -246.7630  152.8330 -206.6700 c2        1 2C1      0.584000
      3 C6       -246.5300  155.1390 -205.6350 c2        1 2C1      0.102000
      4 C7       -247.7470  156.0280 -203.7560 c3        1 2C1      0.038000
      5 C8       -248.3880  149.3280 -209.0000 c2        1 2C1      0.142000
      6 C10      -247.2240  147.3030 -208.6170 c2        1 2C1     -0.505000
      7 N12      -247.9600  155.6180 -202.3910 n         1 2C1     -0.370000
      8 C13      -248.5320  147.8770 -208.9140 c2        1 2C1     -0.207000
      9 C15      -245.7690  156.4050 -205.7780 c2        1 2C1      0.107000
     10 C28      1786.4210-1299.3710    0.4440 c2        1 2C1      0.119000
     11 S1       -246.6090  151.4170 -209.0670 s6        1 2C1      2.982000
     12 C2       -247.0880  149.7160 -208.7560 c2        1 2C1     -1.180000
     13 S4       -246.1270  148.4350 -208.4350 ss        1 2C1      1.294000
     14 N9       -247.4180  154.9570 -204.6830 n2        1 2C1     -0.192000
     15 N11      -246.2260  154.1390 -206.5780 n3        1 2C1     -0.324000
     16 C14      -249.2020  155.0540 -202.0070 c2        1 2C1      0.254000
     17 C16      -246.9140  157.2720 -203.8450 c2        1 2C1      0.171000
     18 O17      -247.5900  151.8310 -209.9630 o         1 2C1     -0.903500
     19 O18      -245.2940  151.2390 -209.4970 o         1 2C1     -0.903500
     20 C19      -245.9940  157.4430 -204.8900 c2        1 2C1     -0.275000
     21 O20      -247.3480  152.2120 -205.6080 oh        1 2C1     -0.221000
     22 O21      -249.2260  154.2540 -201.0770 o         1 2C1     -0.224000
     23 N22      1787.0430-1298.3860    0.8840 n3        1 2C1     -0.136000
     24 BR1      -245.0490  159.0470 -205.0440 br        1 2C1      0.260000
     25 O26      -246.4260  143.8600 -209.5340 os        1 2C1     -0.064000
     26 C27      -246.8020  145.0870 -209.6810 c2        1 2C1      0.262000
     27 C29      -246.2420  142.9820 -210.7000 c3        1 2C1     -0.090000
     28 H1        263.4080  552.6250 -208.7780 ha        1 2C1      0.001500
     29 H2       -249.2220  150.0010 -209.2700 ha        1 2C1      0.232000
     30 H3       -248.7800  156.4120 -204.1590 h2        1 2C1      0.242000
     31 H4       -245.0170  156.5060 -206.5910 ha        1 2C1      0.224000
     32 H5       1786.6550-1297.8720    0.1050 hn        1 2C1      0.293000
     33 H6       1786.8700-1299.9220    0.3030 h4        1 2C1      0.215000
     34 H7       1785.4170-1299.6980    0.0820 h4        1 2C1      0.215000
     35 H8       -247.3370  152.7340 -204.7850 ho        1 2C1      0.282000
     36 H9       -247.0840  158.0660 -203.0780 ha        1 2C1      0.245000
     37 H10      1787.9520-1298.0720    0.1950 hn        1 2C1      0.293000
     38 H11      -247.8900  145.3950 -207.8760 hc        1 2C1      0.203000
     39 H12      -246.1200  145.6670 -207.7320 hc        1 2C1      0.203000
     40 H13      -249.4770  143.7830 -210.1740 ha        1 2C1      0.001500
     41 H14      -249.8260  146.1440 -208.9860 ha        1 2C1      0.177500
     42 H15      -250.6560  147.8000 -209.2650 ha        1 2C1      0.177500
     43 H16      -246.9570  145.5380 -210.6860 h4        1 2C1      0.206000
     44 H17      -248.9610  144.2000 -210.0190 ha        1 2C1      0.001500
     45 H18      -245.4440  142.2760 -210.3380 h1        1 2C1      0.169000
     46 H19      -245.9230  143.5710 -211.5920 h1        1 2C1      0.169000
     47 H20      -247.2240  142.4620 -210.8450 h1        1 2C1      0.169000
     48 C23      -247.0040  145.8560 -208.4210 c3        1 2C1     -0.163000
     49 H32       264.0540  552.6790 -208.5850 ha        1 2C1      0.001500
     50 H122     -247.1480  155.2800 -201.9100 hn        1 2C1      0.242000
     51 H112     -245.6860  154.4480 -207.3670 hn        1 2C1      0.284000
     52 H222     -250.0870  155.4410 -202.5580 h5        1 2C1      0.167000
     53 C25      -249.7210  147.2410 -209.0620 c2        1 2C1      0.113000
@<TRIPOS>BOND
     1    1    2 1   
     2    1   11 1   
     3    2   15 1   
     4    2   21 1   
     5    3    9 1   
     6    3   14 1   
     7    3   15 1   
     8    4    7 1   
     9    4   14 1   
    10    4   17 1   
    11    4   30 1   
    12    5    8 1   
    13    5   12 1   
    14    5   29 1   
    15    6    8 1   
    16    6   13 1   
    17    6   48 1   
    18    7   16 1   
    19    7   50 1   
    20    8   53 1   
    21    9   20 1   
    22    9   31 1   
    23   10   23 1   
    24   10   33 1   
    25   10   34 1   
    26   11   12 1   
    27   11   18 1   
    28   11   19 1   
    29   12   13 1   
    30   15   51 1   
    31   16   22 1   
    32   16   52 1   
    33   17   20 1   
    34   17   36 1   
    35   20   24 1   
    36   21   35 1   
    37   23   32 1   
    38   23   37 1   
    39   25   26 1   
    40   25   27 1   
    41   26   43 1   
    42   26   48 1   
    43   27   45 1   
    44   27   46 1   
    45   27   47 1   
    46   28   49 1   
    47   38   48 1   
    48   39   48 1   
    49   40   44 1   
    50   41   53 1   
    51   42   53 1   
@<TRIPOS>SUBSTRUCTURE
     1 2C1         1 TEMP              0 ****  ****    0 ROOT
