@<TRIPOS>MOLECULE
2C1
   49    50     1     0     0
SMALL
bcc


@<TRIPOS>ATOM
      1 N3          0.3270    3.1670    0.0600 n         1 2C1     -0.668300
      2 C5         -0.5130    2.2870    0.7660 c         1 2C1      0.805100
      3 C6         -2.6070    1.0080    0.5770 ca        1 2C1      0.556200
      4 C7         -2.6730   -1.3220    0.5580 ca        1 2C1      0.589200
      5 C8          3.3010    1.8930   -1.2490 cc        1 2C1     -0.029000
      6 C10         3.7550   -0.1240   -0.2130 cd        1 2C1     -0.142400
      7 N12        -2.0220   -2.5580    0.4340 n         1 2C1     -0.580400
      8 C13         3.9210    0.6340   -1.3860 cc        1 2C1     -0.127300
      9 C15        -3.9860    1.0960    0.9160 ca        1 2C1     -0.260300
     10 C28         1.1840   -4.0000   -0.7690 c3        1 2C1      0.069300
     11 S1          1.9360    3.4800    0.3590 sy        1 2C1      1.571900
     12 C2          2.6880    2.0610    0.0100 cd        1 2C1     -0.539600
     13 S4          2.9070    0.7020    0.9160 ss        1 2C1      0.366200
     14 N9         -1.9570   -0.1730    0.3910 nb        1 2C1     -0.693000
     15 N11        -1.8890    2.2290    0.4290 n         1 2C1     -0.536400
     16 C14        -0.8860   -2.7650   -0.3960 c         1 2C1      0.772100
     17 C16        -4.0610   -1.3190    0.9010 ca        1 2C1     -0.287300
     18 O17         2.2850    4.4560   -0.6000 o         1 2C1     -0.644800
     19 O18         2.1350    3.8350    1.6970 o         1 2C1     -0.644800
     20 C19        -4.6970   -0.0930    1.0740 ca        1 2C1      0.052100
     21 O20        -0.0540    1.6330    1.7240 o         1 2C1     -0.584100
     22 O21        -0.6680   -2.0570   -1.3990 o         1 2C1     -0.579100
     23 N22        -0.0700   -3.8720   -0.0860 n         1 2C1     -0.549900
     24 BR1        -6.5160   -0.0410    1.5210 br        1 2C1     -0.065100
     25 C25         4.6330    0.2010   -2.5960 c3        1 2C1     -0.031800
     26 O26         6.0740   -2.9420    0.2830 os        1 2C1     -0.427600
     27 C27         5.7430   -1.5620    0.1390 c3        1 2C1      0.131400
     28 C29         7.4680   -3.1520    0.4350 c3        1 2C1      0.116700
     29 H1         -0.0850    3.6420   -0.7140 hn        1 2C1      0.329500
     30 H2          3.3020    2.6650   -2.0280 ha        1 2C1      0.177000
     31 H3         -2.5010   -3.3460    0.8030 hn        1 2C1      0.331500
     32 H4         -4.4660    2.0740    1.0610 ha        1 2C1      0.168000
     33 H5          1.0580   -3.7170   -1.8480 h1        1 2C1      0.048700
     34 H6          1.9820   -3.3440   -0.3210 h1        1 2C1      0.048700
     35 H7          1.5110   -5.0710   -0.6990 h1        1 2C1      0.048700
     36 H8         -2.2190    2.7920   -0.3250 hn        1 2C1      0.314500
     37 H9         -4.6090   -2.2630    1.0230 ha        1 2C1      0.158000
     38 H10        -0.0770   -4.1950    0.8560 hn        1 2C1      0.299500
     39 H11         3.7520   -1.9610    0.8940 hc        1 2C1      0.067700
     40 H12         3.9300   -2.1370   -0.8970 hc        1 2C1      0.067700
     41 H13         4.5080   -0.8990   -2.7560 hc        1 2C1      0.047367
     42 H14         4.2460    0.7390   -3.4970 hc        1 2C1      0.047367
     43 H15         5.7280    0.4180   -2.5020 hc        1 2C1      0.047367
     44 H16         6.2500   -1.1410   -0.7710 h1        1 2C1      0.035200
     45 H17         6.0810   -0.9960    1.0460 h1        1 2C1      0.035200
     46 H18         8.0220   -2.7840   -0.4640 h1        1 2C1      0.035033
     47 H19         7.8460   -2.6360    1.3520 h1        1 2C1      0.035033
     48 H20         7.5730   -4.2610    0.5350 h1        1 2C1      0.035033
     49 C23         4.2290   -1.5040   -0.0160 c3        1 2C1     -0.016100
@<TRIPOS>BOND
     1    1    2 1   
     2    1   11 1   
     3    1   29 1   
     4    2   15 1   
     5    2   21 2   
     6    3    9 ar  
     7    3   14 ar  
     8    3   15 1   
     9    4    7 1   
    10    4   14 ar  
    11    4   17 ar  
    12    5    8 1   
    13    5   12 2   
    14    5   30 1   
    15    6    8 2   
    16    6   13 1   
    17    6   49 1   
    18    7   16 1   
    19    7   31 1   
    20    8   25 1   
    21    9   20 ar  
    22    9   32 1   
    23   10   23 1   
    24   10   33 1   
    25   10   34 1   
    26   10   35 1   
    27   11   12 1   
    28   11   18 2   
    29   11   19 2   
    30   12   13 1   
    31   15   36 1   
    32   16   22 2   
    33   16   23 1   
    34   17   20 ar  
    35   17   37 1   
    36   20   24 1   
    37   23   38 1   
    38   25   41 1   
    39   25   42 1   
    40   25   43 1   
    41   26   27 1   
    42   26   28 1   
    43   27   44 1   
    44   27   45 1   
    45   27   49 1   
    46   28   46 1   
    47   28   47 1   
    48   28   48 1   
    49   39   49 1   
    50   40   49 1   
@<TRIPOS>SUBSTRUCTURE
     1 2C1         1 TEMP              0 ****  ****    0 ROOT
