@<TRIPOS>MOLECULE
2C1
   49    41     1     0     0
SMALL
bcc


@<TRIPOS>ATOM
      1 N3         -0.1630    1.0280   -1.5370 n3        1 2C1     -0.862000
      2 C5          1.1730    0.5930   -1.7380 c1        1 2C1      0.421000
      3 C6          3.4280    0.1530   -0.8490 c1        1 2C1      0.137000
      4 C7          5.5510   -0.4110    0.0150 c1        1 2C1      0.138000
      5 C8         -3.2980   -0.2340   -1.2800 c1        1 2C1     -0.066500
      6 C10        -5.1170    0.7370    0.0780 c1        1 2C1     -0.808500
      7 N12         6.2400   -0.6840    1.2260 n2        1 2C1     -0.299000
      8 C13        -4.8700   -0.1530   -1.0400 c1        1 2C1     -0.066500
      9 C15         3.9020   -0.0340   -2.1390 c1        1 2C1     -0.168000
     10 C28         9.7630   -1.1620    2.4440 c3        1 2C1     -0.084000
     11 S1         -0.8920    0.7970   -0.0840 s4        1 2C1      2.116800
     12 C2         -2.6440    0.6110   -0.2980 c1        1 2C1     -0.808500
     13 S4         -3.7450    1.2520    0.5900 ss        1 2C1      0.824000
     14 N9          4.2560   -0.0370    0.2160 n1        1 2C1     -0.224000
     15 N11         2.0700    0.5200   -0.6370 n2        1 2C1     -0.311000
     16 C14         7.6550   -0.7770    1.2320 c1        1 2C1      0.377000
     17 C16         6.0280   -0.5980   -1.2730 c2        1 2C1     -0.162000
     18 O17        -0.3280   -0.3280    0.6090 o         1 2C1     -0.537400
     19 O18        -0.5880    1.8660    0.8270 o         1 2C1     -0.537400
     20 C19         5.1990   -0.4080   -2.3410 c1        1 2C1     -0.105000
     21 O20         1.5670    0.3420   -2.8580 o         1 2C1     -0.354000
     22 O21         8.2780   -0.6220    0.2000 o         1 2C1     -0.374000
     23 N22         8.3420   -1.0740    2.4370 n2        1 2C1     -0.357000
     24 C23        -6.3050    1.5360    0.5730 c2        1 2C1     -0.108000
     25 BR1         6.1930   -0.7920   -3.9290 br        1 2C1      0.077000
     26 C25        -5.6710   -0.7040   -2.2010 c2        1 2C1     -0.160000
     27 O26        -8.5400    0.9170    1.1340 os        1 2C1     -0.281000
     28 C27        -7.1880    0.6510    1.4260 c3        1 2C1     -0.018000
     29 C29        -9.4480    0.0870    1.8250 c3        1 2C1     -0.073000
     30 H1         -0.6190    1.4300   -2.2170 hn        1 2C1      0.270000
     31 H2         -2.8510   -0.7610   -1.9690 DU        1 2C1      0.177000
     32 H3          5.7730   -0.7900    2.0020 hn        1 2C1      0.232000
     33 H4          3.3100    0.1020   -2.9000 ha        1 2C1      0.185000
     34 H5         10.1430   -0.3440    2.0570 h1        1 2C1      0.089000
     35 H6         10.0790   -1.2640    3.3680 h1        1 2C1      0.089000
     36 H7         10.0450   -1.9370    1.9130 h1        1 2C1      0.089000
     37 H8          1.7640    0.6640    0.2100 hn        1 2C1      0.268000
     38 H9          6.9560   -0.8660   -1.4170 ha        1 2C1      0.193000
     39 H10         7.8720   -1.2190    3.2050 hn        1 2C1      0.213000
     40 H11        -6.8160    1.8670   -0.1930 ha        1 2C1      0.113000
     41 H12        -5.9890    2.2930    1.1060 ha        1 2C1      0.113000
     42 H13        -5.3520   -1.6050   -2.4190 ha        1 2C1      0.090333
     43 H14        -6.6190   -0.7440   -1.9540 ha        1 2C1      0.090333
     44 H15        -5.5600   -0.1210   -2.9800 ha        1 2C1      0.090333
     45 H16        -7.0160    0.8330    2.3730 h1        1 2C1      0.074000
     46 H17        -6.9920   -0.2890    1.2330 h1        1 2C1      0.074000
     47 H18        -9.2600   -0.8530    1.6100 h1        1 2C1      0.075333
     48 H19       -10.3650    0.3070    1.5540 h1        1 2C1      0.075333
     49 H20        -9.3500    0.2270    2.7910 h1        1 2C1      0.075333
@<TRIPOS>BOND
     1    1    2 1   
     2    1   11 1   
     3    1   30 1   
     4    2   21 1   
     5    3    9 1   
     6    3   15 1   
     7    4   14 1   
     8    4   17 1   
     9    5    8 1   
    10    5   12 1   
    11    6    8 1   
    12    6   13 1   
    13    7   16 1   
    14    7   32 1   
    15    9   33 1   
    16   10   23 1   
    17   10   34 1   
    18   10   35 1   
    19   10   36 1   
    20   11   18 1   
    21   11   19 1   
    22   12   13 1   
    23   15   37 1   
    24   16   22 1   
    25   17   20 1   
    26   17   38 1   
    27   20   25 1   
    28   23   39 1   
    29   24   28 1   
    30   24   40 1   
    31   24   41 1   
    32   26   42 1   
    33   26   43 1   
    34   26   44 1   
    35   27   28 1   
    36   27   29 1   
    37   28   45 1   
    38   28   46 1   
    39   29   47 1   
    40   29   48 1   
    41   29   49 1   
@<TRIPOS>SUBSTRUCTURE
     1 2C1         1 TEMP              0 ****  ****    0 ROOT
