@<TRIPOS>MOLECULE
2C2
   21    20     1     0     0
SMALL
bcc


@<TRIPOS>ATOM
      1 O10        -1.8670   -0.1710   -3.2470 o         1 2C2     -0.525500
      2 C10        -0.7370   -0.7220   -3.1770 c2        1 2C2      0.387000
      3 O11        -0.2330   -1.2560   -4.2000 o         1 2C2     -0.525500
      4 C9          0.0260   -0.7220   -1.8710 c3        1 2C2      0.118000
      5 O8          1.3360   -1.1050   -2.3240 oh        1 2C2     -0.305000
      6 O2          0.0620    0.6280   -1.3070 os        1 2C2     -0.187000
      7 C2          0.1910    0.8160    0.1510 c2        1 2C2      0.116000
      8 C1         -0.3000   -0.1450    1.0180 c2        1 2C2     -0.125000
      9 C7         -0.6970   -1.4850    0.4950 c2        1 2C2     -0.158000
     10 C8         -0.5380   -1.7850   -0.9290 c2        1 2C2     -0.162000
     11 C3          0.6870    2.0280    0.6550 c1        1 2C2     -0.174000
     12 C4          0.6850    2.2640    2.0250 c1        1 2C2     -0.153500
     13 C5          0.1910    1.2960    2.8990 c1        1 2C2     -0.153500
     14 C6         -0.3000    0.0940    2.4010 c1        1 2C2     -0.093000
     15 HO8         1.7280   -1.6080   -1.7050 ho        1 2C2      0.169000
     16 H7         -0.9800   -2.1860    1.1130 ha        1 2C2      0.116000
     17 H8         -0.8610   -2.6340   -1.2880 ha        1 2C2      0.172000
     18 H3          1.0330    2.7060    0.0430 ha        1 2C2      0.146000
     19 H4          1.0210    3.1110    2.3750 ha        1 2C2      0.112000
     20 H5          0.1910    1.4620    3.8610 ha        1 2C2      0.112000
     21 H6         -0.6370   -0.5870    3.0140 ha        1 2C2      0.116000
@<TRIPOS>BOND
     1    1    2 1   
     2    2    3 1   
     3    2    4 1   
     4    4    5 1   
     5    4    6 1   
     6    4   10 1   
     7    5   15 1   
     8    6    7 1   
     9    7    8 1   
    10    7   11 1   
    11    8    9 1   
    12    8   14 1   
    13    9   10 1   
    14    9   16 1   
    15   10   17 1   
    16   11   18 1   
    17   12   13 1   
    18   12   19 1   
    19   13   20 1   
    20   14   21 1   
@<TRIPOS>SUBSTRUCTURE
     1 2C2         1 TEMP              0 ****  ****    0 ROOT
