@<TRIPOS>MOLECULE
2C2
   21    22     1     0     0
SMALL
bcc


@<TRIPOS>ATOM
      1 O10         4.3130    2.0280    5.4710 o         1 2C2     -0.799300
      2 C10         3.3770    1.2780    5.8250 c         1 2C2      0.930600
      3 O11         2.6900    1.3520    6.8770 o         1 2C2     -0.799300
      4 C9          3.0180    0.0420    4.8990 c3        1 2C2      0.221800
      5 O8          2.2910   -0.9360    5.6040 oh        1 2C2     -0.631800
      6 O2          2.0370    0.5150    3.9490 os        1 2C2     -0.325900
      7 C2          2.0070   -0.0550    2.7090 ca        1 2C2      0.183100
      8 C1          3.0860   -0.8010    2.1760 ca        1 2C2     -0.118800
      9 C7          4.2540   -0.9940    3.0120 ce        1 2C2     -0.138200
     10 C8          4.2260   -0.6000    4.2930 c2        1 2C2     -0.108200
     11 C3          0.8570    0.1800    1.9310 ca        1 2C2     -0.179000
     12 C4          0.7900   -0.3300    0.6410 ca        1 2C2     -0.112000
     13 C5          1.8480   -1.0720    0.1120 ca        1 2C2     -0.196000
     14 C6          2.9880   -1.3040    0.8760 ca        1 2C2     -0.096000
     15 HO8         1.8190   -0.4690    6.3150 ho        1 2C2      0.437000
     16 H7          5.1410   -1.4480    2.5510 ha        1 2C2      0.115000
     17 H8          5.0800   -0.6970    4.9760 ha        1 2C2      0.142000
     18 H3          0.0330    0.7670    2.3590 ha        1 2C2      0.139000
     19 H4         -0.1060   -0.1460    0.0310 ha        1 2C2      0.110000
     20 H5          1.7810   -1.4720   -0.9090 ha        1 2C2      0.110000
     21 H6          3.8240   -1.8850    0.4600 ha        1 2C2      0.115000
@<TRIPOS>BOND
     1    1    2 1   
     2    2    3 1   
     3    2    4 1   
     4    4    5 1   
     5    4    6 1   
     6    4   10 1   
     7    5   15 1   
     8    6    7 1   
     9    7    8 ar  
    10    7   11 ar  
    11    8    9 1   
    12    8   14 ar  
    13    9   10 2   
    14    9   16 1   
    15   10   17 1   
    16   11   12 ar  
    17   11   18 1   
    18   12   13 ar  
    19   12   19 1   
    20   13   14 ar  
    21   13   20 1   
    22   14   21 1   
@<TRIPOS>SUBSTRUCTURE
     1 2C2         1 TEMP              0 ****  ****    0 ROOT
