@<TRIPOS>MOLECULE
2C2
   21    22     1     0     0
SMALL
bcc


@<TRIPOS>ATOM
      1 O10         1.1710    0.9540   -0.9210 o         1 2C2     -0.790800
      2 C10         1.5340   -0.0620   -0.2940 c         1 2C2      0.967600
      3 O11         1.7670   -1.2080   -0.7520 o         1 2C2     -0.790800
      4 C9          1.7180    0.0590    1.2890 c3        1 2C2      0.215800
      5 O8          3.0590    0.3940    1.5460 oh        1 2C2     -0.577800
      6 O2          1.0170    1.2350    1.7420 os        1 2C2     -0.303900
      7 C2          0.4570    1.2230    2.9880 ca        1 2C2      0.161100
      8 C1          0.2310    0.0400    3.7300 ca        1 2C2     -0.136800
      9 C7          0.6270   -1.2180    3.1280 ce        1 2C2     -0.146200
     10 C8          1.3160   -1.2110    1.9780 c2        1 2C2     -0.166200
     11 C3          0.0550    2.4700    3.5070 ca        1 2C2     -0.174000
     12 C4         -0.5530    2.5250    4.7550 ca        1 2C2     -0.111000
     13 C5         -0.7660    1.3610    5.4970 ca        1 2C2     -0.196000
     14 C6         -0.3780    0.1270    4.9840 ca        1 2C2     -0.093000
     15 HO8         3.1880    0.3780    2.5030 ho        1 2C2      0.370000
     16 H7          0.3220   -2.1440    3.6340 ha        1 2C2      0.116000
     17 H8          1.6240   -2.1190    1.4370 ha        1 2C2      0.172000
     18 H3          0.2240    3.3760    2.9080 ha        1 2C2      0.146000
     19 H4         -0.8690    3.4970    5.1620 ha        1 2C2      0.113000
     20 H5         -1.2440    1.4200    6.4840 ha        1 2C2      0.111000
     21 H6         -0.5530   -0.7920    5.5620 ha        1 2C2      0.116000
@<TRIPOS>BOND
     1    1    2 1   
     2    2    3 1   
     3    2    4 1   
     4    4    5 1   
     5    4    6 1   
     6    4   10 1   
     7    5   15 1   
     8    6    7 1   
     9    7    8 ar  
    10    7   11 ar  
    11    8    9 1   
    12    8   14 ar  
    13    9   10 2   
    14    9   16 1   
    15   10   17 1   
    16   11   12 ar  
    17   11   18 1   
    18   12   13 ar  
    19   12   19 1   
    20   13   14 ar  
    21   13   20 1   
    22   14   21 1   
@<TRIPOS>SUBSTRUCTURE
     1 2C2         1 TEMP              0 ****  ****    0 ROOT
