@<TRIPOS>MOLECULE
2C3
   61    63     1     0     0
SMALL
bcc


@<TRIPOS>ATOM
      1 N3         56.6390  -38.9950  -34.9430 n2        1 2C3     -0.225000
      2 C4         56.3510  -37.7080  -34.4750 c2        1 2C3      0.233000
      3 C6         54.0850  -38.4130  -34.1090 c3        1 2C3     -0.070000
      4 C8         58.5020  -36.9060  -34.7810 c2        1 2C3      0.225000
      5 C10        60.7790  -36.0810  -35.1080 c2        1 2C3      0.368000
      6 C13        60.2380  -38.4120  -35.6890 c2        1 2C3      0.116000
      7 C17        64.8500  -36.8770  -36.2350 c2        1 2C3      0.076000
      8 C20        67.2030  -36.7020  -37.9330 c2        1 2C3     -0.025000
      9 C21        66.6800  -35.7580  -37.1820 c1        1 2C3      0.068000
     10 C22        65.5930  -35.4950  -36.3210 c3        1 2C3     -0.044000
     11 C28       -98.1640   56.4940   69.4950 c1        1 2C3     -0.042000
     12 O11        61.5360  -35.0910  -35.0060 o         1 2C3     -0.381000
     13 N9         59.4450  -35.8940  -34.7130 n         1 2C3     -0.263000
     14 N7         57.2130  -36.6520  -34.3720 n2        1 2C3     -0.220000
     15 O5         55.0920  -37.3890  -34.0540 os        1 2C3     -0.146000
     16 C2         57.8890  -39.2030  -35.3270 c2        1 2C3      0.083000
     17 C1         58.9030  -38.2000  -35.2790 c2        1 2C3     -0.310000
     18 C12        61.1690  -37.4030  -35.6090 c2        1 2C3     -0.292000
     19 C14        62.5360  -37.6940  -36.0770 c2        1 2C3      0.382000
     20 O15        62.8050  -38.7130  -36.7400 o         1 2C3     -0.341000
     21 N16        63.5790  -36.8050  -35.7290 n         1 2C3     -0.284000
     22 C18        65.4650  -38.0170  -36.7140 c2        1 2C3     -0.123000
     23 CL2        66.0560  -34.9300  -34.7360 cl        1 2C3      0.019000
     24 C19        66.6550  -37.9910  -37.5130 c2        1 2C3     -0.204000
     25 O25        67.8340  -40.1270  -38.1670 o         1 2C3      0.029000
     26 N26       -96.8890   58.0470   68.0870 n3        1 2C3     -0.379000
     27 C27       -97.2130   56.6630   68.3910 c3        1 2C3     -0.006000
     28 N30       -99.6220   57.0330   71.3260 n4        1 2C3     -0.067000
     29 C31       -96.0540   55.7610   68.6690 c2        1 2C3     -0.073000
     30 C32       -96.1160   54.2950   68.6150 c2        1 2C3     -0.151000
     31 C33       -94.8330   53.7860   68.6440 c2        1 2C3     -0.057000
     32 CL3       -94.3900   52.1860   68.5210 cl        1 2C3      0.065000
     33 C35       -93.8740   54.8700   68.9960 cx        1 2C3     -0.178000
     34 C36       -93.4750   56.1360   68.2100 cx        1 2C3     -0.041000
     35 C37       -94.7530   56.1000   68.8960 cu        1 2C3     -0.194000
     36 H1         53.9240  -38.7470  -35.1610 h1        1 2C3      0.109667
     37 H2         54.3630  -39.2700  -33.4520 h1        1 2C3      0.109667
     38 H3         53.1860  -37.8730  -33.7130 h1        1 2C3      0.109667
     39 H4         60.5290  -39.4060  -36.0810 ha        1 2C3      0.174000
     40 H5         67.9550  -36.6040  -38.7300 ha        1 2C3      0.220000
     41 H6         64.8820  -34.7170  -36.7440 h1        1 2C3      0.219000
     42 H7          6.0960   -3.9400   35.9010 ha        1 2C3      0.000000
     43 H8          6.1270   -3.2640   35.9020 ha        1 2C3      0.000000
     44 H9         59.1810  -34.9860  -34.3740 hn        1 2C3      0.284000
     45 H10        58.1300  -40.2190  -35.7000 h4        1 2C3      0.186000
     46 H11        63.3550  -36.0150  -35.1450 hn        1 2C3      0.292000
     47 H12        65.0250  -39.0050  -36.4690 ha        1 2C3      0.210000
     48 H13       -96.0660   58.3440   68.5760 hn        1 2C3      0.174500
     49 H14       -97.7770   56.2120   67.4960 h1        1 2C3      0.184000
     50 H15       -97.8330   58.1220   70.8700 hx        1 2C3      0.187500
     51 H16       -99.2190   58.3640   69.6890 hx        1 2C3      0.187500
     52 H17       -99.1400   56.3310   71.8990 hn        1 2C3      0.253667
     53 H18      -100.3960   56.5620   70.8440 hn        1 2C3      0.253667
     54 H20       -97.0460   53.7390   68.4960 ha        1 2C3      0.169000
     55 H21       -93.2030   54.6260   69.8380 hc        1 2C3      0.180000
     56 H22       -93.4900   56.1920   67.1030 hc        1 2C3      0.138500
     57 H23       -92.6020   56.6660   68.6400 hc        1 2C3      0.138500
     58 C24        67.3170  -39.1390  -37.8170 c1        1 2C3      0.411000
     59 H262      -96.7490   58.1770   67.1050 hn        1 2C3      0.174500
     60 H303      -99.9870   57.7760   71.9240 hn        1 2C3      0.253667
     61 C29       -98.6630   57.5940   70.3080 c3        1 2C3     -0.171000
@<TRIPOS>BOND
     1    1    2 1   
     2    1   16 1   
     3    2   14 1   
     4    2   15 1   
     5    3   15 1   
     6    3   36 1   
     7    3   37 1   
     8    3   38 1   
     9    4   13 1   
    10    4   14 1   
    11    4   17 1   
    12    5   12 1   
    13    5   13 1   
    14    5   18 1   
    15    6   17 1   
    16    6   18 1   
    17    6   39 1   
    18    7   10 1   
    19    7   21 1   
    20    7   22 1   
    21    8    9 1   
    22    8   24 1   
    23    8   40 1   
    24    9   10 1   
    25   10   23 1   
    26   10   41 1   
    27   11   27 1   
    28   11   61 1   
    29   13   44 1   
    30   16   17 1   
    31   16   45 1   
    32   18   19 1   
    33   19   20 1   
    34   19   21 1   
    35   21   46 1   
    36   22   24 1   
    37   22   47 1   
    38   24   58 1   
    39   25   58 1   
    40   26   27 1   
    41   26   48 1   
    42   26   59 1   
    43   27   29 1   
    44   27   49 1   
    45   28   52 1   
    46   28   53 1   
    47   28   60 1   
    48   28   61 1   
    49   29   30 1   
    50   29   35 1   
    51   30   31 1   
    52   30   54 1   
    53   31   32 1   
    54   31   33 1   
    55   33   34 1   
    56   33   35 1   
    57   33   55 1   
    58   34   35 1   
    59   34   56 1   
    60   34   57 1   
    61   42   43 1   
    62   50   61 1   
    63   51   61 1   
@<TRIPOS>SUBSTRUCTURE
     1 2C3         1 TEMP              0 ****  ****    0 ROOT
