@<TRIPOS>MOLECULE
2C3
   59    50     1     0     0
SMALL
bcc


@<TRIPOS>ATOM
      1 N3          5.3220    1.1420   -6.6590 n1        1 2C3     -0.240000
      2 C4          6.0560    0.0310   -6.9730 c1        1 2C3      0.207000
      3 C6          7.8120    0.8230   -8.4460 c3        1 2C3     -0.067000
      4 C8          5.2970   -1.0390   -5.0210 c1        1 2C3      0.207000
      5 C10         4.6000   -2.1890   -2.8400 c1        1 2C3      0.359000
      6 C13         3.7160    0.0900   -3.4630 c1        1 2C3      0.065000
      7 C17         1.4800    0.2100    0.4290 c1        1 2C3      0.056000
      8 C20         0.1480    0.3860    2.8650 c1        1 2C3     -0.100000
      9 C21         1.5190    0.0680    2.8210 c1        1 2C3     -0.130000
     10 C22         2.1710   -0.0170    1.6070 c2        1 2C3     -0.031000
     11 C24        -2.0130    0.8910    1.7120 c1        1 2C3      0.348000
     12 C28        -4.7630    1.7600    3.8950 c3        1 2C3     -0.167000
     13 O11         4.6030   -3.1400   -2.1220 o         1 2C3     -0.355000
     14 N9          5.3630   -2.2080   -4.0620 n3        1 2C3     -0.277000
     15 N7          6.0380   -1.0590   -6.1460 n2        1 2C3     -0.222000
     16 O5          6.7250   -0.1260   -8.2290 o         1 2C3     -0.162000
     17 C2          4.5800    1.1660   -5.5360 c1        1 2C3      0.065000
     18 C1          4.5590    0.0760   -4.7040 c1        1 2C3     -0.259500
     19 C12         3.7700   -1.0480   -2.5280 c1        1 2C3     -0.259500
     20 C14         3.1110   -0.9290   -1.1330 c1        1 2C3      0.367000
     21 O15         3.2880   -1.7750   -0.3170 o         1 2C3     -0.358000
     22 N16         2.1940    0.1540   -0.8630 n2        1 2C3     -0.325000
     23 C18         0.1320    0.5240    0.4670 c1        1 2C3     -0.087000
     24 CL2         3.8730   -0.4490    1.8420 cl        1 2C3      0.009000
     25 C19        -0.5360    0.6110    1.7050 c1        1 2C3     -0.114000
     26 O25        -2.5890    1.0710    0.6860 o         1 2C3     -0.356000
     27 N26        -2.7170    0.9240    2.9290 n2        1 2C3     -0.370000
     28 C27        -4.1540    0.7630    2.9340 c3        1 2C3      0.058000
     29 C29        -6.0190    2.3460    3.2850 c3        1 2C3     -0.080000
     30 N30        -6.8810    2.8340    4.3300 n3        1 2C3     -0.347000
     31 C31        -4.4970   -0.6060    3.3590 c2        1 2C3     -0.091000
     32 C32        -5.0210   -1.4890    2.4500 c2        1 2C3     -0.109000
     33 C33        -5.3980   -2.7780    2.8640 c1        1 2C3     -0.061000
     34 CL3        -6.1250   -3.8660    1.7390 cl        1 2C3     -0.013000
     35 C35        -5.2380   -3.1600    4.2010 c1        1 2C3     -0.121000
     36 C36        -4.7110   -2.2720    5.1120 c1        1 2C3     -0.121000
     37 C37        -4.3360   -0.9910    4.7050 c1        1 2C3     -0.126000
     38 H1          7.4580    1.7200   -8.4630 h1        1 2C3      0.099667
     39 H2          8.4540    0.7450   -7.7330 h1        1 2C3      0.099667
     40 H3          8.2730    0.6180   -9.3490 h1        1 2C3      0.099667
     41 H4          3.1330    0.9030   -3.2500 ha        1 2C3      0.177000
     42 H5         -0.3110    0.4460    3.7210 ha        1 2C3      0.145000
     43 H6          2.0230   -0.0980    3.6730 ha        1 2C3      0.153000
     44 H7         -4.9800    1.3180    4.7180 hc        1 2C3      0.094500
     45 H8         -4.1220    2.4770    4.0690 hc        1 2C3      0.094500
     46 H9          5.8670   -2.9000   -4.2510 hn        1 2C3      0.272000
     47 H10         4.0750    1.9330   -5.3210 ha        1 2C3      0.177000
     48 H11         2.1010    0.8160   -1.4530 hn        1 2C3      0.265000
     49 H12        -0.3230    0.6730   -0.3100 ha        1 2C3      0.166000
     50 H13        -2.2780    1.1590    3.7090 hn        1 2C3      0.223000
     51 H14        -4.5190    0.9240    2.0000 h1        1 2C3      0.139000
     52 H15        -6.5120    1.6150    2.7460 h1        1 2C3      0.071000
     53 H16        -5.7630    3.1380    2.6480 h1        1 2C3      0.071000
     54 H17        -7.1960    3.6830    4.1010 hn        1 2C3      0.145000
     55 H18        -7.6080    2.2500    4.4360 hn        1 2C3      0.145000
     56 H20        -5.0960   -1.2260    1.4630 ha        1 2C3      0.156000
     57 H21        -5.4970   -4.0490    4.4860 ha        1 2C3      0.143000
     58 H22        -4.5960   -2.5470    6.0740 ha        1 2C3      0.143000
     59 H23        -3.9410   -0.3290    5.3890 ha        1 2C3      0.131000
@<TRIPOS>BOND
     1    1    2 1   
     2    2   15 1   
     3    3   16 1   
     4    3   38 1   
     5    3   39 1   
     6    3   40 1   
     7    4   14 1   
     8    4   15 1   
     9    5   13 1   
    10    5   14 1   
    11    6   19 1   
    12    6   41 1   
    13    7   10 1   
    14    7   23 1   
    15    8   25 1   
    16    8   42 1   
    17    9   10 1   
    18    9   43 1   
    19   10   24 1   
    20   11   25 1   
    21   11   26 1   
    22   12   28 1   
    23   12   29 1   
    24   12   44 1   
    25   12   45 1   
    26   14   46 1   
    27   17   18 1   
    28   17   47 1   
    29   20   21 1   
    30   20   22 1   
    31   22   48 1   
    32   23   49 1   
    33   27   28 1   
    34   27   50 1   
    35   28   31 1   
    36   28   51 1   
    37   29   30 1   
    38   29   52 1   
    39   29   53 1   
    40   30   54 1   
    41   30   55 1   
    42   31   32 1   
    43   31   37 1   
    44   32   33 1   
    45   32   56 1   
    46   33   34 1   
    47   35   36 1   
    48   35   57 1   
    49   36   58 1   
    50   37   59 1   
@<TRIPOS>SUBSTRUCTURE
     1 2C3         1 TEMP              0 ****  ****    0 ROOT
