@<TRIPOS>MOLECULE
2C3
   59    62     1     0     0
SMALL
bcc


@<TRIPOS>ATOM
      1 N3          7.7610   -2.7870   -0.3230 nb        1 2C3     -0.766000
      2 C4          8.5440   -1.6920    0.0360 ca        1 2C3      0.905300
      3 C6         10.4760   -3.1010   -0.1500 c3        1 2C3      0.122700
      4 C8          6.7610   -0.2320    0.2500 ca        1 2C3      0.616200
      5 C10         4.8520    1.2880    0.4740 c         1 2C3      0.720700
      6 C13         4.4650   -1.0480   -0.1810 cc        1 2C3      0.079800
      7 C17         0.5050    1.7170    0.6100 ca        1 2C3      0.072600
      8 C20        -2.2540    2.3410    0.6620 ca        1 2C3     -0.126000
      9 C21        -1.3090    3.3450    0.8450 ca        1 2C3     -0.109000
     10 C22         0.0540    3.0490    0.8120 ca        1 2C3     -0.017600
     11 C28        -5.0800   -1.2010   -2.3100 c3        1 2C3     -0.090400
     12 O11         4.5150    2.4560    0.7470 o         1 2C3     -0.628500
     13 N9          6.2360    1.0180    0.5270 n         1 2C3     -0.510400
     14 N7          8.1240   -0.4270    0.3270 nb        1 2C3     -0.748000
     15 O5          9.9090   -1.8160    0.1320 os        1 2C3     -0.404100
     16 C2          6.4520   -2.5610   -0.3870 ca        1 2C3      0.534200
     17 C1          5.8640   -1.2990   -0.1120 ca        1 2C3     -0.429400
     18 C12         3.9550    0.1880    0.1020 cd        1 2C3     -0.279400
     19 C14         2.4770    0.3610   -0.0140 c         1 2C3      0.696300
     20 O15         1.8190   -0.4890   -0.6510 o         1 2C3     -0.606100
     21 N16         1.8790    1.4320    0.6300 n         1 2C3     -0.456100
     22 C18        -0.4700    0.7090    0.4400 ca        1 2C3     -0.093000
     23 CL2         1.1620    4.3220    1.0310 cl        1 2C3     -0.079400
     24 C19        -1.8270    1.0270    0.4570 ca        1 2C3     -0.117600
     25 O25        -2.7020   -1.1610    0.9030 o         1 2C3     -0.599100
     26 N26        -3.8350    0.1340   -0.6180 n         1 2C3     -0.565900
     27 C27        -4.9050   -0.8130   -0.8300 c3        1 2C3      0.146000
     28 N30        -4.0320   -2.4320   -4.1840 n3        1 2C3     -0.917800
     29 C31        -6.2310   -0.2890   -0.3160 ca        1 2C3     -0.098300
     30 C32        -6.8690   -0.9510    0.7360 ca        1 2C3     -0.108000
     31 C33        -8.0980   -0.4750    1.2040 ca        1 2C3      0.016400
     32 CL3        -8.8810   -1.2840    2.4790 cl        1 2C3     -0.092400
     33 C35        -8.6900    0.6580    0.6380 ca        1 2C3     -0.122000
     34 C36        -8.0400    1.3160   -0.4060 ca        1 2C3     -0.122000
     35 C37        -6.8170    0.8480   -0.8820 ca        1 2C3     -0.125000
     36 H1         10.0980   -3.8650    0.5690 h1        1 2C3      0.060700
     37 H2         10.2640   -3.4020   -1.2030 h1        1 2C3      0.060700
     38 H3         11.5710   -2.9130    0.0010 h1        1 2C3      0.060700
     39 H4          3.7890   -1.8730   -0.4770 ha        1 2C3      0.176000
     40 H5         -3.3250    2.5880    0.6980 ha        1 2C3      0.143000
     41 H6         -1.6370    4.3830    1.0150 ha        1 2C3      0.152000
     42 H7         -6.0090   -1.8250   -2.3870 hc        1 2C3      0.054700
     43 H8         -5.2360   -0.2860   -2.9390 hc        1 2C3      0.054700
     44 H9          6.8470    1.7720    0.7760 hn        1 2C3      0.358500
     45 H10         5.8170   -3.4220   -0.6720 h4        1 2C3      0.043100
     46 H11         2.4710    2.1530    0.9980 hn        1 2C3      0.357500
     47 H12        -0.1700   -0.3450    0.2940 ha        1 2C3      0.188000
     48 H13        -3.9060    1.0120   -1.0720 hn        1 2C3      0.313500
     49 H14        -4.6400   -1.7540   -0.2520 h1        1 2C3      0.096700
     50 H15        -2.9620   -1.3270   -2.7870 h1        1 2C3      0.034200
     51 H16        -3.6880   -2.8440   -2.1030 h1        1 2C3      0.034200
     52 H17        -3.2340   -2.9640   -4.4680 hn        1 2C3      0.348800
     53 H18        -4.8550   -2.9910   -4.2880 hn        1 2C3      0.348800
     54 H20        -6.4060   -1.8380    1.1960 ha        1 2C3      0.156000
     55 H21        -9.6560    1.0280    1.0110 ha        1 2C3      0.148000
     56 H22        -8.4990    2.2090   -0.8560 ha        1 2C3      0.138000
     57 H23        -6.3160    1.3700   -1.7110 ha        1 2C3      0.133000
     58 C24        -2.8130   -0.0830    0.2850 c         1 2C3      0.678700
     59 C29        -3.8750   -1.9870   -2.8190 c3        1 2C3      0.156800
@<TRIPOS>BOND
     1    1    2 ar  
     2    1   16 ar  
     3    2   14 ar  
     4    2   15 1   
     5    3   15 1   
     6    3   36 1   
     7    3   37 1   
     8    3   38 1   
     9    4   13 1   
    10    4   14 ar  
    11    4   17 ar  
    12    5   12 2   
    13    5   13 1   
    14    5   18 1   
    15    6   17 1   
    16    6   18 2   
    17    6   39 1   
    18    7   10 ar  
    19    7   21 1   
    20    7   22 ar  
    21    8    9 ar  
    22    8   24 ar  
    23    8   40 1   
    24    9   10 ar  
    25    9   41 1   
    26   10   23 1   
    27   11   27 1   
    28   11   42 1   
    29   11   43 1   
    30   11   59 1   
    31   13   44 1   
    32   16   17 ar  
    33   16   45 1   
    34   18   19 1   
    35   19   20 2   
    36   19   21 1   
    37   21   46 1   
    38   22   24 ar  
    39   22   47 1   
    40   24   58 1   
    41   25   58 2   
    42   26   27 1   
    43   26   48 1   
    44   26   58 1   
    45   27   29 1   
    46   27   49 1   
    47   28   52 1   
    48   28   53 1   
    49   28   59 1   
    50   29   30 ar  
    51   29   35 ar  
    52   30   31 ar  
    53   30   54 1   
    54   31   32 1   
    55   31   33 ar  
    56   33   34 ar  
    57   33   55 1   
    58   34   35 ar  
    59   34   56 1   
    60   35   57 1   
    61   50   59 1   
    62   51   59 1   
@<TRIPOS>SUBSTRUCTURE
     1 2C3         1 TEMP              0 ****  ****    0 ROOT
