@<TRIPOS>MOLECULE
2C3
   61    62     1     0     0
SMALL
bcc


@<TRIPOS>ATOM
      1 N3         -0.0280    1.0380    0.1160 n2        1 2C3     -0.223000
      2 C4          1.3820    0.8310    0.0540 c2        1 2C3      0.297000
      3 C6          1.3450    1.6680   -2.2010 c3        1 2C3     -0.073000
      4 C8          1.5530    0.0350    2.2270 c2        1 2C3      0.216000
      5 C10         1.6460   -0.2690    4.6550 c2        1 2C3      0.356000
      6 C13        -0.5650    0.1230    3.6110 c1        1 2C3     -0.130000
      7 C17        -0.5970   -0.7770    8.2700 c2        1 2C3      0.214000
      8 C20        -1.8310   -1.1420   10.9100 c3        1 2C3     -0.240000
      9 C21        -0.5290   -1.7070   10.6550 c1        1 2C3      0.027000
     10 C22         0.0940   -1.6230    9.3360 c3        1 2C3     -0.172000
     11 C28        -6.2800    1.8630   10.7000 c1        1 2C3     -0.142000
     12 O11         2.4040   -0.5900    5.5830 o         1 2C3     -0.333000
     13 N9          2.2680   -0.1760    3.3600 ns        1 2C3     -0.246000
     14 N7          2.1880    0.4020    1.0670 n2        1 2C3     -0.266000
     15 O5          2.0590    1.1130   -1.0750 os        1 2C3     -0.112000
     16 C2         -0.6330    0.6040    1.1800 c2        1 2C3      0.096000
     17 C1          0.0340   -0.1450    2.2970 c3        1 2C3     -0.171000
     18 C12         0.2150    0.0360    4.7230 c2        1 2C3     -0.363000
     19 C14        -0.4250    0.3020    6.0130 c2        1 2C3      0.415000
     20 O15        -1.3170    1.1210    6.2280 o         1 2C3     -0.250000
     21 N16         0.0500   -0.4980    7.1450 ns        1 2C3     -0.223000
     22 C18        -1.9540   -0.3690    8.5460 c2        1 2C3     -0.249000
     23 Cl2         1.7590   -1.1090    9.5610 cl        1 2C3      0.026000
     24 C19        -2.5340   -0.5240    9.7630 c2        1 2C3      0.075000
     25 O25        -4.7510   -0.1960    8.9680 o         1 2C3     -0.532000
     26 N26        -4.2610    0.4160   11.1730 n2        1 2C3     -0.463000
     27 C27        -5.6360    0.7550   11.4110 c3        1 2C3      0.025000
     28 N30        -6.7020    3.4360    8.9130 nz        1 2C3     -0.061000
     29 C31        -5.9240    0.9010   12.8990 c2        1 2C3     -0.096000
     30 C32        -7.2910    0.5790   13.2680 c2        1 2C3      0.057000
     31 C33        -7.6770    0.0990   14.4470 c2        1 2C3     -0.204000
     32 Cl3        -9.3910   -0.3120   14.8640 cl        1 2C3      0.219000
     33 C35        -7.1190   -0.3300   15.7550 c3        1 2C3     -0.353000
     34 C36        -8.3340   -0.8060   16.4470 c1        1 2C3      0.489000
     35 C37        -5.0040    1.3300   13.7750 c2        1 2C3     -0.098000
     36 H1          0.5780    0.9430   -2.5650 h1        1 2C3      0.124667
     37 H2          0.8880    2.6460   -1.9230 h1        1 2C3      0.124667
     38 H3          2.1740    1.7980   -2.9470 h1        1 2C3      0.124667
     39 H4         -0.1820   -1.2540    2.1110 hc        1 2C3      0.214000
     40 H5         -2.4780   -1.9530   11.3730 hc        1 2C3      0.207000
     41 H6          0.1420   -2.6970    8.9600 h1        1 2C3      0.208000
     42 H7         -5.3150    3.5000   12.1780 ha        1 2C3      0.006000
     43 H8         -5.4950    3.9110   11.6660 ha        1 2C3      0.006000
     44 H9          3.2760   -0.1560    3.3420 hn        1 2C3      0.284000
     45 H10        -1.7310    0.7590    1.2750 h4        1 2C3      0.225000
     46 H11         0.9970   -0.8530    7.0460 hn        1 2C3      0.293000
     47 H12        -2.5500    0.0840    7.7260 ha        1 2C3      0.207000
     48 H13        -1.7120   -0.3830   11.7510 hc        1 2C3      0.207000
     49 H14        -6.3270   -0.0850   10.9980 h1        1 2C3      0.146000
     50 H15        -4.7490    2.7620    9.4670 hx        1 2C3      0.209000
     51 H16        -5.7880    1.4890    8.6530 hx        1 2C3      0.209000
     52 H17        -6.4070    3.7320    7.9810 hn        1 2C3      0.247333
     53 H18        -7.6660    3.0920    8.8770 hn        1 2C3      0.247333
     54 H20        -8.0420    0.7560   12.4650 ha        1 2C3      0.189000
     55 H21        -6.6100    0.5070   16.3280 hc        1 2C3      0.228000
     56 H22        -6.3280   -1.1380   15.6590 hc        1 2C3      0.228000
     57 H23        -5.2200    1.4440   14.8470 ha        1 2C3      0.139000
     58 C24        -3.9600   -0.0790    9.9640 c2        1 2C3      0.221000
     59 H262       -3.9830    1.6080   13.4700 ha        1 2C3      0.139000
     60 H303       -6.6730    4.2340    9.5540 hn        1 2C3      0.247333
     61 C29        -5.8000    2.3440    9.4200 c3        1 2C3     -0.190000
@<TRIPOS>BOND
     1    1    2 1   
     2    1   16 1   
     3    2   14 1   
     4    2   15 1   
     5    3   15 1   
     6    3   36 1   
     7    3   37 1   
     8    3   38 1   
     9    4   13 1   
    10    4   14 1   
    11    4   17 1   
    12    5   12 1   
    13    5   13 1   
    14    5   18 1   
    15    6   17 1   
    16    6   18 1   
    17    7   10 1   
    18    7   21 1   
    19    7   22 1   
    20    8    9 1   
    21    8   24 1   
    22    8   40 1   
    23    8   48 1   
    24    9   10 1   
    25   10   23 1   
    26   10   41 1   
    27   11   27 1   
    28   11   61 1   
    29   13   44 1   
    30   16   17 1   
    31   16   45 1   
    32   17   39 1   
    33   18   19 1   
    34   19   20 1   
    35   19   21 1   
    36   21   46 1   
    37   22   24 1   
    38   22   47 1   
    39   24   58 1   
    40   25   58 1   
    41   26   27 1   
    42   26   58 1   
    43   27   29 1   
    44   27   49 1   
    45   28   52 1   
    46   28   53 1   
    47   28   60 1   
    48   28   61 1   
    49   29   30 1   
    50   29   35 1   
    51   30   31 1   
    52   30   54 1   
    53   31   32 1   
    54   31   33 1   
    55   33   34 1   
    56   33   55 1   
    57   33   56 1   
    58   35   57 1   
    59   35   59 1   
    60   42   43 1   
    61   50   61 1   
    62   51   61 1   
@<TRIPOS>SUBSTRUCTURE
     1 2C3         1 TEMP              0 ****  ****    0 ROOT
