@<TRIPOS>MOLECULE
2C3
   59    61     1     0     0
SMALL
bcc


@<TRIPOS>ATOM
      1 N3          0.1630    0.4800   -0.2660 nb        1 2C3     -0.765000
      2 C4          1.5030    0.8030   -0.0640 ca        1 2C3      0.906300
      3 C6          1.6570    1.3260   -2.4000 c3        1 2C3      0.122700
      4 C8          1.4830    0.3310    2.2020 ca        1 2C3      0.617200
      5 C10         1.4320   -0.1700    4.5980 c         1 2C3      0.721700
      6 C13        -0.6090   -0.4600    3.2600 cc        1 2C3      0.082800
      7 C17        -0.9880   -1.0700    8.1040 c2        1 2C3      0.020400
      8 C20        -2.0070   -1.7890   10.4650 c1        1 2C3     -0.138100
      9 C21        -0.8530   -1.4100   10.4080 c1        1 2C3     -0.147100
     10 C22        -0.0120   -0.9480    9.3380 c3        1 2C3      0.183000
     11 C28        -5.4620    1.9330   11.2000 c2        1 2C3     -0.163500
     12 O11         2.1080   -0.2040    5.6450 o         1 2C3     -0.633500
     13 N9          2.1080    0.2470    3.4350 n         1 2C3     -0.509400
     14 N7          2.2050    0.7530    1.1050 nb        1 2C3     -0.748000
     15 O5          2.2800    1.2310   -1.1130 os        1 2C3     -0.403100
     16 C2         -0.5000    0.0770    0.8140 ca        1 2C3      0.535200
     17 C1          0.0920   -0.0260    2.1000 ca        1 2C3     -0.430400
     18 C12         0.0140   -0.5290    4.4730 cd        1 2C3     -0.283400
     19 C14        -0.7860   -1.0160    5.6350 c         1 2C3      0.693300
     20 O15        -1.8220   -1.6800    5.4240 o         1 2C3     -0.599100
     21 N16        -0.3690   -0.6740    6.9110 n         1 2C3     -0.465100
     22 C18        -2.2790   -1.5040    8.1850 c2        1 2C3     -0.213200
     23 CL2         0.5410    0.7070    9.5410 cl        1 2C3     -0.145400
     24 C19        -3.0090   -1.9910    9.4390 c3        1 2C3      0.019600
     25 O25        -5.2600   -1.4460    8.8000 o         1 2C3     -0.595100
     26 N26        -4.4420   -0.3390   10.6400 n         1 2C3     -0.556900
     27 C27        -5.6180    0.4280   10.8660 c3        1 2C3      0.088100
     28 N30        -4.8280    4.3200   10.9600 n3        1 2C3     -0.891800
     29 C31        -6.2220    0.4370   12.3020 ce        1 2C3      0.001700
     30 C32        -6.6580   -0.6450   13.0620 ce        1 2C3     -0.235000
     31 C33        -7.1700   -0.6150   14.3340 cf        1 2C3      0.226400
     32 CL3        -7.6260   -2.1400   14.9770 cl        1 2C3     -0.097400
     33 C35        -7.3970    0.4740   15.2410 cf        1 2C3     -0.245000
     34 C36        -7.1670    1.7760   14.9990 c2        1 2C3     -0.127000
     35 C37        -6.0820    1.8620   12.4540 c1        1 2C3     -0.195800
     36 H1          1.2960    0.3260   -2.7380 h1        1 2C3      0.061367
     37 H2          0.8230    2.0670   -2.3790 h1        1 2C3      0.061367
     38 H3          2.5010    1.6880   -3.0430 h1        1 2C3      0.061367
     39 H4         -1.6730   -0.7490    3.1640 ha        1 2C3      0.176000
     40 H5         -3.2690   -3.0830    9.3150 hc        1 2C3      0.119700
     41 H6          0.9050   -1.5730    9.1790 h1        1 2C3      0.112700
     42 H7         -6.0510    4.9060   13.6410 ha        1 2C3      0.000000
     43 H8         -6.1510    4.2400   13.5580 ha        1 2C3      0.000000
     44 H9          3.0770    0.4870    3.5190 hn        1 2C3      0.359500
     45 H10        -1.5670   -0.1840    0.6680 h4        1 2C3      0.043100
     46 H11         0.5050   -0.1950    7.0070 hn        1 2C3      0.355500
     47 H12        -2.9260   -1.5660    7.2900 ha        1 2C3      0.200000
     48 H13        -3.6700   -0.2060   11.2520 hn        1 2C3      0.327500
     49 H14        -6.3730    0.2100   10.0630 h1        1 2C3      0.109700
     50 H15        -3.7660    2.6940   10.1850 h1        1 2C3      0.077200
     51 H16        -5.3690    3.0380    9.4010 h1        1 2C3      0.077200
     52 H17        -5.7640    4.6360   11.1350 hn        1 2C3      0.355800
     53 H18        -4.3320    4.3320   11.8320 hn        1 2C3      0.355800
     54 H20        -6.5790   -1.6330   12.5620 ha        1 2C3      0.154000
     55 H21        -7.8060    0.1740   16.2260 ha        1 2C3      0.133000
     56 H22        -6.7470    2.1780   14.0180 ha        1 2C3      0.182500
     57 H23        -7.3800    2.5230   15.7790 ha        1 2C3      0.182500
     58 C24        -4.3260   -1.2350    9.5970 c         1 2C3      0.674100
     59 C29        -4.8370    2.9930   10.4000 c3        1 2C3      0.188000
@<TRIPOS>BOND
     1    1    2 ar  
     2    1   16 ar  
     3    2   14 ar  
     4    2   15 1   
     5    3   15 1   
     6    3   36 1   
     7    3   37 1   
     8    3   38 1   
     9    4   13 1   
    10    4   14 ar  
    11    4   17 ar  
    12    5   12 2   
    13    5   13 1   
    14    5   18 1   
    15    6   17 1   
    16    6   18 2   
    17    6   39 1   
    18    7   10 1   
    19    7   21 1   
    20    7   22 2   
    21    8    9 3   
    22    8   24 1   
    23    9   10 1   
    24   10   23 1   
    25   10   41 1   
    26   11   27 1   
    27   11   35 2   
    28   11   59 1   
    29   13   44 1   
    30   16   17 ar  
    31   16   45 1   
    32   18   19 1   
    33   19   20 2   
    34   19   21 1   
    35   21   46 1   
    36   22   24 1   
    37   22   47 1   
    38   24   40 1   
    39   24   58 1   
    40   25   58 2   
    41   26   27 1   
    42   26   48 1   
    43   26   58 1   
    44   27   29 1   
    45   27   49 1   
    46   28   52 1   
    47   28   53 1   
    48   28   59 1   
    49   29   30 1   
    50   29   35 2   
    51   30   31 2   
    52   30   54 1   
    53   31   32 1   
    54   31   33 1   
    55   33   34 2   
    56   33   55 1   
    57   34   56 1   
    58   34   57 1   
    59   42   43 1   
    60   50   59 1   
    61   51   59 1   
@<TRIPOS>SUBSTRUCTURE
     1 2C3         1 TEMP              0 ****  ****    0 ROOT
