@<TRIPOS>MOLECULE
2C4
   40    41     1     0     0
SMALL
bcc


@<TRIPOS>ATOM
      1 N3          0.3150    0.8880   -0.4240 n2        1 2C4     -0.400000
      2 C4          1.2760   -0.1070   -0.2610 c2        1 2C4      0.335000
      3 C6          2.0570    0.3250   -2.5020 c3        1 2C4     -0.079000
      4 C8          0.9940   -0.5320    2.0720 c2        1 2C4      0.192000
      5 C10         1.2640   -0.1400    4.4780 c2        1 2C4      0.350000
      6 C13        -0.9350   -0.6830    3.5430 c2        1 2C4      0.063000
      7 C17        -0.5350   -0.0790    8.4210 c2        1 2C4      0.184000
      8 C20        -1.4640    0.0940   11.1620 c3        1 2C4     -0.175000
      9 C21        -0.0760   -0.1830   10.8430 c1        1 2C4     -0.094000
     10 C22         0.3410   -0.2250    9.5100 c2        1 2C4     -0.217000
     11 O11         2.0950    0.1350    5.3680 o         1 2C4     -0.369000
     12 N9          1.7810   -0.2070    3.1640 n         1 2C4     -0.265000
     13 N7          1.6520   -0.7170    0.8320 n2        1 2C4     -0.208000
     14 O5          1.9390   -0.5640   -1.3900 os        1 2C4     -0.179000
     15 C2         -0.5150    1.7320   -0.5380 c1        1 2C4      0.254000
     16 C1         -0.3750   -0.7620    2.2520 c2        1 2C4     -0.297000
     17 C12        -0.1640   -0.3800    4.6450 c2        1 2C4     -0.275000
     18 C14        -0.8550   -0.3030    5.9570 c2        1 2C4      0.379000
     19 O15        -2.1000   -0.3530    5.9980 o         1 2C4     -0.350000
     20 N16        -0.0850   -0.2030    7.1210 n         1 2C4     -0.304000
     21 C18        -1.9310    0.2340    8.7270 c2        1 2C4     -0.116000
     22 CL2         2.0030   -0.5050    9.2370 cl        1 2C4     -0.008000
     23 C19        -2.3640    0.3250   10.0070 c2        1 2C4     -0.090000
     24 O25        -4.6510    0.9910    9.4700 o         1 2C4     -0.337000
     25 O26        -4.1000    0.6390   11.6050 os        1 2C4     -0.275000
     26 C27        -5.4510    0.9680   11.9340 c3        1 2C4     -0.063000
     27 H1          1.0660    0.4720   -2.9950 h1        1 2C4      0.102333
     28 H2          2.5030    1.3000   -2.1920 h1        1 2C4      0.102333
     29 H3          2.7550   -0.2330   -3.1800 h1        1 2C4      0.102333
     30 H4         -2.0190   -0.8650    3.6680 ha        1 2C4      0.177000
     31 H5         -1.8550   -0.7690   11.7810 hc        1 2C4      0.172500
     32 H6         -1.4930    0.9890   11.8550 hc        1 2C4      0.172500
     33 H7          2.7690   -0.0800    3.0570 hn        1 2C4      0.265000
     34 H8         -1.0140   -1.0270    1.3990 ha        1 2C4      0.163000
     35 H9          0.9170   -0.2470    7.0120 hn        1 2C4      0.284000
     36 H10        -2.6380    0.4140    7.8930 ha        1 2C4      0.197000
     37 H11        -6.1490    0.2520   11.4380 h1        1 2C4      0.092333
     38 H12        -5.6790    2.0120   11.6090 h1        1 2C4      0.092333
     39 H13        -5.4810    0.8680   13.0470 h1        1 2C4      0.092333
     40 C24        -3.7700    0.6770   10.2740 c2        1 2C4      0.328000
@<TRIPOS>BOND
     1    1    2 1   
     2    1   15 1   
     3    2   13 1   
     4    2   14 1   
     5    3   14 1   
     6    3   27 1   
     7    3   28 1   
     8    3   29 1   
     9    4   12 1   
    10    4   13 1   
    11    4   16 1   
    12    5   11 1   
    13    5   12 1   
    14    5   17 1   
    15    6   16 1   
    16    6   17 1   
    17    6   30 1   
    18    7   10 1   
    19    7   20 1   
    20    7   21 1   
    21    8    9 1   
    22    8   23 1   
    23    8   31 1   
    24    8   32 1   
    25    9   10 1   
    26   10   22 1   
    27   12   33 1   
    28   16   34 1   
    29   17   18 1   
    30   18   19 1   
    31   18   20 1   
    32   20   35 1   
    33   21   23 1   
    34   21   36 1   
    35   23   40 1   
    36   24   40 1   
    37   25   26 1   
    38   25   40 1   
    39   26   37 1   
    40   26   38 1   
    41   26   39 1   
@<TRIPOS>SUBSTRUCTURE
     1 2C4         1 TEMP              0 ****  ****    0 ROOT
