@<TRIPOS>MOLECULE
2C4
   41    42     1     0     0
SMALL
bcc


@<TRIPOS>ATOM
      1 N3          1.5190   -1.2160   -0.3860 n2        1 2C4     -0.428000
      2 C4          1.4650    0.1680   -0.2890 c2        1 2C4      0.401000
      3 C6          2.1760    0.3050   -2.5990 c3        1 2C4     -0.084000
      4 C8          0.8110    0.4130    2.0130 c2        1 2C4      0.284000
      5 C10         0.9350    0.6710    4.4420 c2        1 2C4      0.362000
      6 C13        -0.7590   -0.8010    3.4290 c2        1 2C4      0.112000
      7 C17        -0.7080   -0.3170    8.3590 c2        1 2C4     -0.060000
      8 C20        -2.2120   -1.0350   10.6880 c3        1 2C4     -0.203000
      9 C21        -1.1450   -1.8570   10.1800 c1        1 2C4      0.020000
     10 C22        -0.2980   -1.3870    9.1350 c2        1 2C4     -0.083000
     11 O11         1.5320    1.2380    5.3860 o         1 2C4     -0.405000
     12 N9          1.4030    0.9460    3.1390 n         1 2C4     -0.241000
     13 N7          1.2500    0.9020    0.7840 n2        1 2C4     -0.262000
     14 O5          1.6980    0.9350   -1.4020 os        1 2C4     -0.156000
     15 C2          1.5690   -2.4050   -0.4620 c1        1 2C4      0.311000
     16 C1         -0.2800   -0.4890    2.1660 c2        1 2C4     -0.314000
     17 C12        -0.1800   -0.2460    4.5790 c2        1 2C4     -0.374000
     18 C14        -0.7390   -0.6130    5.8590 c2        1 2C4      0.335000
     19 O15        -1.6800   -1.3690    6.0760 o         1 2C4     -0.214000
     20 N16        -0.0760    0.0100    7.0860 n4        1 2C4     -0.059000
     21 C18        -1.7750    0.5410    8.8270 c2        1 2C4     -0.117000
     22 CL2         1.1250   -2.2320    8.8230 cl        1 2C4      0.072000
     23 C19        -2.4450    0.2380    9.9700 c2        1 2C4     -0.059000
     24 O25        -3.8560    2.2130    9.9620 o         1 2C4     -0.316000
     25 O26        -3.8730    0.8720   11.7610 os        1 2C4     -0.270000
     26 C27        -4.8360    1.7600   12.3470 c3        1 2C4     -0.065000
     27 H1          1.4090   -0.3970   -3.0050 h1        1 2C4      0.117000
     28 H2          3.1490   -0.2070   -2.4150 h1        1 2C4      0.117000
     29 H3          2.3110    1.1870   -3.2810 h1        1 2C4      0.117000
     30 H4         -1.6130   -1.4980    3.5360 ha        1 2C4      0.181000
     31 H5         -3.1600   -1.6690   10.6640 hc        1 2C4      0.219500
     32 H6         -2.0540   -0.8520   11.8010 hc        1 2C4      0.219500
     33 H7          2.1550    1.6100    3.0580 hn        1 2C4      0.287000
     34 H8         -0.7630   -0.9120    1.2730 ha        1 2C4      0.179000
     35 H9         -0.0640    1.0360    6.9520 hn        1 2C4      0.276500
     36 H10        -2.0190    1.4660    8.2730 ha        1 2C4      0.180000
     37 H11        -5.7510    1.7970   11.7100 h1        1 2C4      0.105667
     38 H12        -5.0410    1.2920   13.3420 h1        1 2C4      0.105667
     39 H13        -4.3930    2.7790   12.4520 h1        1 2C4      0.105667
     40 C24        -3.4280    1.1970   10.5140 c2        1 2C4      0.324000
     41 H162        0.9130   -0.2940    7.0940 hn        1 2C4      0.276500
@<TRIPOS>BOND
     1    1    2 1   
     2    1   15 1   
     3    2   13 1   
     4    2   14 1   
     5    3   14 1   
     6    3   27 1   
     7    3   28 1   
     8    3   29 1   
     9    4   12 1   
    10    4   13 1   
    11    4   16 1   
    12    5   11 1   
    13    5   12 1   
    14    5   17 1   
    15    6   16 1   
    16    6   17 1   
    17    6   30 1   
    18    7   10 1   
    19    7   20 1   
    20    7   21 1   
    21    8    9 1   
    22    8   23 1   
    23    8   31 1   
    24    8   32 1   
    25    9   10 1   
    26   10   22 1   
    27   12   33 1   
    28   16   34 1   
    29   17   18 1   
    30   18   19 1   
    31   18   20 1   
    32   20   35 1   
    33   20   41 1   
    34   21   23 1   
    35   21   36 1   
    36   23   40 1   
    37   24   40 1   
    38   25   26 1   
    39   25   40 1   
    40   26   37 1   
    41   26   38 1   
    42   26   39 1   
@<TRIPOS>SUBSTRUCTURE
     1 2C4         1 TEMP              0 ****  ****    0 ROOT
