@<TRIPOS>MOLECULE
2C4
   40    32     1     0     0
SMALL
bcc


@<TRIPOS>ATOM
      1 N3          0.3670    0.1690   -6.0530 n1        1 2C4     -0.240000
      2 C4          1.7480    0.0820   -6.0450 c1        1 2C4      0.207000
      3 C6          2.3360    1.1050   -8.0880 c3        1 2C4     -0.064500
      4 C8          1.7570    0.1990   -3.6880 c1        1 2C4      0.207000
      5 C10         1.7910    0.2470   -1.1330 c1        1 2C4      0.360000
      6 C13        -0.3840    0.4450   -2.3920 c1        1 2C4      0.065000
      7 C17        -0.4250    0.6030    2.6260 c1        1 2C4      0.046000
      8 C20        -1.7150    0.8030    5.0720 c1        1 2C4     -0.065000
      9 C21        -1.5240    1.9350    4.2940 c1        1 2C4     -0.140000
     10 C22        -0.8790    1.8350    3.0710 c2        1 2C4     -0.018000
     11 C24        -1.3070   -1.6220    5.5560 c1        1 2C4      0.345000
     12 O11         2.4000    0.2670   -0.0830 o         1 2C4     -0.357000
     13 N9          2.5060    0.1480   -2.3790 n3        1 2C4     -0.277000
     14 N7          2.4320    0.0980   -4.8560 n2        1 2C4     -0.222000
     15 O5          2.6450    0.1220   -7.1260 o         1 2C4     -0.219500
     16 C2         -0.3120    0.2690   -4.8890 c1        1 2C4      0.065000
     17 C1          0.3700    0.2860   -3.6940 c1        1 2C4     -0.259500
     18 C12         0.3300    0.3970   -1.1360 c1        1 2C4     -0.259500
     19 C14        -0.4190    0.5620    0.1690 c1        1 2C4      0.367000
     20 O15        -1.6270    0.6860    0.1650 o         1 2C4     -0.356000
     21 N16         0.2840    0.5100    1.4010 n2        1 2C4     -0.325000
     22 C18        -0.6160   -0.5280    3.4040 c1        1 2C4     -0.081000
     23 CL2        -0.8220    3.4730    2.4760 cl        1 2C4      0.012000
     24 C19        -1.2610   -0.4280    4.6260 c1        1 2C4     -0.106000
     25 O25        -0.3220   -1.9330    6.1960 o         1 2C4     -0.350000
     26 O26        -2.4910   -2.3690    5.6820 o         1 2C4     -0.219500
     27 C27        -2.3500   -3.5360    6.4630 c3        1 2C4     -0.064500
     28 H1          2.3220    1.9880   -7.6610 h1        1 2C4      0.095667
     29 H2          3.0150    1.0940   -8.7970 h1        1 2C4      0.095667
     30 H3          1.4540    0.9160   -8.4770 h1        1 2C4      0.095667
     31 H4         -1.3560    0.5450   -2.3990 ha        1 2C4      0.177000
     32 H5         -2.1690    0.8740    5.9330 ha        1 2C4      0.161000
     33 H6         -1.8430    2.8020    4.6080 ha        1 2C4      0.155000
     34 H7          3.4140    0.0560   -2.3770 hn        1 2C4      0.271000
     35 H8         -1.2860    0.3300   -4.8960 ha        1 2C4      0.177000
     36 H9          1.1860    0.3870    1.4060 hn        1 2C4      0.264000
     37 H10        -0.2960   -1.3960    3.0900 ha        1 2C4      0.169000
     38 H11        -2.0290   -3.2940    7.3590 h1        1 2C4      0.095667
     39 H12        -3.2190   -3.9870    6.5380 h1        1 2C4      0.095667
     40 H13        -1.7050   -4.1390    6.0360 h1        1 2C4      0.095667
@<TRIPOS>BOND
     1    1    2 1   
     2    2   14 1   
     3    3   15 1   
     4    3   28 1   
     5    3   29 1   
     6    3   30 1   
     7    4   13 1   
     8    4   14 1   
     9    5   12 1   
    10    5   13 1   
    11    6   18 1   
    12    6   31 1   
    13    7   10 1   
    14    7   22 1   
    15    8   24 1   
    16    8   32 1   
    17    9   10 1   
    18    9   33 1   
    19   10   23 1   
    20   11   24 1   
    21   11   25 1   
    22   13   34 1   
    23   16   17 1   
    24   16   35 1   
    25   19   20 1   
    26   19   21 1   
    27   21   36 1   
    28   22   37 1   
    29   26   27 1   
    30   27   38 1   
    31   27   39 1   
    32   27   40 1   
@<TRIPOS>SUBSTRUCTURE
     1 2C4         1 TEMP              0 ****  ****    0 ROOT
