@<TRIPOS>MOLECULE
2C4
   40    42     1     0     0
SMALL
bcc


@<TRIPOS>ATOM
      1 N3          5.7540   -1.8290    0.1760 nb        1 2C4     -0.766000
      2 C4          6.2080   -0.5260   -0.0150 ca        1 2C4      0.905300
      3 C6          8.4490   -1.3820   -0.0110 c3        1 2C4      0.122700
      4 C8          4.0970    0.4210   -0.0350 ca        1 2C4      0.616200
      5 C10         1.8480    1.3950   -0.0570 c         1 2C4      0.720700
      6 C13         2.1120   -1.0280    0.2520 cc        1 2C4      0.079800
      7 C17        -2.4640    0.6810   -0.1010 ca        1 2C4      0.061600
      8 C20        -5.2910    0.5580   -0.0340 ca        1 2C4     -0.089000
      9 C21        -4.6470    1.7890    0.0070 ca        1 2C4     -0.122000
     10 C22        -3.2520    1.8600   -0.0220 ca        1 2C4     -0.003600
     11 O11         1.2080    2.4590   -0.1620 o         1 2C4     -0.629500
     12 N9          3.2510    1.5130   -0.1360 n         1 2C4     -0.510400
     13 N7          5.4600    0.6090   -0.1270 nb        1 2C4     -0.748000
     14 O5          7.5540   -0.2680   -0.1150 os        1 2C4     -0.404100
     15 C2          4.4340   -1.9710    0.2590 ca        1 2C4      0.534200
     16 C1          3.5250   -0.8850    0.1620 ca        1 2C4     -0.429400
     17 C12         1.2850    0.0550    0.1440 cd        1 2C4     -0.279400
     18 C14        -0.1820   -0.1930    0.2690 c         1 2C4      0.694300
     19 O15        -0.5710   -1.2870    0.7300 o         1 2C4     -0.604100
     20 N16        -1.0650    0.7770   -0.1770 n         1 2C4     -0.457100
     21 C18        -3.1350   -0.5610   -0.1470 ca        1 2C4     -0.085000
     22 CL2        -2.5230    3.3960    0.0340 cl        1 2C4     -0.076400
     23 C19        -4.5310   -0.6130   -0.1130 ca        1 2C4     -0.111600
     24 O25        -4.6540   -3.0320   -0.3780 o         1 2C4     -0.534000
     25 O26        -6.5350   -1.9020    0.0260 os        1 2C4     -0.440900
     26 C27        -7.2110   -3.1590   -0.0190 c3        1 2C4      0.127700
     27 H1          8.3530   -1.8730    0.9860 h1        1 2C4      0.060700
     28 H2          8.2660   -2.1120   -0.8350 h1        1 2C4      0.060700
     29 H3          9.4500   -0.8910   -0.1240 h1        1 2C4      0.060700
     30 H4          1.6870   -2.0370    0.4180 ha        1 2C4      0.178000
     31 H5         -6.3910    0.5010   -0.0040 ha        1 2C4      0.161000
     32 H6         -5.2390    2.7160    0.0670 ha        1 2C4      0.154000
     33 H7          3.6340    2.4290   -0.2680 hn        1 2C4      0.358500
     34 H8          4.0580   -3.0010    0.4130 h4        1 2C4      0.043100
     35 H9         -0.7000    1.6830   -0.4020 hn        1 2C4      0.357500
     36 H10        -2.5660   -1.5080   -0.2020 ha        1 2C4      0.192000
     37 H11        -7.0790   -3.6280   -1.0240 h1        1 2C4      0.051700
     38 H12        -6.8120   -3.8360    0.7740 h1        1 2C4      0.051700
     39 H13        -8.2790   -2.8890    0.1710 h1        1 2C4      0.051700
     40 C24        -5.1770   -1.9340   -0.1720 c         1 2C4      0.644700
@<TRIPOS>BOND
     1    1    2 ar  
     2    1   15 ar  
     3    2   13 ar  
     4    2   14 1   
     5    3   14 1   
     6    3   27 1   
     7    3   28 1   
     8    3   29 1   
     9    4   12 1   
    10    4   13 ar  
    11    4   16 ar  
    12    5   11 2   
    13    5   12 1   
    14    5   17 1   
    15    6   16 1   
    16    6   17 2   
    17    6   30 1   
    18    7   10 ar  
    19    7   20 1   
    20    7   21 ar  
    21    8    9 ar  
    22    8   23 ar  
    23    8   31 1   
    24    9   10 ar  
    25    9   32 1   
    26   10   22 1   
    27   12   33 1   
    28   15   16 ar  
    29   15   34 1   
    30   17   18 1   
    31   18   19 2   
    32   18   20 1   
    33   20   35 1   
    34   21   23 ar  
    35   21   36 1   
    36   23   40 1   
    37   24   40 2   
    38   25   26 1   
    39   25   40 1   
    40   26   37 1   
    41   26   38 1   
    42   26   39 1   
@<TRIPOS>SUBSTRUCTURE
     1 2C4         1 TEMP              0 ****  ****    0 ROOT
