@<TRIPOS>MOLECULE
2C4
   40    41     1     0     0
SMALL
bcc


@<TRIPOS>ATOM
      1 N3          0.3380    0.9370   -0.4120 n2        1 2C4     -0.400000
      2 C4          1.2860   -0.0730   -0.2580 c2        1 2C4      0.335000
      3 C6          2.0770    0.3750   -2.4930 c3        1 2C4     -0.079000
      4 C8          0.9930   -0.5190    2.0700 c2        1 2C4      0.192000
      5 C10         1.2640   -0.1560    4.4800 c2        1 2C4      0.350000
      6 C13        -0.9400   -0.6610    3.5350 c2        1 2C4      0.063000
      7 C17        -0.5430   -0.1120    8.4200 c2        1 2C4      0.184000
      8 C20        -1.4770    0.0460   11.1600 c3        1 2C4     -0.175000
      9 C21        -0.0920   -0.2470   10.8420 c1        1 2C4     -0.094000
     10 C22         0.3280   -0.2820    9.5090 c2        1 2C4     -0.217000
     11 O11         2.0960    0.0980    5.3750 o         1 2C4     -0.369000
     12 N9          1.7830   -0.2160    3.1660 ns        1 2C4     -0.265000
     13 N7          1.6520   -0.6990    0.8290 n2        1 2C4     -0.208000
     14 O5          1.9460   -0.5250   -1.3910 os        1 2C4     -0.179000
     15 C2         -0.4810    1.7920   -0.5180 c1        1 2C4      0.254000
     16 C1         -0.3780   -0.7330    2.2440 c2        1 2C4     -0.297000
     17 C12        -0.1670   -0.3800    4.6420 c2        1 2C4     -0.275000
     18 C14        -0.8600   -0.3080    5.9530 c2        1 2C4      0.379000
     19 O15        -2.1060   -0.3440    5.9900 o         1 2C4     -0.350000
     20 N16        -0.0920   -0.2290    7.1190 ns        1 2C4     -0.304000
     21 C18        -1.9360    0.2170    8.7250 c2        1 2C4     -0.116000
     22 Cl2         1.9870   -0.5810    9.2370 cl        1 2C4     -0.008000
     23 C19        -2.3700    0.3010   10.0050 c2        1 2C4     -0.090000
     24 O25        -4.6470    1.0040    9.4700 o         1 2C4     -0.337000
     25 O26        -4.1060    0.6250   11.6020 os        1 2C4     -0.275000
     26 C27        -5.4530    0.9700   11.9310 c3        1 2C4     -0.063000
     27 H1          1.0890    0.5390   -2.9860 h1        1 2C4      0.102333
     28 H2          2.7690   -0.1850   -3.1760 h1        1 2C4      0.102333
     29 H3          2.5340    1.3400   -2.1710 h1        1 2C4      0.102333
     30 H4         -2.0270   -0.8310    3.6560 ha        1 2C4      0.177000
     31 H5         -1.8820   -0.8180   11.7700 hc        1 2C4      0.172500
     32 H6         -1.4950    0.9340   11.8620 hc        1 2C4      0.172500
     33 H7          2.7720   -0.1000    3.0620 hn        1 2C4      0.265000
     34 H8         -1.0180   -0.9810    1.3870 ha        1 2C4      0.163000
     35 H9          0.9100   -0.2850    7.0130 hn        1 2C4      0.284000
     36 H10        -2.6380    0.4150    7.8920 ha        1 2C4      0.197000
     37 H11        -6.1600    0.2680   11.4280 h1        1 2C4      0.092333
     38 H12        -5.6650    2.0190   11.6140 h1        1 2C4      0.092333
     39 H13        -5.4860    0.8610   13.0430 h1        1 2C4      0.092333
     40 C24        -3.7720    0.6700   10.2730 c2        1 2C4      0.328000
@<TRIPOS>BOND
     1    1    2 1   
     2    1   15 1   
     3    2   13 1   
     4    2   14 1   
     5    3   14 1   
     6    3   27 1   
     7    3   28 1   
     8    3   29 1   
     9    4   12 1   
    10    4   13 1   
    11    4   16 1   
    12    5   11 1   
    13    5   12 1   
    14    5   17 1   
    15    6   16 1   
    16    6   17 1   
    17    6   30 1   
    18    7   10 1   
    19    7   20 1   
    20    7   21 1   
    21    8    9 1   
    22    8   23 1   
    23    8   31 1   
    24    8   32 1   
    25    9   10 1   
    26   10   22 1   
    27   12   33 1   
    28   16   34 1   
    29   17   18 1   
    30   18   19 1   
    31   18   20 1   
    32   20   35 1   
    33   21   23 1   
    34   21   36 1   
    35   23   40 1   
    36   24   40 1   
    37   25   26 1   
    38   25   40 1   
    39   26   37 1   
    40   26   38 1   
    41   26   39 1   
@<TRIPOS>SUBSTRUCTURE
     1 2C4         1 TEMP              0 ****  ****    0 ROOT
