@<TRIPOS>MOLECULE
2C5
   50    53     1     0     0
SMALL
bcc


@<TRIPOS>ATOM
      1 O2          0.2630   -0.4390    0.1800 os        1 2C5     -0.423600
      2 C38         1.6680   -0.1460    0.2070 c3        1 2C5      0.269700
      3 C40         2.0430    0.1410    1.6360 ca        1 2C5     -0.068300
      4 C43         3.3950    0.3450    1.9400 ca        1 2C5     -0.119500
      5 C44         3.7900    0.5930    3.2520 ca        1 2C5     -0.093000
      6 C45         2.8310    0.6370    4.2740 ca        1 2C5     -0.014000
      7 C46         1.4780    0.4340    3.9710 ca        1 2C5     -0.093000
      8 C47         1.0880    0.1880    2.6560 ca        1 2C5     -0.119500
      9 C52        -0.5300   -5.8330    0.4840 ca        1 2C5     -0.112000
     10 C53        -1.4600   -5.8210   -0.5600 ca        1 2C5      0.014400
     11 CL1        -1.8670   -7.2720   -1.3430 cl        1 2C5     -0.082400
     12 C65         3.2310    0.8870    5.6140 cg        1 2C5      0.230800
     13 C7         -2.0620   -4.6270   -0.9660 ca        1 2C5     -0.112000
     14 N1          3.5580    1.0920    6.7120 n1        1 2C5     -0.357800
     15 C2         -0.2000   -4.6360    1.1180 ca        1 2C5     -0.123000
     16 C3         -1.7240   -3.4270   -0.3260 cp        1 2C5     -0.048000
     17 C4         -0.7890   -3.4380    0.7180 ca        1 2C5     -0.112000
     18 C1         -0.1570   -0.9950   -1.0680 c3        1 2C5      0.072100
     19 N3          3.0830    2.2850   -2.2620 nc        1 2C5     -0.667000
     20 C10         3.0730    1.0460   -1.6370 cc        1 2C5      0.304200
     21 C12         2.0170    0.9820   -0.6970 cd        1 2C5     -0.270900
     22 N4          1.3750    2.2260   -0.7550 na        1 2C5     -0.166900
     23 C5          2.0510    2.9770   -1.7230 cd        1 2C5      0.394400
     24 C15         0.2110    2.6300   -0.0340 c3        1 2C5      0.013600
     25 N2         -2.2900    0.1550   -1.3790 nb        1 2C5     -0.653000
     26 C11        -1.6710   -1.0020   -1.0500 ca        1 2C5      0.452600
     27 C13        -2.3820   -2.1850   -0.7260 cp        1 2C5     -0.136300
     28 C14        -3.7830   -2.1510   -0.7850 ca        1 2C5     -0.045000
     29 C17        -4.4360   -0.9630   -1.1320 ca        1 2C5     -0.114300
     30 C6         -3.6390    0.1770   -1.4160 ca        1 2C5      0.523300
     31 C9         -5.8510   -0.9100   -1.1920 cg        1 2C5      0.230800
     32 N5         -7.0130   -0.8730   -1.2390 n1        1 2C5     -0.329800
     33 CL2        -4.4060    1.6460   -1.8270 cl        1 2C5     -0.118000
     34 HC38        2.2380   -1.0580   -0.1430 h1        1 2C5      0.067700
     35 HC43        4.1460    0.3200    1.1350 ha        1 2C5      0.152500
     36 HC44        4.8540    0.7550    3.4860 ha        1 2C5      0.148000
     37 HC46        0.7220    0.4700    4.7720 ha        1 2C5      0.148000
     38 HC47        0.0240    0.0260    2.4200 ha        1 2C5      0.152500
     39 HC52       -0.0630   -6.7770    0.8030 ha        1 2C5      0.153000
     40 HC7        -2.7960   -4.6250   -1.7880 ha        1 2C5      0.152000
     41 HC2         0.5290   -4.6380    1.9430 ha        1 2C5      0.145000
     42 HC4        -0.5200   -2.4910    1.2180 ha        1 2C5      0.157000
     43 HC11        0.2350   -0.3750   -1.9200 h1        1 2C5      0.066700
     44 HC12        0.2340   -2.0440   -1.1540 h1        1 2C5      0.066700
     45 HC10        3.8020    0.2740   -1.8800 h4        1 2C5      0.040100
     46 HC5         1.7600    3.9990   -1.9860 h5        1 2C5      0.065100
     47 H151       -0.6990    2.5430   -0.6890 h1        1 2C5      0.065033
     48 H152        0.0770    1.9620    0.8610 h1        1 2C5      0.065033
     49 H153        0.3270    3.6950    0.3010 h1        1 2C5      0.065033
     50 HC14       -4.3670   -3.0560   -0.5510 ha        1 2C5      0.164000
@<TRIPOS>BOND
     1    1    2 1   
     2    1   18 1   
     3    2    3 1   
     4    2   21 1   
     5    2   34 1   
     6    3    4 ar  
     7    3    8 ar  
     8    4    5 ar  
     9    4   35 1   
    10    5    6 ar  
    11    5   36 1   
    12    6    7 ar  
    13    6   12 1   
    14    7    8 ar  
    15    7   37 1   
    16    8   38 1   
    17    9   10 ar  
    18    9   15 ar  
    19    9   39 1   
    20   10   11 1   
    21   10   13 ar  
    22   12   14 3   
    23   13   16 ar  
    24   13   40 1   
    25   15   17 ar  
    26   15   41 1   
    27   16   17 ar  
    28   16   27 1   
    29   17   42 1   
    30   18   26 1   
    31   18   43 1   
    32   18   44 1   
    33   19   20 1   
    34   19   23 2   
    35   20   21 2   
    36   20   45 1   
    37   21   22 1   
    38   22   23 1   
    39   22   24 1   
    40   23   46 1   
    41   24   47 1   
    42   24   48 1   
    43   24   49 1   
    44   25   26 ar  
    45   25   30 ar  
    46   26   27 ar  
    47   27   28 ar  
    48   28   29 ar  
    49   28   50 1   
    50   29   30 ar  
    51   29   31 1   
    52   30   33 1   
    53   31   32 3   
@<TRIPOS>SUBSTRUCTURE
     1 2C5         1 TEMP              0 ****  ****    0 ROOT
