@<TRIPOS>MOLECULE
2C5
   50    53     1     0     0
SMALL
bcc


@<TRIPOS>ATOM
      1 O2         -0.8200    0.3460    0.2650 os        1 2C5     -0.423600
      2 C38        -2.0750    0.3520    0.9610 c3        1 2C5      0.269700
      3 C40        -3.1550    0.0750   -0.0500 ca        1 2C5     -0.068300
      4 C43        -4.4690   -0.0870    0.4080 ca        1 2C5     -0.119500
      5 C44        -5.4960   -0.3650   -0.4880 ca        1 2C5     -0.093000
      6 C45        -5.2150   -0.4850   -1.8570 ca        1 2C5     -0.014000
      7 C46        -3.9010   -0.3220   -2.3180 ca        1 2C5     -0.093000
      8 C47        -2.8770   -0.0430   -1.4150 ca        1 2C5     -0.119500
      9 C52         1.4710   -4.6010    0.5840 ca        1 2C5     -0.112000
     10 C53         2.7220   -4.0720    0.9190 ca        1 2C5      0.014400
     11 CL1         3.9070   -5.0780    1.6030 cl        1 2C5     -0.082400
     12 C65        -6.2610   -0.7710   -2.7760 cg        1 2C5      0.230800
     13 C7          3.0100   -2.7230    0.6970 ca        1 2C5     -0.112000
     14 N1         -7.1170   -1.0050   -3.5270 n1        1 2C5     -0.357800
     15 C2          0.5050   -3.7650    0.0260 ca        1 2C5     -0.123000
     16 C3          2.0310   -1.8880    0.1390 cp        1 2C5     -0.048000
     17 C4          0.7760   -2.4170   -0.1950 ca        1 2C5     -0.112000
     18 C1          0.3000    0.3250    1.1530 c3        1 2C5      0.072100
     19 N3         -2.8610    3.1610    3.3070 nc        1 2C5     -0.667000
     20 C10        -2.7390    1.8090    3.0190 cc        1 2C5      0.304200
     21 C12        -2.3040    1.6320    1.6840 cd        1 2C5     -0.270900
     22 N4         -2.1660    2.9200    1.1500 na        1 2C5     -0.166900
     23 C5         -2.5060    3.8120    2.1730 cd        1 2C5      0.394400
     24 C15        -1.6940    3.2680   -0.1510 c3        1 2C5      0.013600
     25 N2          1.8050    1.8800    0.0180 nb        1 2C5     -0.653000
     26 C11         1.5270    0.5870    0.3060 ca        1 2C5      0.452600
     27 C13         2.3460   -0.4860   -0.1290 cp        1 2C5     -0.136300
     28 C14         3.5040   -0.1800   -0.8580 ca        1 2C5     -0.045000
     29 C17         3.8070    1.1530   -1.1560 ca        1 2C5     -0.114300
     30 C6          2.9140    2.1570   -0.6980 ca        1 2C5      0.523300
     31 C9          4.9710    1.4790   -1.8960 cg        1 2C5      0.230800
     32 N5          5.9280    1.7400   -2.5030 n1        1 2C5     -0.329800
     33 CL2         3.2480    3.7930   -1.0590 cl        1 2C5     -0.118000
     34 HC38       -2.0710   -0.4810    1.7280 h1        1 2C5      0.067700
     35 HC43       -4.6890    0.0180    1.4820 ha        1 2C5      0.152500
     36 HC44       -6.5280   -0.4880   -0.1240 ha        1 2C5      0.148000
     37 HC46       -3.6780   -0.4140   -3.3920 ha        1 2C5      0.148000
     38 HC47       -1.8440    0.0820   -1.7780 ha        1 2C5      0.152500
     39 HC52        1.2520   -5.6650    0.7560 ha        1 2C5      0.153000
     40 HC7         3.9970   -2.3130    0.9620 ha        1 2C5      0.152000
     41 HC2        -0.4810   -4.1760   -0.2430 ha        1 2C5      0.145000
     42 HC4         0.0060   -1.7570   -0.6290 ha        1 2C5      0.157000
     43 HC11        0.1800    1.1110    1.9470 h1        1 2C5      0.066700
     44 HC12        0.3700   -0.6890    1.6320 h1        1 2C5      0.066700
     45 HC10       -2.9620    1.0420    3.7590 h4        1 2C5      0.040100
     46 HC5        -2.4820    4.8980    2.0400 h5        1 2C5      0.065100
     47 H151       -0.6120    3.5700   -0.1020 h1        1 2C5      0.065033
     48 H152       -1.7900    2.3780   -0.8330 h1        1 2C5      0.065033
     49 H153       -2.3000    4.1210   -0.5550 h1        1 2C5      0.065033
     50 HC14        4.1690   -0.9890   -1.2020 ha        1 2C5      0.164000
@<TRIPOS>BOND
     1    1    2 1   
     2    1   18 1   
     3    2    3 1   
     4    2   21 1   
     5    2   34 1   
     6    3    4 ar  
     7    3    8 ar  
     8    4    5 ar  
     9    4   35 1   
    10    5    6 ar  
    11    5   36 1   
    12    6    7 ar  
    13    6   12 1   
    14    7    8 ar  
    15    7   37 1   
    16    8   38 1   
    17    9   10 ar  
    18    9   15 ar  
    19    9   39 1   
    20   10   11 1   
    21   10   13 ar  
    22   12   14 3   
    23   13   16 ar  
    24   13   40 1   
    25   15   17 ar  
    26   15   41 1   
    27   16   17 ar  
    28   16   27 1   
    29   17   42 1   
    30   18   26 1   
    31   18   43 1   
    32   18   44 1   
    33   19   20 1   
    34   19   23 2   
    35   20   21 2   
    36   20   45 1   
    37   21   22 1   
    38   22   23 1   
    39   22   24 1   
    40   23   46 1   
    41   24   47 1   
    42   24   48 1   
    43   24   49 1   
    44   25   26 ar  
    45   25   30 ar  
    46   26   27 ar  
    47   27   28 ar  
    48   28   29 ar  
    49   28   50 1   
    50   29   30 ar  
    51   29   31 1   
    52   30   33 1   
    53   31   32 3   
@<TRIPOS>SUBSTRUCTURE
     1 2C5         1 TEMP              0 ****  ****    0 ROOT
