@<TRIPOS>MOLECULE
2C5
   50    53     1     0     0
SMALL
bcc


@<TRIPOS>ATOM
      1 O2          0.1180   -0.4030    0.0200 os        1 2C5     -0.421600
      2 C38         1.5400   -0.2030    0.0430 c3        1 2C5      0.270700
      3 C40         1.9370   -0.0230    1.4840 ca        1 2C5     -0.064300
      4 C43         3.2520   -0.3200    1.8620 ca        1 2C5     -0.118000
      5 C44         3.6540   -0.1630    3.1850 ca        1 2C5     -0.093000
      6 C45         2.7360    0.2870    4.1450 ca        1 2C5     -0.013000
      7 C46         1.4190    0.5830    3.7700 ca        1 2C5     -0.093000
      8 C47         1.0250    0.4300    2.4420 ca        1 2C5     -0.118000
      9 C52        -0.5910   -5.8400   -0.3450 ca        1 2C5     -0.112000
     10 C53        -1.5630   -5.7070   -1.3420 ca        1 2C5      0.014400
     11 Cl1        -1.9810   -7.0480   -2.2980 cl        1 2C5     -0.083400
     12 C65         3.1420    0.4440    5.4980 cg        1 2C5      0.230800
     13 C7         -2.1990   -4.4820   -1.5600 ca        1 2C5     -0.112000
     14 N1          3.4750    0.5710    6.6060 n1        1 2C5     -0.357800
     15 C2         -0.2530   -4.7330    0.4310 ca        1 2C5     -0.123000
     16 C3         -1.8510   -3.3720   -0.7760 cp        1 2C5     -0.048000
     17 C4         -0.8740   -3.5040    0.2200 ca        1 2C5     -0.112000
     18 C1         -0.3530   -0.8320   -1.2590 c3        1 2C5      0.071100
     19 N3          3.1200    2.2560   -2.2920 nc        1 2C5     -0.667000
     20 C10         3.0250    0.9910   -1.7300 cc        1 2C5      0.308200
     21 C12         1.9620    0.9490   -0.7970 cd        1 2C5     -0.271900
     22 N4          1.3990    2.2330   -0.7980 na        1 2C5     -0.168900
     23 C5          2.1330    2.9860   -1.7220 cd        1 2C5      0.395400
     24 C15         0.2870    2.6860   -0.0290 c3        1 2C5      0.011600
     25 N2         -2.5140    0.3070   -1.3150 nb        1 2C5     -0.654000
     26 C11        -1.8640   -0.8710   -1.1720 ca        1 2C5      0.452600
     27 C13        -2.5440   -2.1010   -0.9780 cp        1 2C5     -0.135300
     28 C14        -3.9460   -2.0860   -0.9700 ca        1 2C5     -0.044000
     29 C17        -4.6310   -0.8760   -1.1260 ca        1 2C5     -0.114300
     30 C6         -3.8630    0.3070   -1.2890 ca        1 2C5      0.524300
     31 C9         -6.0480   -0.8440   -1.1160 cg        1 2C5      0.230800
     32 N5         -7.2110   -0.8230   -1.1070 n1        1 2C5     -0.329800
     33 Cl2        -4.6680    1.8030   -1.4640 cl        1 2C5     -0.117000
     34 HC38        2.0430   -1.1290   -0.3690 h1        1 2C5      0.064700
     35 HC43        3.9750   -0.6700    1.1090 ha        1 2C5      0.149500
     36 HC44        4.6900   -0.3920    3.4780 ha        1 2C5      0.148500
     37 HC46        0.6960    0.9350    4.5220 ha        1 2C5      0.148500
     38 HC47       -0.0110    0.6580    2.1420 ha        1 2C5      0.149500
     39 HC52       -0.0980   -6.8100   -0.1750 ha        1 2C5      0.153000
     40 HC7        -2.9650   -4.3840   -2.3440 ha        1 2C5      0.152000
     41 HC2         0.5090   -4.8320    1.2200 ha        1 2C5      0.145000
     42 HC4        -0.5990   -2.6280    0.8310 ha        1 2C5      0.158000
     43 HC11        0.0480   -1.8570   -1.4800 h1        1 2C5      0.066200
     44 HC12       -0.0120   -0.1140   -2.0540 h1        1 2C5      0.066200
     45 HC10        3.7040    0.1860   -2.0100 h4        1 2C5      0.040100
     46 HC5         1.9090    4.0360   -1.9370 h5        1 2C5      0.064100
     47 H151        0.5980    2.8400    1.0410 h1        1 2C5      0.064700
     48 H152       -0.5330    1.9150   -0.0580 h1        1 2C5      0.064700
     49 H153       -0.0920    3.6540   -0.4490 h1        1 2C5      0.064700
     50 HC14       -4.5060   -3.0260   -0.8340 ha        1 2C5      0.165000
@<TRIPOS>BOND
     1    1    2 1   
     2    1   18 1   
     3    2    3 1   
     4    2   21 1   
     5    2   34 1   
     6    3    4 ar  
     7    3    8 ar  
     8    4    5 ar  
     9    4   35 1   
    10    5    6 ar  
    11    5   36 1   
    12    6    7 ar  
    13    6   12 1   
    14    7    8 ar  
    15    7   37 1   
    16    8   38 1   
    17    9   10 ar  
    18    9   15 ar  
    19    9   39 1   
    20   10   11 1   
    21   10   13 ar  
    22   12   14 3   
    23   13   16 ar  
    24   13   40 1   
    25   15   17 ar  
    26   15   41 1   
    27   16   17 ar  
    28   16   27 1   
    29   17   42 1   
    30   18   26 1   
    31   18   43 1   
    32   18   44 1   
    33   19   20 1   
    34   19   23 2   
    35   20   21 2   
    36   20   45 1   
    37   21   22 1   
    38   22   23 1   
    39   22   24 1   
    40   23   46 1   
    41   24   47 1   
    42   24   48 1   
    43   24   49 1   
    44   25   26 ar  
    45   25   30 ar  
    46   26   27 ar  
    47   27   28 ar  
    48   28   29 ar  
    49   28   50 1   
    50   29   30 ar  
    51   29   31 1   
    52   30   33 1   
    53   31   32 3   
@<TRIPOS>SUBSTRUCTURE
     1 2C5         1 TEMP              0 ****  ****    0 ROOT
