@<TRIPOS>MOLECULE
2C5
   50    53     1     0     0
SMALL
bcc


@<TRIPOS>ATOM
      1 O2          0.2800   -0.4450    0.2100 os        1 2C5     -0.423600
      2 C38         1.6840   -0.1540    0.2430 c3        1 2C5      0.269700
      3 C40         2.0510    0.1490    1.6710 ca        1 2C5     -0.068300
      4 C43         3.4020    0.3520    1.9820 ca        1 2C5     -0.119500
      5 C44         3.7890    0.6150    3.2920 ca        1 2C5     -0.093000
      6 C45         2.8230    0.6750    4.3070 ca        1 2C5     -0.014000
      7 C46         1.4710    0.4740    3.9980 ca        1 2C5     -0.093000
      8 C47         1.0900    0.2120    2.6840 ca        1 2C5     -0.119500
      9 C52        -0.5200   -5.8360    0.5620 ca        1 2C5     -0.112000
     10 C53        -1.4450   -5.8330   -0.4870 ca        1 2C5      0.014400
     11 CL1        -1.8490   -7.2920   -1.2590 cl        1 2C5     -0.082400
     12 C65         3.2150    0.9410    5.6470 cg        1 2C5      0.230800
     13 C7         -2.0440   -4.6430   -0.9080 ca        1 2C5     -0.112000
     14 N1          3.5360    1.1580    6.7440 n1        1 2C5     -0.357800
     15 C2         -0.1930   -4.6340    1.1870 ca        1 2C5     -0.123000
     16 C3         -1.7080   -3.4380   -0.2770 cp        1 2C5     -0.048000
     17 C4         -0.7780   -3.4390    0.7720 ca        1 2C5     -0.112000
     18 C1         -0.1340   -1.0130   -1.0340 c3        1 2C5      0.072100
     19 N3          3.1210    2.2430   -2.2460 nc        1 2C5     -0.667000
     20 C10         3.1040    1.0120   -1.6070 cc        1 2C5      0.304200
     21 C12         2.0420    0.9620   -0.6730 cd        1 2C5     -0.270900
     22 N4          1.4030    2.2070   -0.7490 na        1 2C5     -0.166900
     23 C5          2.0880    2.9440   -1.7220 cd        1 2C5      0.394400
     24 C15         0.2360    2.6220   -0.0410 c3        1 2C5      0.013600
     25 N2         -2.2650    0.1360   -1.3680 nb        1 2C5     -0.653000
     26 C11        -1.6480   -1.0190   -1.0250 ca        1 2C5      0.452600
     27 C13        -2.3620   -2.1990   -0.6930 cp        1 2C5     -0.136300
     28 C14        -3.7630   -2.1630   -0.7600 ca        1 2C5     -0.045000
     29 C17        -4.4130   -0.9780   -1.1220 ca        1 2C5     -0.114300
     30 C6         -3.6130    0.1580   -1.4130 ca        1 2C5      0.523300
     31 C9         -5.8280   -0.9250   -1.1900 cg        1 2C5      0.230800
     32 N5         -6.9890   -0.8870   -1.2440 n1        1 2C5     -0.329800
     33 CL2        -4.3770    1.6240   -1.8420 cl        1 2C5     -0.118000
     34 HC38        2.2550   -1.0720   -0.0930 h1        1 2C5      0.067700
     35 HC43        4.1580    0.3140    1.1820 ha        1 2C5      0.152500
     36 HC44        4.8510    0.7760    3.5320 ha        1 2C5      0.148000
     37 HC46        0.7110    0.5220    4.7930 ha        1 2C5      0.148000
     38 HC47        0.0260    0.0510    2.4420 ha        1 2C5      0.152500
     39 HC52       -0.0560   -6.7780    0.8930 ha        1 2C5      0.153000
     40 HC7        -2.7720   -4.6480   -1.7340 ha        1 2C5      0.152000
     41 HC2         0.5320   -4.6290    2.0150 ha        1 2C5      0.145000
     42 HC4        -0.5110   -2.4880    1.2640 ha        1 2C5      0.157000
     43 HC11        0.2630   -0.4030   -1.8910 h1        1 2C5      0.066700
     44 HC12        0.2560   -2.0640   -1.1070 h1        1 2C5      0.066700
     45 HC10        3.8330    0.2360   -1.8360 h4        1 2C5      0.040100
     46 HC5         1.8000    3.9630   -1.9990 h5        1 2C5      0.065100
     47 H151       -0.6700    2.5270   -0.7000 h1        1 2C5      0.065033
     48 H152        0.0950    1.9660    0.8620 h1        1 2C5      0.065033
     49 H153        0.3510    3.6900    0.2810 h1        1 2C5      0.065033
     50 HC14       -4.3490   -3.0660   -0.5200 ha        1 2C5      0.164000
@<TRIPOS>BOND
     1    1    2 1   
     2    1   18 1   
     3    2    3 1   
     4    2   21 1   
     5    2   34 1   
     6    3    4 ar  
     7    3    8 ar  
     8    4    5 ar  
     9    4   35 1   
    10    5    6 ar  
    11    5   36 1   
    12    6    7 ar  
    13    6   12 1   
    14    7    8 ar  
    15    7   37 1   
    16    8   38 1   
    17    9   10 ar  
    18    9   15 ar  
    19    9   39 1   
    20   10   11 1   
    21   10   13 ar  
    22   12   14 3   
    23   13   16 ar  
    24   13   40 1   
    25   15   17 ar  
    26   15   41 1   
    27   16   17 ar  
    28   16   27 1   
    29   17   42 1   
    30   18   26 1   
    31   18   43 1   
    32   18   44 1   
    33   19   20 1   
    34   19   23 2   
    35   20   21 2   
    36   20   45 1   
    37   21   22 1   
    38   22   23 1   
    39   22   24 1   
    40   23   46 1   
    41   24   47 1   
    42   24   48 1   
    43   24   49 1   
    44   25   26 ar  
    45   25   30 ar  
    46   26   27 ar  
    47   27   28 ar  
    48   28   29 ar  
    49   28   50 1   
    50   29   30 ar  
    51   29   31 1   
    52   30   33 1   
    53   31   32 3   
@<TRIPOS>SUBSTRUCTURE
     1 2C5         1 TEMP              0 ****  ****    0 ROOT
