@<TRIPOS>MOLECULE
2C6
   59    63     1     0     0
SMALL
bcc


@<TRIPOS>ATOM
      1 N1          7.6150   -1.4520    0.1640 n         1 2C6     -0.484400
      2 C9          8.8240   -0.7330    0.1540 c         1 2C6      0.713100
      3 O1          9.8920   -1.3650    0.2380 o         1 2C6     -0.619500
      4 C10         8.7060    0.7320    0.0420 ca        1 2C6     -0.191600
      5 C11         9.8540    1.5330    0.0210 ca        1 2C6     -0.058000
      6 C15         9.7320    2.9110   -0.0860 ca        1 2C6     -0.155000
      7 C16         8.4630    3.4980   -0.1730 ca        1 2C6     -0.092000
      8 C17         7.3130    2.7240   -0.1540 ca        1 2C6     -0.125000
      9 C7          7.4120    1.3150   -0.0450 ca        1 2C6      0.191400
     10 N2          6.2550    0.5280   -0.0250 nc        1 2C6     -0.642100
     11 C8          6.3930   -0.7820    0.0730 cd        1 2C6      0.505800
     12 S1          5.0020   -1.8210    0.1020 ss        1 2C6     -0.191300
     13 C18        -5.5170    0.2140   -0.3900 cc        1 2C6      0.454700
     14 N4         -5.8050    1.2480   -1.2050 nd        1 2C6     -0.343000
     15 N5         -7.1100    1.4590   -1.1970 nd        1 2C6     -0.347000
     16 C19        -7.7020    0.5640   -0.3740 cc        1 2C6      0.516900
     17 C20        -9.0810    0.3420    0.0010 ca        1 2C6     -0.140500
     18 O2         -6.7090   -0.2700    0.1760 os        1 2C6     -0.393800
     19 C21        -9.4150   -0.6850    0.8970 ca        1 2C6     -0.088000
     20 C22       -10.7470   -0.8890    1.2510 ca        1 2C6     -0.138000
     21 C23       -11.7470   -0.0760    0.7170 ca        1 2C6     -0.106000
     22 C24       -11.4160    0.9460   -0.1730 ca        1 2C6     -0.138000
     23 C25       -10.0870    1.1600   -0.5350 ca        1 2C6     -0.088000
     24 C1         -2.2840   -1.7430   -0.8560 c3        1 2C6     -0.092900
     25 C2         -1.3280   -0.7440   -0.1790 c3        1 2C6      0.097700
     26 C3         -2.0190   -0.1590    1.0670 c3        1 2C6     -0.092900
     27 C4         -3.3160    0.5210    0.6840 c3        1 2C6     -0.074400
     28 C5         -4.2540   -0.4630   -0.0070 c3        1 2C6     -0.083000
     29 C6         -3.5810   -1.0610   -1.2370 c3        1 2C6     -0.074400
     30 C12         3.6050   -0.7370   -0.0620 c3        1 2C6     -0.003300
     31 C13         2.4000   -1.6360    0.0360 c3        1 2C6     -0.150400
     32 C14         1.1420   -0.8840   -0.3770 c         1 2C6      0.665100
     33 O3          1.1870    0.0810   -1.1640 o         1 2C6     -0.599100
     34 N3         -0.0520   -1.3440    0.1380 n         1 2C6     -0.573900
     35 H1          7.6380   -2.4450    0.2300 hn        1 2C6      0.343500
     36 H2         10.8430    1.0500    0.0910 ha        1 2C6      0.158000
     37 H3         10.6300    3.5450   -0.1030 ha        1 2C6      0.140000
     38 H4          8.3780    4.5920   -0.2590 ha        1 2C6      0.138000
     39 H5          6.3210    3.1970   -0.2260 ha        1 2C6      0.154000
     40 H6         -8.6230   -1.3250    1.3150 ha        1 2C6      0.152500
     41 H7        -11.0080   -1.6950    1.9530 ha        1 2C6      0.139500
     42 H8        -12.7980   -0.2400    1.0000 ha        1 2C6      0.137000
     43 H9        -12.2040    1.5870   -0.5940 ha        1 2C6      0.139500
     44 H10        -9.8290    1.9670   -1.2380 ha        1 2C6      0.152500
     45 H11        -1.8060   -2.1600   -1.7800 hc        1 2C6      0.048450
     46 H12        -2.4950   -2.6000   -0.1640 hc        1 2C6      0.048450
     47 H13        -1.1360    0.1060   -0.9050 h1        1 2C6      0.098700
     48 H14        -2.2220   -0.9740    1.8090 hc        1 2C6      0.048450
     49 H15        -1.3450    0.5910    1.5580 hc        1 2C6      0.048450
     50 H16        -3.8100    0.9280    1.6040 hc        1 2C6      0.062200
     51 H17        -3.1060    1.3840   -0.0020 hc        1 2C6      0.062200
     52 H18        -4.5110   -1.2930    0.7130 hc        1 2C6      0.074700
     53 H19        -3.3800   -0.2510   -1.9870 hc        1 2C6      0.062200
     54 H20        -4.2680   -1.8060   -1.7160 hc        1 2C6      0.062200
     55 H21         3.5990    0.0380    0.7420 h1        1 2C6      0.105200
     56 H22         3.6250   -0.1990   -1.0440 h1        1 2C6      0.105200
     57 H23         2.5070   -2.5120   -0.6610 hc        1 2C6      0.075200
     58 H24         2.3060   -2.0360    1.0810 hc        1 2C6      0.075200
     59 H25        -0.0530   -2.1070    0.7690 hn        1 2C6      0.307500
@<TRIPOS>BOND
     1    1    2 1   
     2    1   11 1   
     3    1   35 1   
     4    2    3 2   
     5    2    4 1   
     6    4    5 ar  
     7    4    9 ar  
     8    5    6 ar  
     9    5   36 1   
    10    6    7 ar  
    11    6   37 1   
    12    7    8 ar  
    13    7   38 1   
    14    8    9 ar  
    15    8   39 1   
    16    9   10 1   
    17   10   11 2   
    18   11   12 1   
    19   12   30 1   
    20   13   14 2   
    21   13   18 1   
    22   13   28 1   
    23   14   15 1   
    24   15   16 2   
    25   16   17 1   
    26   16   18 1   
    27   17   19 ar  
    28   17   23 ar  
    29   19   20 ar  
    30   19   40 1   
    31   20   21 ar  
    32   20   41 1   
    33   21   22 ar  
    34   21   42 1   
    35   22   23 ar  
    36   22   43 1   
    37   23   44 1   
    38   24   25 1   
    39   24   29 1   
    40   24   45 1   
    41   24   46 1   
    42   25   26 1   
    43   25   34 1   
    44   25   47 1   
    45   26   27 1   
    46   26   48 1   
    47   26   49 1   
    48   27   28 1   
    49   27   50 1   
    50   27   51 1   
    51   28   29 1   
    52   28   52 1   
    53   29   53 1   
    54   29   54 1   
    55   30   31 1   
    56   30   55 1   
    57   30   56 1   
    58   31   32 1   
    59   31   57 1   
    60   31   58 1   
    61   32   33 2   
    62   32   34 1   
    63   34   59 1   
@<TRIPOS>SUBSTRUCTURE
     1 2C6         1 TEMP              0 ****  ****    0 ROOT
