@<TRIPOS>MOLECULE
2C6
   59    53     1     0     0
SMALL
bcc


@<TRIPOS>ATOM
      1 N1          6.0880    2.9520   -2.9980 n3        1 2C6     -0.324000
      2 C9          6.8630    4.1010   -3.2040 c1        1 2C6      0.350000
      3 O1          8.0640    4.0040   -3.3630 o         1 2C6     -0.345000
      4 C10         6.2090    5.4590   -3.2110 c1        1 2C6     -0.171000
      5 C11         6.9860    6.6150   -3.3990 c1        1 2C6     -0.112167
      6 C15         6.3840    7.8650   -3.3870 c1        1 2C6     -0.112167
      7 C16         5.0140    7.9750   -3.1890 c1        1 2C6     -0.112167
      8 C17         4.2460    6.8350   -3.0020 c1        1 2C6     -0.112167
      9 C7          4.8550    5.5680   -3.0140 c1        1 2C6      0.053000
     10 N2          4.0510    4.3700   -2.8000 n2        1 2C6     -0.215000
     11 C8          4.6790    3.0680   -2.7930 c1        1 2C6     -0.013000
     12 S1          3.6940    1.6110   -2.5660 s         1 2C6      0.217000
     13 C18        -3.1290   -2.9810    1.5170 c1        1 2C6     -0.006500
     14 N4         -2.9170   -3.3610    0.2460 n2        1 2C6     -0.086000
     15 N5         -3.9870   -4.0820   -0.1590 n2        1 2C6     -0.086000
     16 C19        -4.8570   -4.1440    0.8630 c1        1 2C6     -0.006500
     17 C20        -6.2020   -4.8360    0.8450 c1        1 2C6     -0.034000
     18 O2         -4.3290   -3.4640    1.9020 os        1 2C6     -0.133000
     19 C21        -7.2440   -4.0740    0.3390 c2        1 2C6     -0.082000
     20 C22        -8.5280   -4.5940    0.3040 c1        1 2C6     -0.138000
     21 C23        -8.7710   -5.8750    0.7750 c1        1 2C6     -0.112167
     22 C24        -7.7290   -6.6360    1.2810 c1        1 2C6     -0.112167
     23 C25        -6.4450   -6.1160    1.3160 c1        1 2C6     -0.093000
     24 C1          0.2360   -1.8870    3.0140 c3        1 2C6     -0.173000
     25 C2          0.2340   -0.4660    2.4780 c3        1 2C6      0.025000
     26 C3         -1.1490    0.1610    2.5000 c3        1 2C6     -0.173000
     27 C4         -2.1900   -0.7100    1.8320 c3        1 2C6     -0.155000
     28 C5         -2.1880   -2.1320    2.3680 c2        1 2C6     -0.028000
     29 C6         -0.8050   -2.7590    2.3460 c3        1 2C6     -0.155000
     30 C12         3.3990    1.3600   -0.8360 c3        1 2C6     -0.262000
     31 C13         2.3710    0.2640   -0.6530 c3        1 2C6     -0.180000
     32 C14         1.8570    0.2880    0.7720 c1        1 2C6      0.309000
     33 O3          2.4260    0.9560    1.6120 o         1 2C6     -0.366000
     34 N3          0.7150   -0.4790    1.1270 n2        1 2C6     -0.382000
     35 H1          6.4830    2.1300   -2.9940 hn        1 2C6      0.257000
     36 H2          7.9490    6.5380   -3.5390 ha        1 2C6      0.144167
     37 H3          6.9240    8.6680   -3.5190 ha        1 2C6      0.144167
     38 H4          4.5910    8.8550   -3.1800 ha        1 2C6      0.144167
     39 H5          3.2830    6.9130   -2.8620 ha        1 2C6      0.144167
     40 H6         -7.0730   -3.1720    0.0070 ha        1 2C6      0.158000
     41 H7         -9.2620   -4.0580   -0.0530 ha        1 2C6      0.141000
     42 H8         -9.6760   -6.2400    0.7500 ha        1 2C6      0.144167
     43 H9         -7.9000   -7.5380    1.6130 ha        1 2C6      0.144167
     44 H10        -5.7110   -6.6530    1.6730 ha        1 2C6      0.147000
     45 H11         1.1190   -2.2790    2.8660 hc        1 2C6      0.095000
     46 H12         0.0580   -1.8620    3.9760 hc        1 2C6      0.095000
     47 H13         0.8370    0.0790    3.0220 h1        1 2C6      0.133000
     48 H14        -1.4130    0.3120    3.4300 hc        1 2C6      0.095000
     49 H15        -1.1140    1.0220    2.0370 hc        1 2C6      0.095000
     50 H16        -3.0730   -0.3180    1.9800 hc        1 2C6      0.095500
     51 H17        -2.0120   -0.7350    0.8700 hc        1 2C6      0.095500
     52 H18        -2.5160   -2.1220    3.2880 ha        1 2C6      0.117000
     53 H19        -0.5410   -2.9090    1.4160 hc        1 2C6      0.095500
     54 H20        -0.8400   -3.6200    2.8090 hc        1 2C6      0.095500
     55 H21         3.0650    2.1900   -0.4390 h1        1 2C6      0.143500
     56 H22         4.2340    1.1010   -0.3970 h1        1 2C6      0.143500
     57 H23         2.7840   -0.6030   -0.8360 hc        1 2C6      0.116000
     58 H24         1.6270    0.4090   -1.2710 hc        1 2C6      0.116000
     59 H25         0.2760   -0.9640    0.4920 hn        1 2C6      0.227000
@<TRIPOS>BOND
     1    1    2 1   
     2    1   11 1   
     3    1   35 1   
     4    2    3 1   
     5    4    9 1   
     6    5    6 1   
     7    5   36 1   
     8    6   37 1   
     9    7    8 1   
    10    7   38 1   
    11    8   39 1   
    12    9   10 1   
    13   10   11 1   
    14   12   30 1   
    15   13   14 1   
    16   13   18 1   
    17   14   15 1   
    18   15   16 1   
    19   16   18 1   
    20   17   19 1   
    21   17   23 1   
    22   19   20 1   
    23   19   40 1   
    24   20   41 1   
    25   21   22 1   
    26   21   42 1   
    27   22   43 1   
    28   23   44 1   
    29   24   25 1   
    30   24   29 1   
    31   24   45 1   
    32   24   46 1   
    33   25   26 1   
    34   25   34 1   
    35   25   47 1   
    36   26   27 1   
    37   26   48 1   
    38   26   49 1   
    39   27   28 1   
    40   27   50 1   
    41   27   51 1   
    42   28   29 1   
    43   28   52 1   
    44   29   53 1   
    45   29   54 1   
    46   30   31 1   
    47   30   55 1   
    48   30   56 1   
    49   31   32 1   
    50   31   57 1   
    51   31   58 1   
    52   32   33 1   
    53   34   59 1   
@<TRIPOS>SUBSTRUCTURE
     1 2C6         1 TEMP              0 ****  ****    0 ROOT
