@<TRIPOS>MOLECULE
2C6
   60    64     1     0     0
SMALL
bcc


@<TRIPOS>ATOM
      1 N1         -0.4700   -1.8920    1.1320 n         1 2C6     -0.484400
      2 C9          0.9130   -2.0280    0.8740 c         1 2C6      0.714100
      3 O1          1.2720   -2.8710    0.0390 o         1 2C6     -0.590500
      4 C10         1.8030   -1.1370    1.6400 ca        1 2C6     -0.179600
      5 C11         3.1880   -1.1990    1.4520 ca        1 2C6     -0.055000
      6 C15         4.0210   -0.3560    2.1770 ca        1 2C6     -0.137000
      7 C16         3.4750    0.5520    3.0920 ca        1 2C6     -0.087000
      8 C17         2.1040    0.6300    3.2940 ca        1 2C6     -0.121000
      9 C7          1.2370   -0.2190    2.5670 ca        1 2C6      0.175400
     10 N2         -0.1500   -0.1480    2.7640 nc        1 2C6     -0.644100
     11 C8         -0.9160   -0.9590    2.0620 cd        1 2C6      0.506800
     12 S1         -2.6510   -0.9130    2.2690 ss        1 2C6     -0.177300
     13 C18        -7.9440   -0.6730   10.0770 cc        1 2C6      0.405700
     14 N4         -7.1750   -0.3610   11.1380 nd        1 2C6     -0.325000
     15 N5         -7.6830   -0.9170   12.2210 nd        1 2C6     -0.349000
     16 C19        -8.8010   -1.6070   11.8870 cc        1 2C6      0.556900
     17 C20        -9.7350   -2.3900   12.6650 ca        1 2C6     -0.165500
     18 O2         -9.0140   -1.4780   10.5000 os        1 2C6     -0.386800
     19 C21       -10.8320   -3.0080   12.0450 ca        1 2C6     -0.080000
     20 C22       -11.7240   -3.7590   12.8060 ca        1 2C6     -0.135500
     21 C23       -11.5280   -3.8970   14.1820 ca        1 2C6     -0.089000
     22 C24       -10.4380   -3.2820   14.7980 ca        1 2C6     -0.135500
     23 C25        -9.5380   -2.5280   14.0470 ca        1 2C6     -0.080000
     24 C1         -7.8170    1.5760    7.0070 c3        1 2C6     -0.098900
     25 C2         -6.4570    1.0860    6.4960 c3        1 2C6      0.119500
     26 C3         -6.3770   -0.4390    6.6150 c3        1 2C6     -0.098900
     27 C4         -6.5370   -0.8390    8.0680 c3        1 2C6     -0.080400
     28 C5         -7.8570   -0.3310    8.6380 c3        1 2C6     -0.074000
     29 C6         -7.9780    1.1790    8.4610 c3        1 2C6     -0.080400
     30 C12        -2.9090    0.3540    3.4790 c3        1 2C6     -0.032300
     31 C13        -4.4020    0.4060    3.6920 c3        1 2C6     -0.142400
     32 C14        -4.7490    1.4690    4.6940 c         1 2C6      0.548100
     33 O3         -4.0210    2.2860    5.2300 o         1 2C6     -0.390100
     34 N3         -6.2170    1.5500    5.0770 n4        1 2C6     -0.688800
     35 H1         -1.1160   -2.4680    0.6390 hn        1 2C6      0.346500
     36 H2          3.5990   -1.9210    0.7260 ha        1 2C6      0.167000
     37 H3          5.1110   -0.4010    2.0320 ha        1 2C6      0.152000
     38 H4          4.1450    1.2160    3.6610 ha        1 2C6      0.147000
     39 H5          1.6900    1.3490    4.0170 ha        1 2C6      0.150000
     40 H6        -10.9840   -2.8970   10.9610 ha        1 2C6      0.151500
     41 H7        -12.5840   -4.2440   12.3210 ha        1 2C6      0.147500
     42 H8        -12.2360   -4.4910   14.7810 ha        1 2C6      0.147000
     43 H9        -10.2840   -3.3920   15.8830 ha        1 2C6      0.147500
     44 H10        -8.6780   -2.0450   14.5390 ha        1 2C6      0.151500
     45 H11        -8.6440    1.1250    6.3970 hc        1 2C6      0.065450
     46 H12        -7.8900    2.6930    6.9260 hc        1 2C6      0.065450
     47 H13        -5.6370    1.5570    7.1220 hx        1 2C6      0.125700
     48 H14        -5.3860   -0.8100    6.2420 hc        1 2C6      0.065450
     49 H15        -7.1850   -0.9180    6.0000 hc        1 2C6      0.065450
     50 H16        -5.6820   -0.4340    8.6730 hc        1 2C6      0.085950
     51 H17        -6.5020   -1.9580    8.1430 hc        1 2C6      0.085950
     52 H18        -8.7120   -0.8370    8.1030 hc        1 2C6      0.083700
     53 H19        -8.9860    1.5190    8.8200 hc        1 2C6      0.085950
     54 H20        -7.2050    1.6980    9.0880 hc        1 2C6      0.085950
     55 H21        -2.5150    1.3390    3.1210 h1        1 2C6      0.113200
     56 H22        -2.3710    0.1160    4.4310 h1        1 2C6      0.113200
     57 H23        -4.9230    0.6400    2.7190 hc        1 2C6      0.111200
     58 H24        -4.7770   -0.5920    4.0580 hc        1 2C6      0.111200
     59 H25        -6.7780    0.9830    4.4360 hn        1 2C6      0.456300
     60 H32        -6.5240    2.5280    5.0100 hn        1 2C6      0.456300
@<TRIPOS>BOND
     1    1    2 1   
     2    1   11 1   
     3    1   35 1   
     4    2    3 2   
     5    2    4 1   
     6    4    5 ar  
     7    4    9 ar  
     8    5    6 ar  
     9    5   36 1   
    10    6    7 ar  
    11    6   37 1   
    12    7    8 ar  
    13    7   38 1   
    14    8    9 ar  
    15    8   39 1   
    16    9   10 1   
    17   10   11 2   
    18   11   12 1   
    19   12   30 1   
    20   13   14 2   
    21   13   18 1   
    22   13   28 1   
    23   14   15 1   
    24   15   16 2   
    25   16   17 1   
    26   16   18 1   
    27   17   19 ar  
    28   17   23 ar  
    29   19   20 ar  
    30   19   40 1   
    31   20   21 ar  
    32   20   41 1   
    33   21   22 ar  
    34   21   42 1   
    35   22   23 ar  
    36   22   43 1   
    37   23   44 1   
    38   24   25 1   
    39   24   29 1   
    40   24   45 1   
    41   24   46 1   
    42   25   26 1   
    43   25   34 1   
    44   25   47 1   
    45   26   27 1   
    46   26   48 1   
    47   26   49 1   
    48   27   28 1   
    49   27   50 1   
    50   27   51 1   
    51   28   29 1   
    52   28   52 1   
    53   29   53 1   
    54   29   54 1   
    55   30   31 1   
    56   30   55 1   
    57   30   56 1   
    58   31   32 1   
    59   31   57 1   
    60   31   58 1   
    61   32   33 2   
    62   32   34 1   
    63   34   59 1   
    64   34   60 1   
@<TRIPOS>SUBSTRUCTURE
     1 2C6         1 TEMP              0 ****  ****    0 ROOT
