@<TRIPOS>MOLECULE
2C6
   60    64     1     0     0
SMALL
bcc


@<TRIPOS>ATOM
      1 N1         -0.3640   -1.9530    1.2270 ns        1 2C6     -0.484400
      2 C9          1.0240   -2.0370    0.9770 c         1 2C6      0.714100
      3 O1          1.4240   -2.9010    0.1830 o         1 2C6     -0.590500
      4 C10         1.8710   -1.0710    1.7000 ca        1 2C6     -0.179600
      5 C11         3.2580   -1.0780    1.5150 ca        1 2C6     -0.055000
      6 C15         4.0490   -0.1630    2.2000 ca        1 2C6     -0.137000
      7 C16         3.4600    0.7610    3.0700 ca        1 2C6     -0.087000
      8 C17         2.0860    0.7850    3.2680 ca        1 2C6     -0.121000
      9 C7          1.2610   -0.1370    2.5820 ca        1 2C6      0.175400
     10 N2         -0.1280   -0.1200    2.7750 nc        1 2C6     -0.644100
     11 C8         -0.8550   -0.9980    2.1120 cd        1 2C6      0.506800
     12 S1         -2.5910   -1.0210    2.3140 ss        1 2C6     -0.177300
     13 C18        -7.9740   -0.6590   10.0610 cc        1 2C6      0.405700
     14 N4         -7.2280   -0.2750   11.1150 nd        1 2C6     -0.325000
     15 N5         -7.7270   -0.8030   12.2170 nd        1 2C6     -0.349000
     16 C19        -8.8160   -1.5460   11.9010 cc        1 2C6      0.556900
     17 C20        -9.7300   -2.3300   12.7030 ca        1 2C6     -0.165500
     18 O2         -9.0180   -1.4840   10.5080 os        1 2C6     -0.386800
     19 C21       -10.7970   -3.0130   12.1000 ca        1 2C6     -0.080000
     20 C22       -11.6690   -3.7640   12.8840 ca        1 2C6     -0.135500
     21 C23       -11.4840   -3.8360   14.2660 ca        1 2C6     -0.089000
     22 C24       -10.4230   -3.1570   14.8660 ca        1 2C6     -0.135500
     23 C25        -9.5430   -2.4020   14.0920 ca        1 2C6     -0.080000
     24 C1         -7.8970    1.4620    6.9000 c3        1 2C6     -0.098900
     25 C2         -6.5140    1.0020    6.4230 c3        1 2C6      0.119500
     26 C3         -6.3790   -0.5120    6.6070 c3        1 2C6     -0.098900
     27 C4         -6.5390   -0.8560    8.0750 c3        1 2C6     -0.080400
     28 C5         -7.8840   -0.3740    8.6100 c3        1 2C6     -0.074000
     29 C6         -8.0590    1.1210    8.3680 c3        1 2C6     -0.080400
     30 C12        -2.9090    0.2880    3.4630 c3        1 2C6     -0.032300
     31 C13        -4.4050    0.2850    3.6680 c3        1 2C6     -0.142400
     32 C14        -4.8030    1.3740    4.6220 c         1 2C6      0.548100
     33 O3         -4.1120    2.2400    5.1310 o         1 2C6     -0.390100
     34 N3         -6.2760    1.4150    4.9870 ny        1 2C6     -0.688800
     35 H1         -0.9820   -2.5810    0.7620 hn        1 2C6      0.346500
     36 H2          3.7040   -1.8140    0.8250 ha        1 2C6      0.167000
     37 H3          5.1410   -0.1650    2.0580 ha        1 2C6      0.152000
     38 H4          4.0970    1.4820    3.6080 ha        1 2C6      0.147000
     39 H5          1.6380    1.5180    3.9550 ha        1 2C6      0.150000
     40 H6        -10.9400   -2.9540   11.0100 ha        1 2C6      0.151500
     41 H7        -12.5060   -4.3000   12.4110 ha        1 2C6      0.147500
     42 H8        -12.1760   -4.4310   14.8820 ha        1 2C6      0.147000
     43 H9        -10.2780   -3.2140   15.9560 ha        1 2C6      0.147500
     44 H10        -8.7070   -1.8670   14.5700 ha        1 2C6      0.151500
     45 H11        -8.0110    2.5710    6.7710 hc        1 2C6      0.065450
     46 H12        -8.7000    0.9550    6.3020 hc        1 2C6      0.065450
     47 H13        -5.7190    1.5300    7.0360 hx        1 2C6      0.125700
     48 H14        -5.3710   -0.8610    6.2600 hc        1 2C6      0.065450
     49 H15        -7.1620   -1.0470    6.0060 hc        1 2C6      0.065450
     50 H16        -6.4640   -1.9690    8.1980 hc        1 2C6      0.085950
     51 H17        -5.7070   -0.3940    8.6700 hc        1 2C6      0.085950
     52 H18        -8.7130   -0.9340    8.0890 hc        1 2C6      0.083700
     53 H19        -9.0830    1.4380    8.7030 hc        1 2C6      0.085950
     54 H20        -7.3120    1.6950    8.9800 hc        1 2C6      0.085950
     55 H21        -2.3670    0.1190    4.4270 h1        1 2C6      0.113200
     56 H22        -2.5570    1.2720    3.0610 h1        1 2C6      0.113200
     57 H23        -4.7380   -0.7120    4.0770 hc        1 2C6      0.111700
     58 H24        -4.9300    0.4540    2.6840 hc        1 2C6      0.111700
     59 H25        -6.6200    2.3770    4.8750 hn        1 2C6      0.456300
     60 H32        -6.8090    0.8000    4.3660 hn        1 2C6      0.456300
@<TRIPOS>BOND
     1    1    2 1   
     2    1   11 1   
     3    1   35 1   
     4    2    3 2   
     5    2    4 1   
     6    4    5 ar  
     7    4    9 ar  
     8    5    6 ar  
     9    5   36 1   
    10    6    7 ar  
    11    6   37 1   
    12    7    8 ar  
    13    7   38 1   
    14    8    9 ar  
    15    8   39 1   
    16    9   10 1   
    17   10   11 2   
    18   11   12 1   
    19   12   30 1   
    20   13   14 2   
    21   13   18 1   
    22   13   28 1   
    23   14   15 1   
    24   15   16 2   
    25   16   17 1   
    26   16   18 1   
    27   17   19 ar  
    28   17   23 ar  
    29   19   20 ar  
    30   19   40 1   
    31   20   21 ar  
    32   20   41 1   
    33   21   22 ar  
    34   21   42 1   
    35   22   23 ar  
    36   22   43 1   
    37   23   44 1   
    38   24   25 1   
    39   24   29 1   
    40   24   45 1   
    41   24   46 1   
    42   25   26 1   
    43   25   34 1   
    44   25   47 1   
    45   26   27 1   
    46   26   48 1   
    47   26   49 1   
    48   27   28 1   
    49   27   50 1   
    50   27   51 1   
    51   28   29 1   
    52   28   52 1   
    53   29   53 1   
    54   29   54 1   
    55   30   31 1   
    56   30   55 1   
    57   30   56 1   
    58   31   32 1   
    59   31   57 1   
    60   31   58 1   
    61   32   33 2   
    62   32   34 1   
    63   34   59 1   
    64   34   60 1   
@<TRIPOS>SUBSTRUCTURE
     1 2C6         1 TEMP              0 ****  ****    0 ROOT
