@<TRIPOS>MOLECULE
2C7
   46    48     1     0     0
SMALL
bcc


@<TRIPOS>ATOM
      1 CAE         0.0930   -0.1930   -0.1540 c3        1 2C7     -0.068400
      2 CAA         1.6070   -0.2180   -0.1220 c3        1 2C7     -0.075400
      3 CAB         2.1900   -0.0800    1.2670 c3        1 2C7     -0.077400
      4 CAC         1.6780   -1.1140    2.2480 c3        1 2C7     -0.077400
      5 CAD         0.2560   -0.8400    2.6940 c3        1 2C7     -0.075400
      6 CAG        -0.8120   -1.4800    1.8330 c3        1 2C7     -0.068400
      7 CAF        -0.5160   -1.5000    0.3400 c3        1 2C7     -0.061700
      8 CAH        -1.7970   -1.7990   -0.4430 c3        1 2C7     -0.028200
      9 CAI        -2.2870   -3.1780   -0.2310 ce        1 2C7     -0.278300
     10 CAJ        -3.3810   -3.4960    0.4950 cf        1 2C7     -0.011200
     11 SAP        -1.5130   -4.5270   -0.9530 sy        1 2C7      1.390200
     12 OAO        -1.5970   -4.5060   -2.3360 o         1 2C7     -0.611800
     13 OAW        -0.2850   -4.8130   -0.3660 o         1 2C7     -0.611800
     14 CAQ        -2.6890   -5.6310   -0.3000 ca        1 2C7     -0.288500
     15 CAR        -2.7770   -6.9990   -0.4570 ca        1 2C7     -0.018000
     16 CAK        -3.6440   -4.9410    0.4890 ca        1 2C7      0.016200
     17 CAL        -4.6740   -5.6140    1.1370 ca        1 2C7     -0.098000
     18 CAM        -4.7580   -7.0030    1.0130 ca        1 2C7     -0.068000
     19 CAS        -3.8050   -7.6730    0.2310 ca        1 2C7      0.024100
     20 OAT        -4.0070   -9.0330    0.0510 os        1 2C7     -0.439800
     21 SAU        -2.8700  -10.1860    0.2460 s6        1 2C7      1.599400
     22 OAA        -3.4920  -11.3940    0.2080 o         1 2C7     -0.539800
     23 OAN        -1.6900   -9.8140   -0.3210 o         1 2C7     -0.539800
     24 NAV        -2.5420   -9.9380    2.0780 nz        1 2C7     -0.811500
     25 HAE        -0.2310   -0.0040   -1.2130 hc        1 2C7      0.037450
     26 HAEA       -0.2890    0.6600    0.4640 hc        1 2C7      0.037450
     27 HAA         1.9900    0.6290   -0.7530 hc        1 2C7      0.043200
     28 HAAA        1.9780   -1.1690   -0.5900 hc        1 2C7      0.043200
     29 HAB         3.3070   -0.1750    1.1930 hc        1 2C7      0.043950
     30 HABA        1.9720    0.9480    1.6610 hc        1 2C7      0.043950
     31 HAC         2.3440   -1.0990    3.1530 hc        1 2C7      0.043950
     32 HACA        1.7530   -2.1380    1.7990 hc        1 2C7      0.043950
     33 HAD         0.0870    0.2700    2.7300 hc        1 2C7      0.043200
     34 HADA        0.1240   -1.2200    3.7440 hc        1 2C7      0.043200
     35 HAG        -1.7780   -0.9330    2.0110 hc        1 2C7      0.037450
     36 HAGA       -0.9680   -2.5400    2.1670 hc        1 2C7      0.037450
     37 HAF         0.2180   -2.3350    0.1410 hc        1 2C7      0.060700
     38 HAH        -2.5870   -1.0560   -0.1540 hc        1 2C7      0.070700
     39 HAHA       -1.6010   -1.6610   -1.5440 hc        1 2C7      0.070700
     40 HAJ        -4.0350   -2.8030    1.0350 ha        1 2C7      0.177000
     41 HAR        -2.0620   -7.5500   -1.0950 ha        1 2C7      0.181000
     42 HAL        -5.4230   -5.0660    1.7310 ha        1 2C7      0.176000
     43 HAM        -5.5820   -7.5620    1.4850 ha        1 2C7      0.167000
     44 HNAV       -1.5550   -9.7400    2.2580 hn        1 2C7      0.471467
     45 HNAA       -2.7900  -10.7730    2.6130 hn        1 2C7      0.471467
     46 HAV3       -3.0810   -9.1620    2.4610 hn        1 2C7      0.471467
@<TRIPOS>BOND
     1    1    2 1   
     2    1    7 1   
     3    1   25 1   
     4    1   26 1   
     5    2    3 1   
     6    2   27 1   
     7    2   28 1   
     8    3    4 1   
     9    3   29 1   
    10    3   30 1   
    11    4    5 1   
    12    4   31 1   
    13    4   32 1   
    14    5    6 1   
    15    5   33 1   
    16    5   34 1   
    17    6    7 1   
    18    6   35 1   
    19    6   36 1   
    20    7    8 1   
    21    7   37 1   
    22    8    9 1   
    23    8   38 1   
    24    8   39 1   
    25    9   10 2   
    26    9   11 1   
    27   10   16 1   
    28   10   40 1   
    29   11   12 2   
    30   11   13 2   
    31   11   14 1   
    32   14   15 ar  
    33   14   16 ar  
    34   15   19 ar  
    35   15   41 1   
    36   16   17 ar  
    37   17   18 ar  
    38   17   42 1   
    39   18   19 ar  
    40   18   43 1   
    41   19   20 1   
    42   20   21 1   
    43   21   22 2   
    44   21   23 2   
    45   21   24 1   
    46   24   44 1   
    47   24   45 1   
    48   24   46 1   
@<TRIPOS>SUBSTRUCTURE
     1 2C7         1 TEMP              0 ****  ****    0 ROOT
