@<TRIPOS>MOLECULE
2C7
   45    43     1     0     0
SMALL
bcc


@<TRIPOS>ATOM
      1 CAE         2.1400    2.9900   -0.7980 c3        1 2C7     -0.147000
      2 CAA         3.5250    2.4730   -0.5060 c3        1 2C7     -0.152000
      3 CAB         4.1490    3.2260    0.6550 c3        1 2C7     -0.154000
      4 CAC         3.2360    3.1950    1.8740 c3        1 2C7     -0.154000
      5 CAD         2.0190    4.0820    1.6620 c3        1 2C7     -0.152000
      6 CAG         0.8150    3.2590    1.2820 c3        1 2C7     -0.147000
      7 CAF         1.1270    2.3550    0.1220 c3        1 2C7     -0.105000
      8 CAH        -0.1660    2.0770   -0.6620 c3        1 2C7     -0.091000
      9 CAI        -0.6190    0.6390   -0.4000 c2        1 2C7     -0.775000
     10 CAJ        -1.7280    0.4010    0.3220 c1        1 2C7      0.006000
     11 SAP        -0.2260   -0.4910   -1.3890 s4        1 2C7      2.070800
     12 OAO         1.0470   -1.0840   -1.1340 o         1 2C7     -0.525400
     13 OAW        -0.2650   -0.1210   -2.7660 o         1 2C7     -0.525400
     14 CAQ        -1.5860   -1.6720   -1.0430 c1        1 2C7     -0.751000
     15 CAR        -1.7570   -2.9910   -1.3110 c2        1 2C7     -0.030000
     16 CAK        -2.4410   -0.9940    0.0400 c1        1 2C7     -0.041000
     17 CAL        -3.3630   -1.7180    0.7240 c2        1 2C7     -0.089000
     18 CAM        -3.5370   -3.1040    0.4380 c1        1 2C7     -0.101000
     19 CAS        -2.7280   -3.7450   -0.5880 c1        1 2C7      0.113000
     20 OAT        -3.4630   -4.9590   -0.4120 os        1 2C7     -0.674000
     21 SAU        -2.6780   -6.2540   -0.6180 s4        1 2C7      2.050800
     22 OAA        -1.6880   -6.1210   -1.7580 o         1 2C7     -0.534400
     23 OAN        -1.7540   -6.5240    0.5410 o         1 2C7     -0.534400
     24 NAV        -3.7270   -7.5350   -0.8700 n2        1 2C7     -0.947000
     25 HAE         1.9110    2.7860   -1.7070 hc        1 2C7      0.076500
     26 HAEA        2.1260    3.9660   -0.6710 hc        1 2C7      0.076500
     27 HAA         4.0800    2.5840   -1.2960 hc        1 2C7      0.077500
     28 HAAA        3.4710    1.5220   -0.2820 hc        1 2C7      0.077500
     29 HAB         4.3030    4.1560    0.3900 hc        1 2C7      0.079250
     30 HABA        5.0030    2.8120    0.8830 hc        1 2C7      0.079250
     31 HAC         3.7270    3.5090    2.6460 hc        1 2C7      0.079250
     32 HACA        2.9420    2.2770    2.0320 hc        1 2C7      0.079250
     33 HAD         2.2090    4.7210    0.9480 hc        1 2C7      0.077500
     34 HADA        1.8300    4.5650    2.4820 hc        1 2C7      0.077500
     35 HAG         0.0870    3.8540    1.0360 hc        1 2C7      0.076500
     36 HAGA        0.5420    2.7160    2.0490 hc        1 2C7      0.076500
     37 HAF         1.4870    1.5110    0.4610 hc        1 2C7      0.111000
     38 HAH         0.0010    2.1990   -1.6240 hc        1 2C7      0.094500
     39 HAHA       -0.8620    2.6950   -0.3720 hc        1 2C7      0.094500
     40 HAJ        -1.8590    0.8490    1.1740 ha        1 2C7      0.155000
     41 HAR        -1.2240   -3.4160   -1.9860 ha        1 2C7      0.177000
     42 HAL        -3.9020   -1.2930    1.4060 ha        1 2C7      0.147000
     43 HAM        -4.1930   -3.6180    0.9260 ha        1 2C7      0.155000
     44 HNAV       -3.8290   -8.1760   -0.2250 hn        1 2C7      0.260500
     45 HNAA       -4.1830   -7.6090   -1.6750 hn        1 2C7      0.260500
@<TRIPOS>BOND
     1    1    2 1   
     2    1    7 1   
     3    1   25 1   
     4    1   26 1   
     5    2    3 1   
     6    2   27 1   
     7    2   28 1   
     8    3    4 1   
     9    3   29 1   
    10    3   30 1   
    11    4    5 1   
    12    4   31 1   
    13    4   32 1   
    14    5    6 1   
    15    5   33 1   
    16    5   34 1   
    17    6    7 1   
    18    6   35 1   
    19    6   36 1   
    20    7    8 1   
    21    7   37 1   
    22    8    9 1   
    23    8   38 1   
    24    8   39 1   
    25    9   10 1   
    26    9   11 1   
    27   10   40 1   
    28   11   12 1   
    29   11   13 1   
    30   14   15 1   
    31   14   16 1   
    32   15   19 1   
    33   15   41 1   
    34   16   17 1   
    35   17   18 1   
    36   17   42 1   
    37   18   43 1   
    38   19   20 1   
    39   20   21 1   
    40   21   22 1   
    41   21   23 1   
    42   24   44 1   
    43   24   45 1   
@<TRIPOS>SUBSTRUCTURE
     1 2C7         1 TEMP              0 ****  ****    0 ROOT
