@<TRIPOS>MOLECULE
2C7
   46    48     1     0     0
SMALL
bcc


@<TRIPOS>ATOM
      1 CAE         0.1020   -0.1990   -0.1610 c3        1 2C7     -0.068400
      2 CAA         1.6170   -0.2250   -0.1140 c3        1 2C7     -0.075400
      3 CAB         2.1850   -0.0790    1.2800 c3        1 2C7     -0.077400
      4 CAC         1.6620   -1.1060    2.2630 c3        1 2C7     -0.077400
      5 CAD         0.2370   -0.8290    2.6920 c3        1 2C7     -0.075400
      6 CAG        -0.8230   -1.4720    1.8240 c3        1 2C7     -0.068400
      7 CAF        -0.5120   -1.5020    0.3350 c3        1 2C7     -0.061700
      8 CAH        -1.7850   -1.8060   -0.4590 c3        1 2C7     -0.028200
      9 CAI        -2.2780   -3.1830   -0.2450 ce        1 2C7     -0.278300
     10 CAJ        -3.3780   -3.4970    0.4740 cf        1 2C7     -0.011200
     11 SAP        -1.4980   -4.5360   -0.9520 sy        1 2C7      1.390200
     12 OAO        -1.5700   -4.5220   -2.3370 o         1 2C7     -0.611800
     13 OAW        -0.2750   -4.8190   -0.3540 o         1 2C7     -0.611800
     14 CAQ        -2.6800   -5.6360   -0.3040 ca        1 2C7     -0.288500
     15 CAR        -2.7670   -7.0050   -0.4550 ca        1 2C7     -0.018000
     16 CAK        -3.6420   -4.9420    0.4730 ca        1 2C7      0.016200
     17 CAL        -4.6770   -5.6110    1.1170 ca        1 2C7     -0.098000
     18 CAM        -4.7600   -7.0010    0.9990 ca        1 2C7     -0.068000
     19 CAS        -3.8010   -7.6760    0.2290 ca        1 2C7      0.024100
     20 OAT        -4.0020   -9.0360    0.0540 os        1 2C7     -0.439800
     21 SAU        -2.8670  -10.1880    0.2640 s6        1 2C7      1.599400
     22 OAA        -3.4890  -11.3960    0.2280 o         1 2C7     -0.539800
     23 OAN        -1.6830   -9.8200   -0.2960 o         1 2C7     -0.539800
     24 NAV        -2.5530   -9.9310    2.0970 n4        1 2C7     -0.811500
     25 HAE        -0.2850    0.6590    0.4480 hc        1 2C7      0.037450
     26 HAEA       -0.2100   -0.0150   -1.2250 hc        1 2C7      0.037450
     27 HAA         2.0070    0.6190   -0.7450 hc        1 2C7      0.043200
     28 HAAA        1.9910   -1.1790   -0.5720 hc        1 2C7      0.043200
     29 HAB         1.9640    0.9520    1.6670 hc        1 2C7      0.043950
     30 HABA        3.3030   -0.1750    1.2180 hc        1 2C7      0.043950
     31 HAC         2.3200   -1.0860    3.1740 hc        1 2C7      0.043950
     32 HACA        1.7410   -2.1330    1.8210 hc        1 2C7      0.043950
     33 HAD         0.0680    0.2810    2.7200 hc        1 2C7      0.043200
     34 HADA        0.0940   -1.2020    3.7430 hc        1 2C7      0.043200
     35 HAG        -0.9840   -2.5310    2.1640 hc        1 2C7      0.037450
     36 HAGA       -1.7900   -0.9250    1.9900 hc        1 2C7      0.037450
     37 HAF         0.2230   -2.3390    0.1480 hc        1 2C7      0.060700
     38 HAH        -2.5780   -1.0600   -0.1820 hc        1 2C7      0.070700
     39 HAHA       -1.5790   -1.6740   -1.5600 hc        1 2C7      0.070700
     40 HAJ        -4.0370   -2.8010    1.0050 ha        1 2C7      0.177000
     41 HAR        -2.0470   -7.5590   -1.0840 ha        1 2C7      0.181000
     42 HAL        -5.4310   -5.0590    1.7010 ha        1 2C7      0.176000
     43 HAM        -5.5880   -7.5570    1.4670 ha        1 2C7      0.167000
     44 HNAV       -2.8060  -10.7620    2.6350 hn        1 2C7      0.471467
     45 HNAA       -3.0950   -9.1520    2.4720 hn        1 2C7      0.471467
     46 HAV3       -1.5670   -9.7320    2.2840 hn        1 2C7      0.471467
@<TRIPOS>BOND
     1    1    2 1   
     2    1    7 1   
     3    1   25 1   
     4    1   26 1   
     5    2    3 1   
     6    2   27 1   
     7    2   28 1   
     8    3    4 1   
     9    3   29 1   
    10    3   30 1   
    11    4    5 1   
    12    4   31 1   
    13    4   32 1   
    14    5    6 1   
    15    5   33 1   
    16    5   34 1   
    17    6    7 1   
    18    6   35 1   
    19    6   36 1   
    20    7    8 1   
    21    7   37 1   
    22    8    9 1   
    23    8   38 1   
    24    8   39 1   
    25    9   10 2   
    26    9   11 1   
    27   10   16 1   
    28   10   40 1   
    29   11   12 2   
    30   11   13 2   
    31   11   14 1   
    32   14   15 ar  
    33   14   16 ar  
    34   15   19 ar  
    35   15   41 1   
    36   16   17 ar  
    37   17   18 ar  
    38   17   42 1   
    39   18   19 ar  
    40   18   43 1   
    41   19   20 1   
    42   20   21 1   
    43   21   22 2   
    44   21   23 2   
    45   21   24 1   
    46   24   44 1   
    47   24   45 1   
    48   24   46 1   
@<TRIPOS>SUBSTRUCTURE
     1 2C7         1 TEMP              0 ****  ****    0 ROOT
