@<TRIPOS>MOLECULE
2C7
   45    47     1     0     0
SMALL
bcc


@<TRIPOS>ATOM
      1 CAE        -5.2650    0.4610    0.1440 c3        1 2C7     -0.067900
      2 CAA        -5.7980   -0.3040    1.3380 c3        1 2C7     -0.073400
      3 CAB        -6.1660   -1.7380    1.0270 c3        1 2C7     -0.075400
      4 CAC        -5.0330   -2.5380    0.4190 c3        1 2C7     -0.075400
      5 CAD        -4.7740   -2.1740   -1.0280 c3        1 2C7     -0.073400
      6 CAG        -3.7740   -1.0560   -1.2300 c3        1 2C7     -0.067900
      7 CAF        -3.8360    0.0660   -0.2040 c3        1 2C7     -0.064700
      8 CAH        -3.0700    1.2860   -0.7180 c3        1 2C7     -0.009200
      9 CAI        -1.6130    1.0550   -0.7940 ce        1 2C7     -0.328300
     10 CAJ        -0.9240    0.8580   -1.9390 cf        1 2C7      0.017800
     11 SAP        -0.6150    1.0610    0.6010 sy        1 2C7      1.400200
     12 OAO        -0.6090    2.3140    1.2110 o         1 2C7     -0.636300
     13 OAW        -0.8790   -0.0370    1.4230 o         1 2C7     -0.636300
     14 CAQ         0.8100    0.7960   -0.3110 ca        1 2C7     -0.300500
     15 CAR         2.1150    0.6800    0.1220 ca        1 2C7     -0.052000
     16 CAK         0.5130    0.6930   -1.6970 ca        1 2C7     -0.056800
     17 CAL         1.5070    0.4700   -2.6350 ca        1 2C7     -0.086000
     18 CAM         2.8310    0.3320   -2.2010 ca        1 2C7     -0.111000
     19 CAS         3.1270    0.4300   -0.8350 ca        1 2C7      0.155100
     20 OAT         4.4370    0.3570   -0.4690 os        1 2C7     -0.487800
     21 SAU         5.0850   -0.6120    0.7840 s6        1 2C7      1.727400
     22 OAA         6.4360   -0.3660    0.6180 o         1 2C7     -0.633300
     23 OAN         4.3860   -0.1890    1.9020 o         1 2C7     -0.633300
     24 NAV         4.6900   -2.0870    0.3790 n3        1 2C7     -1.043700
     25 HAE        -5.9310    0.2990   -0.7430 hc        1 2C7      0.036950
     26 HAEA       -5.3030    1.5570    0.3890 hc        1 2C7      0.036950
     27 HAA        -5.0390   -0.2850    2.1650 hc        1 2C7      0.038700
     28 HAAA       -6.7150    0.2210    1.7200 hc        1 2C7      0.038700
     29 HAB        -6.4880   -2.2360    1.9810 hc        1 2C7      0.039950
     30 HABA       -7.0480   -1.7550    0.3330 hc        1 2C7      0.039950
     31 HAC        -4.0990   -2.4000    1.0250 hc        1 2C7      0.039950
     32 HACA       -5.3030   -3.6270    0.4720 hc        1 2C7      0.039950
     33 HAD        -4.3900   -3.0820   -1.5680 hc        1 2C7      0.038700
     34 HADA       -5.7450   -1.8960   -1.5190 hc        1 2C7      0.038700
     35 HAG        -2.7350   -1.4830   -1.2080 hc        1 2C7      0.036950
     36 HAGA       -3.9310   -0.6280   -2.2570 hc        1 2C7      0.036950
     37 HAF        -3.3220   -0.2920    0.7370 hc        1 2C7      0.069700
     38 HAH        -3.4710    1.5760   -1.7260 hc        1 2C7      0.056200
     39 HAHA       -3.2520    2.1570   -0.0270 hc        1 2C7      0.056200
     40 HAJ        -1.3350    0.8220   -2.9530 ha        1 2C7      0.156000
     41 HAR         2.3820    0.7780    1.1900 ha        1 2C7      0.183000
     42 HAL         1.2680    0.4030   -3.7070 ha        1 2C7      0.147000
     43 HAM         3.6440    0.1670   -2.9230 ha        1 2C7      0.156000
     44 HNAV        5.2280   -2.6570   -0.2280 hn        1 2C7      0.463300
     45 HNAA        3.8730   -2.5520    0.6970 hn        1 2C7      0.463300
@<TRIPOS>BOND
     1    1    2 1   
     2    1    7 1   
     3    1   25 1   
     4    1   26 1   
     5    2    3 1   
     6    2   27 1   
     7    2   28 1   
     8    3    4 1   
     9    3   29 1   
    10    3   30 1   
    11    4    5 1   
    12    4   31 1   
    13    4   32 1   
    14    5    6 1   
    15    5   33 1   
    16    5   34 1   
    17    6    7 1   
    18    6   35 1   
    19    6   36 1   
    20    7    8 1   
    21    7   37 1   
    22    8    9 1   
    23    8   38 1   
    24    8   39 1   
    25    9   10 2   
    26    9   11 1   
    27   10   16 1   
    28   10   40 1   
    29   11   12 2   
    30   11   13 2   
    31   11   14 1   
    32   14   15 ar  
    33   14   16 ar  
    34   15   19 ar  
    35   15   41 1   
    36   16   17 ar  
    37   17   18 ar  
    38   17   42 1   
    39   18   19 ar  
    40   18   43 1   
    41   19   20 1   
    42   20   21 1   
    43   21   22 2   
    44   21   23 2   
    45   21   24 1   
    46   24   44 1   
    47   24   45 1   
@<TRIPOS>SUBSTRUCTURE
     1 2C7         1 TEMP              0 ****  ****    0 ROOT
