@<TRIPOS>MOLECULE
2C7
   46    48     1     0     0
SMALL
bcc


@<TRIPOS>ATOM
      1 CAE         0.0910   -0.1910   -0.1490 c3        1 2C7     -0.068400
      2 CAA         1.6060   -0.2160   -0.1240 c3        1 2C7     -0.075400
      3 CAB         2.1950   -0.0830    1.2630 c3        1 2C7     -0.077400
      4 CAC         1.6870   -1.1200    2.2430 c3        1 2C7     -0.077400
      5 CAD         0.2680   -0.8480    2.6960 c3        1 2C7     -0.075400
      6 CAG        -0.8040   -1.4840    1.8370 c3        1 2C7     -0.068400
      7 CAF        -0.5150   -1.5000    0.3440 c3        1 2C7     -0.061700
      8 CAH        -1.8000   -1.7960   -0.4350 c3        1 2C7     -0.028200
      9 CAI        -2.2900   -3.1750   -0.2260 ce        1 2C7     -0.278300
     10 CAJ        -3.3820   -3.4940    0.5030 cf        1 2C7     -0.011200
     11 SAP        -1.5190   -4.5220   -0.9530 sy        1 2C7      1.390200
     12 OAO        -1.6070   -4.4970   -2.3360 o         1 2C7     -0.611800
     13 OAW        -0.2890   -4.8100   -0.3710 o         1 2C7     -0.611800
     14 CAQ        -2.6930   -5.6270   -0.2990 ca        1 2C7     -0.288500
     15 CAR        -2.7820   -6.9950   -0.4600 ca        1 2C7     -0.017000
     16 CAK        -3.6460   -4.9390    0.4940 ca        1 2C7      0.016200
     17 CAL        -4.6740   -5.6130    1.1440 ca        1 2C7     -0.098000
     18 CAM        -4.7590   -7.0020    1.0160 ca        1 2C7     -0.068000
     19 CAS        -3.8090   -7.6700    0.2290 ca        1 2C7      0.024100
     20 OAT        -4.0120   -9.0290    0.0460 os        1 2C7     -0.439800
     21 SAU        -2.8750  -10.1830    0.2360 s6        1 2C7      1.599400
     22 OAA        -3.4980  -11.3920    0.1960 o         1 2C7     -0.539800
     23 OAN        -1.6960   -9.8100   -0.3310 o         1 2C7     -0.539800
     24 NAV        -2.5450   -9.9410    2.0690 n4        1 2C7     -0.811500
     25 HAE        -0.2870    0.6600    0.4740 hc        1 2C7      0.037450
     26 HAEA       -0.2370    0.0030   -1.2060 hc        1 2C7      0.037450
     27 HAA         1.9740   -1.1660   -0.5970 hc        1 2C7      0.043200
     28 HAAA        1.9860    0.6330   -0.7530 hc        1 2C7      0.043200
     29 HAB         3.3110   -0.1780    1.1830 hc        1 2C7      0.043950
     30 HABA        1.9790    0.9440    1.6620 hc        1 2C7      0.043950
     31 HAC         1.7600   -2.1430    1.7900 hc        1 2C7      0.043950
     32 HACA        2.3580   -1.1080    3.1440 hc        1 2C7      0.043950
     33 HAD         0.1400   -1.2310    3.7450 hc        1 2C7      0.043200
     34 HADA        0.0990    0.2620    2.7360 hc        1 2C7      0.043200
     35 HAG        -1.7690   -0.9390    2.0230 hc        1 2C7      0.037450
     36 HAGA       -0.9590   -2.5460    2.1690 hc        1 2C7      0.037450
     37 HAF         0.2170   -2.3340    0.1370 hc        1 2C7      0.060700
     38 HAH        -2.5890   -1.0520   -0.1400 hc        1 2C7      0.070700
     39 HAHA       -1.6100   -1.6540   -1.5370 hc        1 2C7      0.070700
     40 HAJ        -4.0350   -2.8020    1.0470 ha        1 2C7      0.177000
     41 HAR        -2.0700   -7.5440   -1.1020 ha        1 2C7      0.181000
     42 HAL        -5.4220   -5.0660    1.7410 ha        1 2C7      0.176000
     43 HAM        -5.5820   -7.5620    1.4880 ha        1 2C7      0.167000
     44 HNAV       -1.5580   -9.7430    2.2480 hn        1 2C7      0.471467
     45 HNAA       -2.7940  -10.7770    2.6020 hn        1 2C7      0.471467
     46 HAV3       -3.0840   -9.1650    2.4550 hn        1 2C7      0.471467
@<TRIPOS>BOND
     1    1    2 1   
     2    1    7 1   
     3    1   25 1   
     4    1   26 1   
     5    2    3 1   
     6    2   27 1   
     7    2   28 1   
     8    3    4 1   
     9    3   29 1   
    10    3   30 1   
    11    4    5 1   
    12    4   31 1   
    13    4   32 1   
    14    5    6 1   
    15    5   33 1   
    16    5   34 1   
    17    6    7 1   
    18    6   35 1   
    19    6   36 1   
    20    7    8 1   
    21    7   37 1   
    22    8    9 1   
    23    8   38 1   
    24    8   39 1   
    25    9   10 2   
    26    9   11 1   
    27   10   16 1   
    28   10   40 1   
    29   11   12 2   
    30   11   13 2   
    31   11   14 1   
    32   14   15 ar  
    33   14   16 ar  
    34   15   19 ar  
    35   15   41 1   
    36   16   17 ar  
    37   17   18 ar  
    38   17   42 1   
    39   18   19 ar  
    40   18   43 1   
    41   19   20 1   
    42   20   21 1   
    43   21   22 2   
    44   21   23 2   
    45   21   24 1   
    46   24   44 1   
    47   24   45 1   
    48   24   46 1   
@<TRIPOS>SUBSTRUCTURE
     1 2C7         1 TEMP              0 ****  ****    0 ROOT
