@<TRIPOS>MOLECULE
2C8
   52    56     1     0     0
SMALL
bcc


@<TRIPOS>ATOM
      1 N1         -6.6420    1.5260   -0.2010 n         1 2C8     -0.498400
      2 C1         -7.9900    1.1300   -0.1760 c         1 2C8      0.709100
      3 O1         -8.8720    2.0030   -0.2630 o         1 2C8     -0.618500
      4 C2         -8.2360   -0.3170   -0.0450 ca        1 2C8     -0.188600
      5 C3         -9.5460   -0.8120   -0.0110 ca        1 2C8     -0.058000
      6 C4         -9.7630   -2.1770    0.1130 ca        1 2C8     -0.152000
      7 C5         -8.6750   -3.0550    0.2020 ca        1 2C8     -0.093000
      8 C6         -7.3720   -2.5850    0.1690 ca        1 2C8     -0.125000
      9 C7         -7.1230   -1.1960    0.0440 ca        1 2C8      0.184400
     10 N2         -5.8060   -0.7200    0.0110 nc        1 2C8     -0.637100
     11 C8         -5.6110    0.5810   -0.1060 cd        1 2C8      0.494900
     12 C9         -4.2060    1.1570   -0.1470 c3        1 2C8     -0.113700
     13 C10        -3.1220    0.1070   -0.0430 c3        1 2C8     -0.144400
     14 C11        -1.7530    0.7720   -0.0920 c         1 2C8      0.663100
     15 O2         -1.6320    2.0050   -0.2030 o         1 2C8     -0.587100
     16 N3         -0.6690   -0.0940   -0.0050 n         1 2C8     -0.470100
     17 C12         0.6940    0.2320   -0.0240 ca        1 2C8      0.096600
     18 C13         1.6360   -0.8250    0.0790 ca        1 2C8     -0.182500
     19 C14         2.9970   -0.5610    0.0660 ca        1 2C8     -0.059000
     20 C15         1.1760    1.5540   -0.1400 ca        1 2C8     -0.182500
     21 C16         2.5430    1.8060   -0.1520 ca        1 2C8     -0.059000
     22 C18         4.8820    1.0340   -0.0640 cc        1 2C8      0.524900
     23 C17         3.4650    0.7560   -0.0500 ca        1 2C8     -0.170500
     24 N4          5.5880    2.1850   -0.1630 nd        1 2C8     -0.348000
     25 N5          6.8770    1.9090   -0.1280 nd        1 2C8     -0.343000
     26 C19         7.0470    0.5730   -0.0060 cc        1 2C8      0.512900
     27 C20         8.2270   -0.2600    0.0790 ca        1 2C8     -0.137500
     28 O3          5.7810   -0.0440    0.0400 os        1 2C8     -0.393800
     29 C21         9.4980    0.3310    0.0350 ca        1 2C8     -0.089000
     30 C22        10.6350   -0.4720    0.1160 ca        1 2C8     -0.138000
     31 C23        10.5130   -1.8550    0.2400 ca        1 2C8     -0.107000
     32 C24         9.2480   -2.4440    0.2840 ca        1 2C8     -0.138000
     33 C25         8.1050   -1.6530    0.2040 ca        1 2C8     -0.089000
     34 H1         -6.4230    2.4930   -0.2880 hn        1 2C8      0.339500
     35 H2        -10.3860   -0.1020   -0.0820 ha        1 2C8      0.160000
     36 H3        -10.7900   -2.5720    0.1400 ha        1 2C8      0.141000
     37 H4         -8.8600   -4.1360    0.2990 ha        1 2C8      0.138000
     38 H5         -6.5260   -3.2870    0.2400 ha        1 2C8      0.150000
     39 H6         -4.0770    1.7270   -1.1080 hc        1 2C8      0.084700
     40 H7         -4.0910    1.8920    0.6970 hc        1 2C8      0.084700
     41 H8         -3.2240   -0.4620    0.9200 hc        1 2C8      0.086700
     42 H9         -3.2090   -0.6270   -0.8880 hc        1 2C8      0.086700
     43 H10        -0.8760   -1.0650    0.0810 hn        1 2C8      0.320500
     44 H11         1.2980   -1.8690    0.1710 ha        1 2C8      0.157500
     45 H12         3.7170   -1.3910    0.1460 ha        1 2C8      0.155000
     46 H13         0.4770    2.4040   -0.2220 ha        1 2C8      0.157500
     47 H14         2.8980    2.8460   -0.2440 ha        1 2C8      0.155000
     48 H15         9.5980    1.4230   -0.0640 ha        1 2C8      0.152000
     49 H16        11.6320   -0.0080    0.0810 ha        1 2C8      0.139000
     50 H17        11.4140   -2.4840    0.3040 ha        1 2C8      0.136000
     51 H18         9.1510   -3.5350    0.3820 ha        1 2C8      0.139000
     52 H19         7.1050   -2.1120    0.2380 ha        1 2C8      0.152000
@<TRIPOS>BOND
     1    1    2 1   
     2    1   11 1   
     3    1   34 1   
     4    2    3 2   
     5    2    4 1   
     6    4    5 ar  
     7    4    9 ar  
     8    5    6 ar  
     9    5   35 1   
    10    6    7 ar  
    11    6   36 1   
    12    7    8 ar  
    13    7   37 1   
    14    8    9 ar  
    15    8   38 1   
    16    9   10 1   
    17   10   11 2   
    18   11   12 1   
    19   12   13 1   
    20   12   39 1   
    21   12   40 1   
    22   13   14 1   
    23   13   41 1   
    24   13   42 1   
    25   14   15 2   
    26   14   16 1   
    27   16   17 1   
    28   16   43 1   
    29   17   18 ar  
    30   17   20 ar  
    31   18   19 ar  
    32   18   44 1   
    33   19   23 ar  
    34   19   45 1   
    35   20   21 ar  
    36   20   46 1   
    37   21   23 ar  
    38   21   47 1   
    39   22   23 1   
    40   22   24 2   
    41   22   28 1   
    42   24   25 1   
    43   25   26 2   
    44   26   27 1   
    45   26   28 1   
    46   27   29 ar  
    47   27   33 ar  
    48   29   30 ar  
    49   29   48 1   
    50   30   31 ar  
    51   30   49 1   
    52   31   32 ar  
    53   31   50 1   
    54   32   33 ar  
    55   32   51 1   
    56   33   52 1   
@<TRIPOS>SUBSTRUCTURE
     1 2C8         1 TEMP              0 ****  ****    0 ROOT
