@<TRIPOS>MOLECULE
2C8
   52    56     1     0     0
SMALL
bcc


@<TRIPOS>ATOM
      1 N1          0.3340    0.6680    0.2880 ns        1 2C8     -0.498400
      2 C1          1.7280    0.5470    0.4110 c         1 2C8      0.709100
      3 O1          2.4450    0.8570   -0.5570 o         1 2C8     -0.618500
      4 C2          2.2200    0.0500    1.7090 ca        1 2C8     -0.188600
      5 C3          3.5940   -0.1070    1.9310 ca        1 2C8     -0.058000
      6 C4          4.0450   -0.5750    3.1570 ca        1 2C8     -0.152000
      7 C5          3.1260   -0.8900    4.1670 ca        1 2C8     -0.093000
      8 C6          1.7630   -0.7420    3.9670 ca        1 2C8     -0.125000
      9 C7          1.2780   -0.2650    2.7240 ca        1 2C8      0.184400
     10 N2         -0.0990   -0.1150    2.5200 nc        1 2C8     -0.637100
     11 C8         -0.5170    0.3320    1.3490 cd        1 2C8      0.494900
     12 C9         -1.9980    0.5150    1.0690 c3        1 2C8     -0.113700
     13 C10        -2.8830    0.1400    2.2380 c3        1 2C8     -0.144400
     14 C11        -4.3450    0.3550    1.8680 c         1 2C8      0.663100
     15 O2         -4.6770    0.7820    0.7480 o         1 2C8     -0.587100
     16 N3         -5.2610    0.0420    2.8650 ns        1 2C8     -0.470100
     17 C12        -6.6580    0.1390    2.8090 ca        1 2C8      0.096600
     18 C13        -7.4020   -0.2420    3.9560 ca        1 2C8     -0.182500
     19 C14        -8.7860   -0.1670    3.9570 ca        1 2C8     -0.059000
     20 C15        -7.3600    0.5940    1.6720 ca        1 2C8     -0.182500
     21 C16        -8.7490    0.6660    1.6850 ca        1 2C8     -0.059000
     22 C18       -10.9160    0.3670    2.8200 cc        1 2C8      0.524900
     23 C17        -9.4740    0.2880    2.8220 ca        1 2C8     -0.170500
     24 N4        -11.8100    0.7610    1.8830 nd        1 2C8     -0.348000
     25 N5        -13.0300    0.6490    2.3690 nd        1 2C8     -0.343000
     26 C19       -12.9660    0.1790    3.6360 cc        1 2C8      0.512900
     27 C20       -13.9820   -0.1280    4.6190 ca        1 2C8     -0.137500
     28 O3        -11.6140   -0.0220    3.9790 os        1 2C8     -0.393800
     29 C21       -15.3350    0.0640    4.3010 ca        1 2C8     -0.089000
     30 C22       -16.3140   -0.2320    5.2480 ca        1 2C8     -0.138000
     31 C23       -15.9550   -0.7150    6.5060 ca        1 2C8     -0.107000
     32 C24       -14.6090   -0.9050    6.8220 ca        1 2C8     -0.138000
     33 C25       -13.6210   -0.6140    5.8850 ca        1 2C8     -0.089000
     34 H1         -0.0490    1.0000   -0.5690 hn        1 2C8      0.339500
     35 H2          4.2980    0.1470    1.1210 ha        1 2C8      0.160000
     36 H3          5.1220   -0.7000    3.3380 ha        1 2C8      0.141000
     37 H4          3.4950   -1.2610    5.1360 ha        1 2C8      0.138000
     38 H5          1.0520   -0.9930    4.7700 ha        1 2C8      0.150000
     39 H6         -2.2780   -0.1110    0.1770 hc        1 2C8      0.084700
     40 H7         -2.1840    1.5910    0.7950 hc        1 2C8      0.084700
     41 H8         -2.7240   -0.9360    2.5150 hc        1 2C8      0.086700
     42 H9         -2.6300    0.7680    3.1330 hc        1 2C8      0.086700
     43 H10        -4.8890   -0.2940    3.7270 hn        1 2C8      0.320500
     44 H11        -6.8880   -0.6020    4.8610 ha        1 2C8      0.157500
     45 H12        -9.3510   -0.4650    4.8540 ha        1 2C8      0.155000
     46 H13        -6.8200    0.8990    0.7600 ha        1 2C8      0.157500
     47 H14        -9.2780    1.0240    0.7860 ha        1 2C8      0.155000
     48 H15       -15.6230    0.4450    3.3080 ha        1 2C8      0.152000
     49 H16       -17.3750   -0.0820    4.9980 ha        1 2C8      0.139000
     50 H17       -16.7320   -0.9470    7.2490 ha        1 2C8      0.136000
     51 H18       -14.3250   -1.2860    7.8140 ha        1 2C8      0.139000
     52 H19       -12.5590   -0.7630    6.1300 ha        1 2C8      0.152000
@<TRIPOS>BOND
     1    1    2 1   
     2    1   11 1   
     3    1   34 1   
     4    2    3 2   
     5    2    4 1   
     6    4    5 ar  
     7    4    9 ar  
     8    5    6 ar  
     9    5   35 1   
    10    6    7 ar  
    11    6   36 1   
    12    7    8 ar  
    13    7   37 1   
    14    8    9 ar  
    15    8   38 1   
    16    9   10 1   
    17   10   11 2   
    18   11   12 1   
    19   12   13 1   
    20   12   39 1   
    21   12   40 1   
    22   13   14 1   
    23   13   41 1   
    24   13   42 1   
    25   14   15 2   
    26   14   16 1   
    27   16   17 1   
    28   16   43 1   
    29   17   18 ar  
    30   17   20 ar  
    31   18   19 ar  
    32   18   44 1   
    33   19   23 ar  
    34   19   45 1   
    35   20   21 ar  
    36   20   46 1   
    37   21   23 ar  
    38   21   47 1   
    39   22   23 1   
    40   22   24 2   
    41   22   28 1   
    42   24   25 1   
    43   25   26 2   
    44   26   27 1   
    45   26   28 1   
    46   27   29 ar  
    47   27   33 ar  
    48   29   30 ar  
    49   29   48 1   
    50   30   31 ar  
    51   30   49 1   
    52   31   32 ar  
    53   31   50 1   
    54   32   33 ar  
    55   32   51 1   
    56   33   52 1   
@<TRIPOS>SUBSTRUCTURE
     1 2C8         1 TEMP              0 ****  ****    0 ROOT
