@<TRIPOS>MOLECULE
2C8
   52    46     1     0     0
SMALL
bcc


@<TRIPOS>ATOM
      1 N1          6.0190   -0.6330   -1.2450 n3        1 2C8     -0.338000
      2 C1          7.4090   -0.4460   -1.2810 c1        1 2C8      0.346000
      3 O1          8.1360   -1.3580   -1.6210 o         1 2C8     -0.343000
      4 C2          7.9940    0.9090   -0.9710 c1        1 2C8     -0.168000
      5 C3          9.3870    1.0910   -0.9720 c1        1 2C8     -0.112000
      6 C4          9.9260    2.3310   -0.6530 c1        1 2C8     -0.112000
      7 C5          9.0870    3.3910   -0.3320 c1        1 2C8     -0.112000
      8 C6          7.7110    3.2120   -0.3300 c1        1 2C8     -0.112000
      9 C7          7.1650    1.9560   -0.6540 c1        1 2C8      0.044000
     10 N2          5.7200    1.7580   -0.6170 n2        1 2C8     -0.209000
     11 C8          5.1590    0.4590   -0.9150 c2        1 2C8      0.125000
     12 C9          3.6560    0.2800   -0.9680 c3        1 2C8     -0.117000
     13 C10         3.1200    0.0940    0.4360 c3        1 2C8     -0.173000
     14 C11         1.6180   -0.0970    0.3820 c2        1 2C8      0.308000
     15 O2          1.0600   -0.2210   -0.6900 o         1 2C8     -0.350000
     16 N3          0.8650   -0.1470    1.5840 n         1 2C8     -0.324000
     17 C12        -0.5430   -0.3430    1.5340 c2        1 2C8      0.103000
     18 C13        -1.3970    0.7460    1.6170 c2        1 2C8     -0.196000
     19 C14        -2.7710    0.5530    1.5880 c1        1 2C8     -0.053000
     20 C15        -1.0610   -1.6250    1.4220 c1        1 2C8     -0.167000
     21 C16        -2.4350   -1.8170    1.3930 c1        1 2C8     -0.065000
     22 C18        -4.7950   -0.9170    1.4750 c1        1 2C8      0.020000
     23 C17        -3.2890   -0.7280    1.4760 c1        1 2C8     -0.063000
     24 N4         -5.5630   -1.1460    2.5530 n2        1 2C8     -0.084500
     25 N5         -6.8470   -1.2480    2.1390 n2        1 2C8     -0.084500
     26 C19        -6.8670   -1.0820    0.8050 c1        1 2C8      0.020000
     27 C20        -8.0990   -1.0960   -0.0750 c1        1 2C8     -0.030000
     28 O3         -5.5980   -0.8780    0.3910 os        1 2C8     -0.133000
     29 C21        -8.8140    0.0700   -0.2960 c2        1 2C8     -0.083000
     30 C22        -9.9220    0.0560   -1.1280 c1        1 2C8     -0.138000
     31 C23       -10.3150   -1.1250   -1.7390 c1        1 2C8     -0.112000
     32 C24        -9.6000   -2.2910   -1.5180 c1        1 2C8     -0.112000
     33 C25        -8.4910   -2.2770   -0.6860 c1        1 2C8     -0.094000
     34 H1          5.6650   -1.4520   -1.4330 hn        1 2C8      0.252000
     35 H2          9.9770    0.3470   -1.1980 ha        1 2C8      0.144000
     36 H3         10.8940    2.4570   -0.6540 ha        1 2C8      0.144000
     37 H4          9.4660    4.2620   -0.1070 ha        1 2C8      0.144000
     38 H5          7.1220    3.9570   -0.1040 ha        1 2C8      0.144000
     39 H6          3.2470    1.0710   -1.3710 hc        1 2C8      0.124000
     40 H7          3.4400   -0.5080   -1.5060 hc        1 2C8      0.124000
     41 H8          3.5350   -0.6930    0.8420 hc        1 2C8      0.126000
     42 H9          3.3290    0.8850    0.9710 hc        1 2C8      0.126000
     43 H10         1.2820   -0.0390    2.3880 hn        1 2C8      0.235000
     44 H11        -1.0330    1.6470    1.6960 ha        1 2C8      0.137000
     45 H12        -3.3730    1.3190    1.6470 ha        1 2C8      0.160000
     46 H13        -0.4590   -2.3910    1.3640 ha        1 2C8      0.179000
     47 H14        -2.7990   -2.7190    1.3150 ha        1 2C8      0.151000
     48 H15        -8.5380    0.9010    0.1350 ha        1 2C8      0.158000
     49 H16       -10.4260    0.8770   -1.2840 ha        1 2C8      0.140000
     50 H17       -11.0960   -1.1340   -2.3260 ha        1 2C8      0.144000
     51 H18        -9.8760   -3.1220   -1.9490 ha        1 2C8      0.144000
     52 H19        -7.9870   -3.0980   -0.5300 ha        1 2C8      0.147000
@<TRIPOS>BOND
     1    1    2 1   
     2    1   11 1   
     3    1   34 1   
     4    2    3 1   
     5    4    9 1   
     6    5    6 1   
     7    5   35 1   
     8    6   36 1   
     9    7    8 1   
    10    7   37 1   
    11    8   38 1   
    12    9   10 1   
    13   10   11 1   
    14   11   12 1   
    15   12   13 1   
    16   12   39 1   
    17   12   40 1   
    18   13   14 1   
    19   13   41 1   
    20   13   42 1   
    21   14   15 1   
    22   14   16 1   
    23   16   17 1   
    24   16   43 1   
    25   17   18 1   
    26   17   20 1   
    27   18   19 1   
    28   18   44 1   
    29   19   45 1   
    30   20   46 1   
    31   21   23 1   
    32   21   47 1   
    33   22   24 1   
    34   22   28 1   
    35   24   25 1   
    36   25   26 1   
    37   26   28 1   
    38   27   29 1   
    39   27   33 1   
    40   29   30 1   
    41   29   48 1   
    42   30   49 1   
    43   31   32 1   
    44   31   50 1   
    45   32   51 1   
    46   33   52 1   
@<TRIPOS>SUBSTRUCTURE
     1 2C8         1 TEMP              0 ****  ****    0 ROOT
