@<TRIPOS>MOLECULE
2C8
   53    57     1     0     0
SMALL
bcc


@<TRIPOS>ATOM
      1 N1         -0.9890   -1.2750    0.4950 n         1 2C8     -0.498400
      2 C1         -0.1360   -0.3390   -0.1300 c         1 2C8      0.711100
      3 O1          0.3290   -0.6210   -1.2450 o         1 2C8     -0.588500
      4 C2          0.1190    0.9020    0.6220 ca        1 2C8     -0.177600
      5 C3          0.9530    1.8900    0.0860 ca        1 2C8     -0.054000
      6 C4          1.1880    3.0570    0.8030 ca        1 2C8     -0.133000
      7 C5          0.5930    3.2410    2.0570 ca        1 2C8     -0.087000
      8 C6         -0.2370    2.2730    2.6050 ca        1 2C8     -0.121000
      9 C7         -0.4910    1.0780    1.8940 ca        1 2C8      0.168400
     10 N2         -1.3290    0.0960    2.4430 nc        1 2C8     -0.646100
     11 C8         -1.5400   -1.0070    1.7500 cd        1 2C8      0.479900
     12 C9         -2.4420   -2.0970    2.3090 c3        1 2C8     -0.118700
     13 C10        -2.9950   -1.7350    3.6750 c3        1 2C8     -0.137400
     14 C11        -3.8520   -2.8440    4.2010 c         1 2C8      0.553100
     15 O2         -4.0150   -3.9770    3.7800 o         1 2C8     -0.408100
     16 N3         -4.6300   -2.5190    5.4750 n4        1 2C8     -0.550200
     17 C12        -5.7920   -1.6720    5.1930 ca        1 2C8     -0.070400
     18 C13        -7.0060   -2.2670    4.8040 ca        1 2C8     -0.100500
     19 C14        -8.1090   -1.4590    4.5490 ca        1 2C8     -0.085500
     20 C15        -5.6870   -0.2750    5.3260 ca        1 2C8     -0.100500
     21 C16        -6.7970    0.5210    5.0680 ca        1 2C8     -0.085500
     22 C18        -9.1550    0.7770    4.4130 cc        1 2C8      0.424900
     23 C17        -8.0140   -0.0640    4.6780 ca        1 2C8     -0.034500
     24 N4         -9.3180    2.1220    4.4530 nd        1 2C8     -0.281000
     25 N5        -10.5530    2.4190    4.1280 nd        1 2C8     -0.347000
     26 C19       -11.2390    1.2720    3.8650 cc        1 2C8      0.584900
     27 C20       -12.6070    1.0290    3.4700 ca        1 2C8     -0.176500
     28 O3        -10.3750    0.1790    4.0360 os        1 2C8     -0.381800
     29 C21       -13.4780    2.1170    3.2940 ca        1 2C8     -0.073500
     30 C22       -14.7990    1.8840    2.9130 ca        1 2C8     -0.136500
     31 C23       -15.2540    0.5820    2.7070 ca        1 2C8     -0.081000
     32 C24       -14.3870   -0.4990    2.8820 ca        1 2C8     -0.136500
     33 C25       -13.0660   -0.2810    3.2620 ca        1 2C8     -0.073500
     34 H1         -1.1890   -2.1310    0.0280 hn        1 2C8      0.340500
     35 H2          1.4130    1.7260   -0.9030 ha        1 2C8      0.169000
     36 H3          1.8430    3.8370    0.3860 ha        1 2C8      0.154000
     37 H4          0.7870    4.1700    2.6170 ha        1 2C8      0.148000
     38 H5         -0.6960    2.4340    3.5920 ha        1 2C8      0.146000
     39 H6         -1.8540   -3.0530    2.3810 hc        1 2C8      0.088200
     40 H7         -3.2900   -2.2680    1.5910 hc        1 2C8      0.088200
     41 H8         -3.6000   -0.7860    3.6120 hc        1 2C8      0.122200
     42 H9         -2.1510   -1.5570    4.4010 hc        1 2C8      0.122200
     43 H10        -4.0120   -2.0330    6.1340 hn        1 2C8      0.463800
     44 H11        -7.1020   -3.3610    4.6980 ha        1 2C8      0.161500
     45 H12        -9.0660   -1.9170    4.2450 ha        1 2C8      0.189000
     46 H13        -4.7440    0.2050    5.6360 ha        1 2C8      0.161500
     47 H14        -6.7180    1.6190    5.1740 ha        1 2C8      0.189000
     48 H15       -13.1240    3.1470    3.4560 ha        1 2C8      0.151500
     49 H16       -15.4830    2.7360    2.7750 ha        1 2C8      0.150500
     50 H17       -16.2990    0.4050    2.4070 ha        1 2C8      0.150000
     51 H18       -14.7480   -1.5260    2.7200 ha        1 2C8      0.150500
     52 H19       -12.3800   -1.1310    3.4010 ha        1 2C8      0.151500
     53 H32        -4.9570   -3.3960    5.9050 hn        1 2C8      0.463800
@<TRIPOS>BOND
     1    1    2 1   
     2    1   11 1   
     3    1   34 1   
     4    2    3 2   
     5    2    4 1   
     6    4    5 ar  
     7    4    9 ar  
     8    5    6 ar  
     9    5   35 1   
    10    6    7 ar  
    11    6   36 1   
    12    7    8 ar  
    13    7   37 1   
    14    8    9 ar  
    15    8   38 1   
    16    9   10 1   
    17   10   11 2   
    18   11   12 1   
    19   12   13 1   
    20   12   39 1   
    21   12   40 1   
    22   13   14 1   
    23   13   41 1   
    24   13   42 1   
    25   14   15 2   
    26   14   16 1   
    27   16   17 1   
    28   16   43 1   
    29   16   53 1   
    30   17   18 ar  
    31   17   20 ar  
    32   18   19 ar  
    33   18   44 1   
    34   19   23 ar  
    35   19   45 1   
    36   20   21 ar  
    37   20   46 1   
    38   21   23 ar  
    39   21   47 1   
    40   22   23 1   
    41   22   24 2   
    42   22   28 1   
    43   24   25 1   
    44   25   26 2   
    45   26   27 1   
    46   26   28 1   
    47   27   29 ar  
    48   27   33 ar  
    49   29   30 ar  
    50   29   48 1   
    51   30   31 ar  
    52   30   49 1   
    53   31   32 ar  
    54   31   50 1   
    55   32   33 ar  
    56   32   51 1   
    57   33   52 1   
@<TRIPOS>SUBSTRUCTURE
     1 2C8         1 TEMP              0 ****  ****    0 ROOT
