@<TRIPOS>MOLECULE
2C9
   21    21     1     0     0
SMALL
bcc


@<TRIPOS>ATOM
      1 CAA         0.0000   -0.0620    0.0190 c3        1 2C9     -0.124800
      2 CAG         1.4820   -0.0250   -0.0190 ca        1 2C9      0.023700
      3 CAE         2.1880   -0.0020    1.2030 ca        1 2C9     -0.054000
      4 CAD         3.5720    0.0320    1.2290 ca        1 2C9     -0.041000
      5 CAF         4.3000    0.0440    0.0300 ca        1 2C9     -0.062000
      6 CAH         3.6340    0.0220   -1.1990 ca        1 2C9     -0.044400
      7 NAB         4.4480    0.0370   -2.4160 n4        1 2C9     -0.719000
      8 CAI         2.2040   -0.0130   -1.2300 ca        1 2C9     -0.066400
      9 NAC         1.4650   -0.0370   -2.4920 n4        1 2C9     -0.717000
     10 H1         -0.3730   -0.0660    1.0800 hc        1 2C9      0.100033
     11 H2         -0.3990   -0.9910   -0.4640 hc        1 2C9      0.100033
     12 H3         -0.4440    0.8430   -0.4720 hc        1 2C9      0.100033
     13 H4          1.6150   -0.0120    2.1530 ha        1 2C9      0.214000
     14 H5          4.1170    0.0500    2.1950 ha        1 2C9      0.218000
     15 H6          5.4070    0.0720    0.0910 ha        1 2C9      0.196000
     16 H7          4.2510    0.8720   -2.9820 hn        1 2C9      0.480133
     17 H8          4.2930   -0.8130   -2.9740 hn        1 2C9      0.480133
     18 H9          0.4460   -0.0610   -2.2970 hn        1 2C9      0.478467
     19 H10         1.6570    0.8080   -3.0440 hn        1 2C9      0.478467
     20 HAB3        5.4510    0.0630   -2.1560 hn        1 2C9      0.480133
     21 HAC3        1.6980   -0.8770   -3.0360 hn        1 2C9      0.478467
@<TRIPOS>BOND
     1    1    2 1   
     2    1   10 1   
     3    1   11 1   
     4    1   12 1   
     5    2    3 ar  
     6    2    8 ar  
     7    3    4 ar  
     8    3   13 1   
     9    4    5 ar  
    10    4   14 1   
    11    5    6 ar  
    12    5   15 1   
    13    6    7 1   
    14    6    8 ar  
    15    7   16 1   
    16    7   17 1   
    17    7   20 1   
    18    8    9 1   
    19    9   18 1   
    20    9   19 1   
    21    9   21 1   
@<TRIPOS>SUBSTRUCTURE
     1 2C9         1 TEMP              0 ****  ****    0 ROOT
