@<TRIPOS>MOLECULE
2C9
   19    19     1     0     0
SMALL
bcc


@<TRIPOS>ATOM
      1 CAA         0.0190   -0.2500    0.0130 c3        1 2C9     -0.051800
      2 CAG         1.4940   -0.0910   -0.0290 ca        1 2C9     -0.109300
      3 CAE         2.1970    0.0060    1.1740 ca        1 2C9     -0.130000
      4 CAD         3.5780    0.1540    1.1800 ca        1 2C9     -0.131000
      5 CAF         4.2760    0.2230   -0.0200 ca        1 2C9     -0.164000
      6 CAH         3.6070    0.1360   -1.2560 ca        1 2C9      0.080600
      7 NAB         4.3400    0.1300   -2.4610 nv        1 2C9     -0.803200
      8 CAI         2.1820   -0.0350   -1.2650 ca        1 2C9      0.087600
      9 NAC         1.4850   -0.0560   -2.4890 nv        1 2C9     -0.805200
     10 H1         -0.2930   -1.1960   -0.4980 hc        1 2C9      0.041700
     11 H2         -0.3480   -0.2940    1.0680 hc        1 2C9      0.041700
     12 H3         -0.4870    0.6100   -0.4930 hc        1 2C9      0.041700
     13 H4          1.6470   -0.0390    2.1260 ha        1 2C9      0.130000
     14 H5          4.1220    0.2210    2.1330 ha        1 2C9      0.130000
     15 H6          5.3700    0.3450    0.0030 ha        1 2C9      0.128000
     16 H7          3.9330    0.7120   -3.1650 hn        1 2C9      0.376800
     17 H8          5.3010    0.3640   -2.3200 hn        1 2C9      0.376800
     18 H9          1.9350   -0.6190   -3.1820 hn        1 2C9      0.379300
     19 H10         0.5270   -0.3190   -2.3870 hn        1 2C9      0.379300
@<TRIPOS>BOND
     1    1    2 1   
     2    1   10 1   
     3    1   11 1   
     4    1   12 1   
     5    2    3 ar  
     6    2    8 ar  
     7    3    4 ar  
     8    3   13 1   
     9    4    5 ar  
    10    4   14 1   
    11    5    6 ar  
    12    5   15 1   
    13    6    7 1   
    14    6    8 ar  
    15    7   16 1   
    16    7   17 1   
    17    8    9 1   
    18    9   18 1   
    19    9   19 1   
@<TRIPOS>SUBSTRUCTURE
     1 2C9         1 TEMP              0 ****  ****    0 ROOT
