@<TRIPOS>MOLECULE
2C9
   19    19     1     0     0
SMALL
bcc


@<TRIPOS>ATOM
      1 CAA         0.0250   -0.3010    0.0120 c3        1 2C9     -0.051800
      2 CAG         1.4960   -0.1130   -0.0300 ca        1 2C9     -0.109300
      3 CAE         2.1980   -0.0120    1.1740 ca        1 2C9     -0.130000
      4 CAD         3.5760    0.1620    1.1800 ca        1 2C9     -0.131000
      5 CAF         4.2720    0.2550   -0.0190 ca        1 2C9     -0.164000
      6 CAH         3.6040    0.1650   -1.2550 ca        1 2C9      0.080600
      7 NAB         4.3360    0.1840   -2.4610 nh        1 2C9     -0.803200
      8 CAI         2.1830   -0.0320   -1.2650 ca        1 2C9      0.088600
      9 NAC         1.4850   -0.0570   -2.4890 nh        1 2C9     -0.805200
     10 H1         -0.3410   -0.3610    1.0670 hc        1 2C9      0.041700
     11 H2         -0.4980    0.5540   -0.4860 hc        1 2C9      0.041700
     12 H3         -0.2690   -1.2480   -0.5070 hc        1 2C9      0.041700
     13 H4          1.6500   -0.0760    2.1260 ha        1 2C9      0.130000
     14 H5          4.1200    0.2320    2.1330 ha        1 2C9      0.130000
     15 H6          5.3640    0.3980    0.0040 ha        1 2C9      0.128000
     16 H7          3.9170    0.7640   -3.1590 hn        1 2C9      0.376800
     17 H8          5.2930    0.4350   -2.3190 hn        1 2C9      0.376800
     18 H9          1.9460   -0.6050   -3.1870 hn        1 2C9      0.379300
     19 H10         0.5320   -0.3400   -2.3890 hn        1 2C9      0.379300
@<TRIPOS>BOND
     1    1    2 1   
     2    1   10 1   
     3    1   11 1   
     4    1   12 1   
     5    2    3 ar  
     6    2    8 ar  
     7    3    4 ar  
     8    3   13 1   
     9    4    5 ar  
    10    4   14 1   
    11    5    6 ar  
    12    5   15 1   
    13    6    7 1   
    14    6    8 ar  
    15    7   16 1   
    16    7   17 1   
    17    8    9 1   
    18    9   18 1   
    19    9   19 1   
@<TRIPOS>SUBSTRUCTURE
     1 2C9         1 TEMP              0 ****  ****    0 ROOT
