@<TRIPOS>MOLECULE
2CA
   67    64     1     0     0
SMALL
bcc


@<TRIPOS>ATOM
      1 S1         -1.6770   -1.6750    0.3470 s6        1 2CA      2.835000
      2 O1         -0.5860   -2.0870   -0.4240 o         1 2CA     -0.928500
      3 O2         -2.1850   -2.6270    1.2550 o         1 2CA     -0.928500
      4 O5         -4.1990   -8.7220    3.8800 o         1 2CA     -0.286000
      5 O6         -4.6360   -5.9050    6.0330 os        1 2CA     -0.095000
      6 N2         -1.2060   -5.6850   -1.3700 n         1 2CA     -0.341000
      7 N3         -3.3690   -5.4820    1.4150 n2        1 2CA     -0.204000
      8 N4         -0.6970    0.8290    0.5650 n3        1 2CA     -0.121000
      9 C8         -2.2930   -5.0970   -0.7650 c2        1 2CA      0.295000
     10 C9         -3.0960   -5.9130    0.2430 c2        1 2CA     -0.017000
     11 C10        -3.5970   -7.2340   -0.2810 c3        1 2CA     -0.129000
     12 C11        -3.1330   -8.4220    0.5520 c3        1 2CA     -0.109000
     13 C12        -3.7870   -9.6860    0.0320 c3        1 2CA     -0.211500
     14 C13        -1.6260   -8.5630    0.5280 c3        1 2CA     -0.211500
     15 C15        -4.4620   -7.2610    5.7100 c2        1 2CA     -0.137000
     16 C16        -4.4300   -8.0220    6.8660 c2        1 2CA     -0.103000
     17 C17        -4.6080   -7.4890    9.3980 c3        1 2CA     -0.187000
     18 C18        -3.3530   -7.7880   10.0550 c1        1 2CA     -0.046000
     19 C19        -4.9650   -3.3650    7.4180 c1        1 2CA      0.272000
     20 C20        -4.8960   -4.5460    8.0090 c2        1 2CA     -0.439000
     21 C21        -4.7130   -5.8400    7.4280 c2        1 2CA      0.079000
     22 C22        -4.5880   -7.1130    7.9770 c2        1 2CA     -0.187000
     23 C23        -1.2780   -0.2730    1.2470 c2        1 2CA     -0.694000
     24 C24        -1.4550   -0.2540    2.5870 c2        1 2CA     -0.052000
     25 C25         1.1820    3.8320    0.2790 c1        1 2CA     -0.178000
     26 C26         0.6110    2.8310    0.6210 c1        1 2CA     -0.185000
     27 C27         0.0300    1.7080    1.2270 c1        1 2CA     -0.025000
     28 C01        -0.2210   -4.8930   -2.0860 c3        1 2CA     -0.127000
     29 C02         1.1580   -5.2770   -1.7550 c1        1 2CA     -0.029000
     30 C03         2.5380   -3.4720   -0.1810 c3        1 2CA     -0.290000
     31 C04        -2.7500   -0.0210   -1.2650 c1        1 2CA     -0.157000
     32 N05        -2.9390   -1.1440   -0.6270 n3        1 2CA     -0.645000
     33 C06        -1.3580   -5.8480   -4.0870 c1        1 2CA     -0.008000
     34 C07        -0.4520   -4.8760   -3.6170 c2        1 2CA      0.160000
     35 HN2        -0.8630   -6.5420   -0.9820 hn        1 2CA      0.252000
     36 HN3        -4.4240   -6.6930    3.6050 h4        1 2CA      0.141000
     37 HC9        -3.0170   -4.5790    1.6670 hn        1 2CA      0.198000
     38 H101       -3.2700   -7.3750   -1.3440 hc        1 2CA      0.100000
     39 H102       -4.7210   -7.2090   -0.2810 hc        1 2CA      0.100000
     40 H11        -1.1390   -7.6510    0.9500 hc        1 2CA      0.076167
     41 H121       -3.4890   -9.8800   -1.0260 hc        1 2CA      0.076167
     42 H122       -4.8990   -9.5980    0.0780 hc        1 2CA      0.076167
     43 H123       -3.4630   -8.2670    1.6220 hc        1 2CA      0.123000
     44 H131       -3.4760  -10.5590    0.6540 hc        1 2CA      0.076167
     45 H132       -1.3160   -9.4420    1.1450 hc        1 2CA      0.076167
     46 H133       -1.2580   -8.7210   -0.5150 hc        1 2CA      0.076167
     47 H16        -4.3100   -9.1020    6.9320 ha        1 2CA      0.176000
     48 H17        -5.2470   -8.4180    9.5390 hc        1 2CA      0.153500
     49 H18        -5.1130   -6.6820   10.0110 hc        1 2CA      0.153500
     50 H19        -2.4430   -7.7830    9.4370 ha        1 2CA      0.049000
     51 H20        -4.9900   -4.5530    9.1200 ha        1 2CA      0.207000
     52 H24        -1.8890   -1.1170    3.1180 ha        1 2CA      0.159000
     53 H25        -1.1510    0.6040    3.2090 ha        1 2CA      0.159000
     54 H26         1.6910    4.7160   -0.0090 ha        1 2CA      0.220000
     55 H27        -0.9460    0.8850   -0.4140 hn        1 2CA      0.231000
     56 H01        -0.3210   -3.7900   -1.7600 h1        1 2CA      0.222000
     57 H021        1.9280   -4.8620   -2.4220 ha        1 2CA      0.086000
     58 H022        2.4470   -4.5500    0.0820 hc        1 2CA      0.075250
     59 H031        1.5570   -3.0840   -0.5410 hc        1 2CA      0.075250
     60 H032        2.8460   -2.8990    0.7210 hc        1 2CA      0.075250
     61 H041       -3.5110    0.3500   -1.9730 ha        1 2CA      0.088000
     62 H042        3.3040   -3.3440   -0.9770 hc        1 2CA      0.075250
     63 H061       -3.7310   -1.7500   -0.7480 hn        1 2CA      0.221000
     64 H062       -2.4240   -5.7400   -4.2620 ha        1 2CA      0.141000
     65 O08         0.2720   -4.1520   -4.3240 o         1 2CA     -0.316000
     66 C14        -4.3550   -7.5690    4.2880 c2        1 2CA      0.249000
     67 O4         -2.6450   -3.9260   -1.0450 o         1 2CA     -0.441000
@<TRIPOS>BOND
     1    1    2 1   
     2    1    3 1   
     3    1   23 1   
     4    1   32 1   
     5    4   66 1   
     6    5   15 1   
     7    5   21 1   
     8    6    9 1   
     9    6   28 1   
    10    6   35 1   
    11    7   10 1   
    12    7   37 1   
    13    8   23 1   
    14    8   27 1   
    15    8   55 1   
    16    9   10 1   
    17    9   67 1   
    18   10   11 1   
    19   11   12 1   
    20   11   38 1   
    21   11   39 1   
    22   12   13 1   
    23   12   14 1   
    24   12   43 1   
    25   13   41 1   
    26   13   42 1   
    27   13   44 1   
    28   14   40 1   
    29   14   45 1   
    30   14   46 1   
    31   15   16 1   
    32   15   66 1   
    33   16   22 1   
    34   16   47 1   
    35   17   18 1   
    36   17   22 1   
    37   17   48 1   
    38   17   49 1   
    39   18   50 1   
    40   19   20 1   
    41   20   21 1   
    42   20   51 1   
    43   21   22 1   
    44   23   24 1   
    45   24   52 1   
    46   24   53 1   
    47   25   26 1   
    48   25   54 1   
    49   26   27 1   
    50   28   29 1   
    51   28   34 1   
    52   28   56 1   
    53   29   57 1   
    54   30   58 1   
    55   30   59 1   
    56   30   60 1   
    57   30   62 1   
    58   31   32 1   
    59   31   61 1   
    60   32   63 1   
    61   33   34 1   
    62   33   64 1   
    63   34   65 1   
    64   36   66 1   
@<TRIPOS>SUBSTRUCTURE
     1 2CA         1 TEMP              0 ****  ****    0 ROOT
