@<TRIPOS>MOLECULE
2CA
   67    70     1     0     0
SMALL
bcc


@<TRIPOS>ATOM
      1 S1         -4.7120   -1.1960   -0.6740 sy        1 2CA      1.429800
      2 O1         -4.5450   -2.3900    0.0410 o         1 2CA     -0.638800
      3 O2         -4.2150   -1.1690   -1.9950 o         1 2CA     -0.638800
      4 O5          4.3880    2.1230    1.2920 o         1 2CA     -0.608100
      5 O6          5.3870   -1.1940    0.2420 os        1 2CA     -0.198200
      6 N2         -0.0350    1.5640    0.3100 n         1 2CA     -0.561900
      7 N3          3.4390    0.7450   -0.2870 n         1 2CA     -0.542900
      8 N4         -7.0950   -0.6160    0.3450 nb        1 2CA     -0.601000
      9 C8          0.9830    0.8490   -0.2820 c         1 2CA      0.639100
     10 C9          2.3140    1.6090   -0.5350 c3        1 2CA      0.042700
     11 C10         2.2320    2.1320   -1.9790 c3        1 2CA     -0.086400
     12 C11         3.4330    2.9670   -2.3930 c3        1 2CA     -0.064700
     13 C12         3.2610    3.4100   -3.8330 c3        1 2CA     -0.097100
     14 C13         3.6250    4.1700   -1.4930 c3        1 2CA     -0.097100
     15 C15         5.4390    0.0390    0.9340 cc        1 2CA     -0.048100
     16 C16         6.5200    0.1030    1.7860 cd        1 2CA     -0.078200
     17 C17         8.3700   -1.7140    2.2250 ca        1 2CA     -0.070000
     18 C18         8.7450   -2.9960    1.8320 ca        1 2CA     -0.153000
     19 C19         8.0040   -3.7240    0.8880 ca        1 2CA     -0.099000
     20 C20         6.8570   -3.2000    0.2970 ca        1 2CA     -0.126000
     21 C21         6.4890   -1.9170    0.6950 ca        1 2CA      0.080100
     22 C22         7.2280   -1.1570    1.6550 ca        1 2CA     -0.127800
     23 C23        -6.4090   -0.8610   -0.8000 ca        1 2CA      0.132200
     24 C24        -7.0360   -0.8930   -2.0570 ca        1 2CA     -0.140300
     25 C25        -8.4160   -0.6740   -2.1370 ca        1 2CA     -0.113000
     26 C26        -9.1250   -0.4290   -0.9660 ca        1 2CA     -0.189300
     27 C27        -8.4150   -0.4080    0.2560 ca        1 2CA      0.379200
     28 C01        -1.3560    1.0150    0.5090 c3        1 2CA      0.016700
     29 C02        -1.6890    0.7990    2.0000 c3        1 2CA     -0.086400
     30 C03        -2.7240   -0.2810    2.2010 c3        1 2CA     -0.102400
     31 C04        -4.0900    0.0570    1.6040 c3        1 2CA      0.217800
     32 N05        -4.1350    0.0720    0.1630 n3        1 2CA     -0.798500
     33 C06        -3.7640    1.2940   -0.4870 c3        1 2CA      0.121800
     34 C07        -2.4400    1.9190   -0.0780 c         1 2CA      0.549100
     35 HN2         0.0800    2.5340    0.4900 hn        1 2CA      0.326500
     36 HN3         3.4100   -0.1630   -0.6950 hn        1 2CA      0.342500
     37 HC9         2.3950    2.4970    0.1650 h1        1 2CA      0.102700
     38 H101        1.3020    2.7560   -2.0570 hc        1 2CA      0.057200
     39 H102        2.1240    1.2660   -2.6840 hc        1 2CA      0.057200
     40 H11         4.3580    2.3270   -2.3310 hc        1 2CA      0.056700
     41 H121        4.1600    3.9800   -4.1700 hc        1 2CA      0.038033
     42 H122        3.1310    2.5250   -4.5020 hc        1 2CA      0.038033
     43 H123        2.3650    4.0680   -3.9380 hc        1 2CA      0.038033
     44 H131        2.6790    4.7580   -1.4110 hc        1 2CA      0.038033
     45 H132        3.9380    3.8480   -0.4680 hc        1 2CA      0.038033
     46 H133        4.4190    4.8370   -1.9080 hc        1 2CA      0.038033
     47 H16         6.7930    0.9340    2.4330 ha        1 2CA      0.182000
     48 H17         8.9580   -1.1530    2.9660 ha        1 2CA      0.143000
     49 H18         9.6450   -3.4540    2.2710 ha        1 2CA      0.137000
     50 H19         8.3380   -4.7350    0.6080 ha        1 2CA      0.138000
     51 H20         6.2700   -3.7610   -0.4410 ha        1 2CA      0.155000
     52 H24        -6.4400   -1.0890   -2.9650 ha        1 2CA      0.174000
     53 H25        -8.9260   -0.6980   -3.1120 ha        1 2CA      0.149000
     54 H26       -10.2100   -0.2540   -0.9770 ha        1 2CA      0.150000
     55 H27        -8.9380   -0.2160    1.2100 h4        1 2CA      0.030100
     56 H01        -1.3910    0.0130   -0.0200 h1        1 2CA      0.112700
     57 H021       -0.7560    0.4980    2.5490 hc        1 2CA      0.058200
     58 H022       -2.0420    1.7640    2.4480 hc        1 2CA      0.058200
     59 H031       -2.3500   -1.2530    1.7810 hc        1 2CA      0.064200
     60 H032       -2.8740   -0.4310    3.3040 hc        1 2CA      0.064200
     61 H041       -4.8270   -0.7190    1.9690 h1        1 2CA      0.064700
     62 H042       -4.4230    1.0600    1.9970 h1        1 2CA      0.064700
     63 H061       -3.6900    1.1130   -1.6040 h1        1 2CA      0.085700
     64 H062       -4.5650    2.0750   -0.3130 h1        1 2CA      0.085700
     65 O08        -2.2780    3.1330   -0.2400 o         1 2CA     -0.530100
     66 C14         4.3850    1.0370    0.6730 c         1 2CA      0.705300
     67 O4          0.8470   -0.3470   -0.6050 o         1 2CA     -0.606100
@<TRIPOS>BOND
     1    1    2 2   
     2    1    3 2   
     3    1   23 1   
     4    1   32 1   
     5    4   66 2   
     6    5   15 1   
     7    5   21 1   
     8    6    9 1   
     9    6   28 1   
    10    6   35 1   
    11    7   10 1   
    12    7   36 1   
    13    7   66 1   
    14    8   23 ar  
    15    8   27 ar  
    16    9   10 1   
    17    9   67 2   
    18   10   11 1   
    19   10   37 1   
    20   11   12 1   
    21   11   38 1   
    22   11   39 1   
    23   12   13 1   
    24   12   14 1   
    25   12   40 1   
    26   13   41 1   
    27   13   42 1   
    28   13   43 1   
    29   14   44 1   
    30   14   45 1   
    31   14   46 1   
    32   15   16 2   
    33   15   66 1   
    34   16   22 1   
    35   16   47 1   
    36   17   18 ar  
    37   17   22 ar  
    38   17   48 1   
    39   18   19 ar  
    40   18   49 1   
    41   19   20 ar  
    42   19   50 1   
    43   20   21 ar  
    44   20   51 1   
    45   21   22 ar  
    46   23   24 ar  
    47   24   25 ar  
    48   24   52 1   
    49   25   26 ar  
    50   25   53 1   
    51   26   27 ar  
    52   26   54 1   
    53   27   55 1   
    54   28   29 1   
    55   28   34 1   
    56   28   56 1   
    57   29   30 1   
    58   29   57 1   
    59   29   58 1   
    60   30   31 1   
    61   30   59 1   
    62   30   60 1   
    63   31   32 1   
    64   31   61 1   
    65   31   62 1   
    66   32   33 1   
    67   33   34 1   
    68   33   63 1   
    69   33   64 1   
    70   34   65 2   
@<TRIPOS>SUBSTRUCTURE
     1 2CA         1 TEMP              0 ****  ****    0 ROOT
