@<TRIPOS>MOLECULE
2CA
   69    66     1     0     0
SMALL
bcc


@<TRIPOS>ATOM
      1 S1         -2.1300    0.5740   -2.4390 s6        1 2CA      2.824000
      2 O1         -2.9900   -0.5270   -2.3840 o         1 2CA     -0.895000
      3 O2         -2.6700    1.8500   -2.5310 o         1 2CA     -0.895000
      4 O5          0.1160   -7.0380    3.5930 o         1 2CA     -0.230000
      5 O6         -2.5710   -7.3930    5.9930 os        1 2CA     -0.125000
      6 N2         -0.3660   -5.0900    0.4550 ns        1 2CA     -0.199000
      7 N3         -2.1430   -6.4480    3.4300 ny        1 2CA     -0.106000
      8 N4         -0.5530   -0.7590   -0.7440 n7        1 2CA     -0.109000
      9 C8         -1.2290   -5.0480    1.5750 c2        1 2CA      0.334000
     10 C9         -1.9320   -6.3740    1.9470 c3        1 2CA     -0.091000
     11 C10        -3.2520   -6.4450    1.1710 c3        1 2CA     -0.201000
     12 C11        -3.8320   -7.8530    1.1200 c3        1 2CA     -0.109000
     13 C12        -5.2890   -7.7780    0.7040 c3        1 2CA     -0.219000
     14 C13        -3.0620   -8.7360    0.1600 c3        1 2CA     -0.219000
     15 C15        -1.2440   -7.4760    5.5120 c2        1 2CA     -0.240000
     16 C16        -0.4130   -8.0320    6.4980 c2        1 2CA      0.040000
     17 C17        -7.2140   -8.2280   10.3980 c1        1 2CA      0.086000
     18 C18        -8.1970   -8.3830   11.2270 c2        1 2CA     -0.487000
     19 C19        -4.7500   -7.9970    8.6360 c1        1 2CA      0.011000
     20 C20        -3.7350   -7.9460    7.9920 c1        1 2CA     -0.276000
     21 C21        -2.5410   -7.9110    7.2930 c2        1 2CA      0.264000
     22 C22        -1.2360   -8.3060    7.6250 c2        1 2CA     -0.214000
     23 C23        -1.0950    0.5200   -1.0490 c2        1 2CA     -0.757000
     24 C24        -0.8220    1.6390   -0.3470 c2        1 2CA     -0.016000
     25 C25        -1.1400   -1.4990    2.8110 c1        1 2CA      0.421000
     26 C26        -1.0960   -0.8730    1.6380 c2        1 2CA     -0.556000
     27 C27        -0.5800   -1.3930    0.4060 c2        1 2CA      0.077000
     28 C01         0.1770   -3.9960   -0.0680 c1        1 2CA     -0.032000
     29 C02         1.0520   -4.0670   -1.2620 c3        1 2CA     -0.216000
     30 C03         2.3160   -3.2690   -1.0310 c3        1 2CA     -0.202000
     31 C04        -0.1390   -0.5930   -3.4940 c1        1 2CA     -0.185000
     32 N05        -1.0170    0.3560   -3.6850 n7        1 2CA     -0.649000
     33 C06        -4.4120   -4.1420   -2.7950 c1        1 2CA     -0.139000
     34 C07        -3.5030   -3.7050   -1.9250 c2        1 2CA      0.168000
     35 HN2        -0.2490   -5.9970    0.0320 hn        1 2CA      0.231000
     36 HN3        -2.3280   -5.5030    3.8000 hn        1 2CA      0.273000
     37 HC9        -2.9710   -7.0300    3.6210 hn        1 2CA      0.273000
     38 H101       -3.0580   -6.0830    0.1190 hc        1 2CA      0.143000
     39 H102       -4.0000   -5.7360    1.6180 hc        1 2CA      0.143000
     40 H11        -1.9950   -8.8420    0.4730 hc        1 2CA      0.091333
     41 H121       -5.8810   -7.1820    1.4390 hc        1 2CA      0.091333
     42 H122       -5.3850   -7.3020   -0.3020 hc        1 2CA      0.091333
     43 H123       -3.7870   -8.3190    2.1450 hc        1 2CA      0.072000
     44 H131       -3.5190   -9.7570    0.1340 hc        1 2CA      0.091333
     45 H132       -3.0910   -8.3150   -0.8740 hc        1 2CA      0.091333
     46 H133       -5.7220   -8.8070    0.6500 hc        1 2CA      0.091333
     47 H16         0.6610   -8.2180    6.4100 ha        1 2CA      0.202000
     48 H17        -0.9170   -8.7430    8.5730 ha        1 2CA      0.211000
     49 H18        -8.8290   -9.2890   11.2750 ha        1 2CA      0.216500
     50 H19        -8.5020   -7.6280   11.9750 ha        1 2CA      0.216500
     51 H20        -5.6620   -8.0510    9.2320 ha        1 2CA      0.307000
     52 H24        -1.2620    2.6120   -0.6390 ha        1 2CA      0.171000
     53 H25        -0.1660    1.6670    0.5380 ha        1 2CA      0.171000
     54 H26        -1.5230    0.1610    1.6580 ha        1 2CA      0.211000
     55 H27        -0.1410   -1.2160   -1.5740 hn        1 2CA      0.315000
     56 H01        -0.1740   -2.5720    0.3710 h4        1 2CA      0.326000
     57 H021        1.3240   -5.1100   -1.5830 hc        1 2CA      0.124000
     58 H022        0.4590   -3.6100   -2.1070 hc        1 2CA      0.124000
     59 H031        2.0760   -2.2160   -0.7470 hc        1 2CA      0.094667
     60 H032        2.9320   -3.7250   -0.2180 hc        1 2CA      0.094667
     61 H041        0.6090   -0.8400   -4.2660 ha        1 2CA      0.123000
     62 H042        2.9260   -3.2580   -1.9680 hc        1 2CA      0.094667
     63 H061       -1.0650    0.9250   -4.5120 hn        1 2CA      0.238000
     64 H062       -5.1410   -4.3100   -3.5550 ha        1 2CA      0.251000
     65 O08        -2.6860   -4.2780   -1.1570 o         1 2CA     -0.480000
     66 O4         -1.4250   -4.0230    2.2370 o         1 2CA     -0.288000
     67 H22        -3.5720   -2.5630   -1.9550 h4        1 2CA      0.201000
     68 H32        -1.2810   -7.2600    1.6680 hx        1 2CA      0.179000
     69 C14        -0.9540   -7.0280    4.1960 c2        1 2CA      0.353000
@<TRIPOS>BOND
     1    1    2 1   
     2    1    3 1   
     3    1   23 1   
     4    1   32 1   
     5    4   69 1   
     6    5   15 1   
     7    5   21 1   
     8    6    9 1   
     9    6   28 1   
    10    6   35 1   
    11    7   10 1   
    12    7   36 1   
    13    7   37 1   
    14    7   69 1   
    15    8   23 1   
    16    8   27 1   
    17    8   55 1   
    18    9   10 1   
    19    9   66 1   
    20   10   11 1   
    21   10   68 1   
    22   11   12 1   
    23   11   38 1   
    24   11   39 1   
    25   12   13 1   
    26   12   14 1   
    27   12   43 1   
    28   13   41 1   
    29   13   42 1   
    30   13   46 1   
    31   14   40 1   
    32   14   44 1   
    33   14   45 1   
    34   15   16 1   
    35   15   69 1   
    36   16   22 1   
    37   16   47 1   
    38   17   18 1   
    39   18   49 1   
    40   18   50 1   
    41   19   20 1   
    42   19   51 1   
    43   20   21 1   
    44   21   22 1   
    45   22   48 1   
    46   23   24 1   
    47   24   52 1   
    48   24   53 1   
    49   25   26 1   
    50   26   27 1   
    51   26   54 1   
    52   27   56 1   
    53   28   29 1   
    54   29   30 1   
    55   29   57 1   
    56   29   58 1   
    57   30   59 1   
    58   30   60 1   
    59   30   62 1   
    60   31   32 1   
    61   31   61 1   
    62   32   63 1   
    63   33   34 1   
    64   33   64 1   
    65   34   65 1   
    66   34   67 1   
@<TRIPOS>SUBSTRUCTURE
     1 2CA         1 TEMP              0 ****  ****    0 ROOT
