@<TRIPOS>MOLECULE
2CA
   67    62     1     0     0
SMALL
bcc


@<TRIPOS>ATOM
      1 S1         -3.8880   -2.8960   -0.0820 ss        1 2CA      2.842000
      2 O1         -4.4070   -2.4820   -1.3310 o         1 2CA     -0.918000
      3 O2         -3.0680   -4.0220   -0.4750 o         1 2CA     -0.918000
      4 O4          1.4530   -1.2000   -1.3230 o         1 2CA     -0.366000
      5 O5          3.1370    3.3360   -1.3010 o         1 2CA     -0.349000
      6 O6          3.8240    3.5160    1.1360 os        1 2CA     -0.066000
      7 N2          0.0370    0.6040   -1.0470 n         1 2CA     -0.364000
      8 N3          3.3690    1.0540   -1.5320 n         1 2CA     -0.371000
      9 N4         -4.9890   -3.4400    2.3760 n1        1 2CA     -0.074000
     10 C8          1.2270   -0.0410   -1.5830 c2        1 2CA      0.279000
     11 C9          2.2490    0.7780   -2.3610 c3        1 2CA      0.017000
     12 C10         2.7090   -0.0050   -3.5810 c3        1 2CA     -0.160000
     13 C11         2.9570    0.9600   -4.7390 c3        1 2CA     -0.109000
     14 C12         4.1600    0.4460   -5.5940 c3        1 2CA     -0.211000
     15 C13         1.6950    1.0370   -5.6200 c3        1 2CA     -0.211000
     16 C14         3.4060    2.2600   -0.7650 c2        1 2CA      0.377000
     17 C15         3.9210    2.2310    0.6950 c2        1 2CA     -0.063000
     18 C16         3.8260    1.3880    1.7990 c1        1 2CA     -0.129000
     19 C17         3.4730    1.8470    4.2720 c1        1 2CA     -0.073000
     20 C18         3.2800    2.8490    5.1970 c1        1 2CA     -0.115500
     21 C19         3.2790    4.1800    4.7920 c1        1 2CA     -0.115500
     22 C20         3.4720    4.5000    3.4550 c1        1 2CA     -0.122000
     23 C21         3.6680    3.4860    2.5170 c1        1 2CA      0.028000
     24 C22         3.6700    2.1700    2.9160 c1        1 2CA     -0.113000
     25 C23        -5.2090   -3.4070    1.0340 c1        1 2CA     -0.710000
     26 C24        -6.4340   -3.8070    0.5200 c2        1 2CA     -0.076000
     27 C25        -7.4220   -4.2350    1.3660 c1        1 2CA     -0.113000
     28 C26        -7.1980   -4.2670    2.7170 c1        1 2CA     -0.115500
     29 C27        -5.9760   -3.8680    3.2230 c1        1 2CA     -0.115500
     30 C01        -0.8530   -0.1280   -0.2210 c3        1 2CA     -0.010000
     31 C02        -0.6450    0.2700    1.2290 c3        1 2CA     -0.159000
     32 C03        -1.4190   -0.6580    2.1670 c3        1 2CA     -0.173000
     33 C04        -1.8390   -1.9350    1.4430 c3        1 2CA     -0.022000
     34 N05        -2.9690   -1.6990    0.6170 n2        1 2CA     -0.821000
     35 C06        -3.2380   -0.3060    0.5110 c3        1 2CA     -0.067000
     36 O08        -2.6060    0.7840   -1.5830 o         1 2CA     -0.284000
     37 C07        -2.2640    0.2310   -0.5560 c2        1 2CA      0.206000
     38 HN2        -0.1160    1.4930   -1.2130 hn        1 2CA      0.258000
     39 HN3         4.1050    0.5080   -1.5600 hn        1 2CA      0.236000
     40 HC9         1.8270    1.6490   -2.6570 h1        1 2CA      0.135000
     41 H101        3.5490   -0.4860   -3.3680 hc        1 2CA      0.108000
     42 H102        2.0070   -0.6610   -3.8410 hc        1 2CA      0.108000
     43 H11         3.1660    1.8550   -4.3840 hc        1 2CA      0.087000
     44 H121        4.9990    0.5580   -5.0830 hc        1 2CA      0.076333
     45 H122        4.2140    0.9640   -6.4320 hc        1 2CA      0.076333
     46 H123        4.0310   -0.4860   -5.8000 hc        1 2CA      0.076333
     47 H131        1.4670    0.1280   -5.9550 hc        1 2CA      0.076333
     48 H132        1.8600    1.6240   -6.3690 hc        1 2CA      0.076333
     49 H133        0.9360    1.3930   -5.0800 hc        1 2CA      0.076333
     50 H16         3.8620    0.4290    1.7810 DU        1 2CA      0.165000
     51 H17         3.4750    0.9060    4.5590 ha        1 2CA      0.141000
     52 H18         3.1430    2.6240    6.1420 ha        1 2CA      0.148000
     53 H19         3.1450    4.8700    5.4300 ha        1 2CA      0.148000
     54 H20         3.4700    5.4480    3.1670 ha        1 2CA      0.157000
     55 H24        -6.5980   -3.7820   -0.4780 ha        1 2CA      0.175000
     56 H25        -8.2760   -4.5140    1.0120 ha        1 2CA      0.148000
     57 H26        -7.9080   -4.5750    3.3290 ha        1 2CA      0.148000
     58 H27        -5.8150   -3.8910    4.1890 ha        1 2CA      0.148000
     59 H01        -0.5900   -1.0550   -0.4450 h1        1 2CA      0.147000
     60 H021       -0.9630    1.2130    1.3620 hc        1 2CA      0.101500
     61 H022        0.3330    0.2180    1.4480 hc        1 2CA      0.101500
     62 H031       -0.8430   -0.8960    2.9410 hc        1 2CA      0.096000
     63 H032       -2.2310   -0.1870    2.4950 hc        1 2CA      0.096000
     64 H041       -1.1060   -2.2480    0.8960 h1        1 2CA      0.102000
     65 H042       -2.0660   -2.6310    2.1130 h1        1 2CA      0.102000
     66 H061       -3.2970    0.1850    1.3470 h1        1 2CA      0.126000
     67 H062       -4.1690   -0.1860    0.1650 h1        1 2CA      0.126000
@<TRIPOS>BOND
     1    1    2 1   
     2    1    3 1   
     3    4   10 1   
     4    5   16 1   
     5    6   17 1   
     6    6   23 1   
     7    7   10 1   
     8    7   30 1   
     9    7   38 1   
    10    8   11 1   
    11    8   16 1   
    12    8   39 1   
    13    9   25 1   
    14   10   11 1   
    15   11   12 1   
    16   11   40 1   
    17   12   13 1   
    18   12   41 1   
    19   12   42 1   
    20   13   14 1   
    21   13   15 1   
    22   13   43 1   
    23   14   44 1   
    24   14   45 1   
    25   14   46 1   
    26   15   47 1   
    27   15   48 1   
    28   15   49 1   
    29   16   17 1   
    30   17   18 1   
    31   18   24 1   
    32   19   24 1   
    33   19   51 1   
    34   20   21 1   
    35   20   52 1   
    36   21   53 1   
    37   22   23 1   
    38   22   54 1   
    39   25   26 1   
    40   26   27 1   
    41   26   55 1   
    42   27   56 1   
    43   28   29 1   
    44   28   57 1   
    45   29   58 1   
    46   30   31 1   
    47   30   37 1   
    48   30   59 1   
    49   31   32 1   
    50   31   60 1   
    51   31   61 1   
    52   32   33 1   
    53   32   62 1   
    54   32   63 1   
    55   33   34 1   
    56   33   64 1   
    57   33   65 1   
    58   34   35 1   
    59   35   37 1   
    60   35   66 1   
    61   35   67 1   
    62   36   37 1   
@<TRIPOS>SUBSTRUCTURE
     1 2CA         1 TEMP              0 ****  ****    0 ROOT
