@<TRIPOS>MOLECULE
2CB
   57    59     1     0     0
SMALL
bcc


@<TRIPOS>ATOM
      1 CAN         0.1800    0.2290   -0.0950 c3        1 2CB      0.169300
      2 CAL         1.7040    0.0500    0.0430 c3        1 2CB      0.167800
      3 NAY         2.1180   -0.2460    1.4060 n3        1 2CB     -0.732600
      4 CAC         3.5500   -0.4020    1.5280 c3        1 2CB      0.157100
      5 CAM         1.5770    0.7100    2.3610 c3        1 2CB      0.167800
      6 CAO         0.0530    0.8910    2.2280 c3        1 2CB      0.169300
      7 NAZ        -0.3670    1.1800    0.8640 n3        1 2CB     -0.733600
      8 CAK        -1.8100    1.3190    0.7370 c3        1 2CB      0.160800
      9 CAJ        -2.2860    2.7120    1.2170 c3        1 2CB      0.205800
     10 NAR        -3.7010    2.8890    1.0200 nu        1 2CB     -0.861900
     11 CAU        -4.3610    3.9850    1.5390 ca        1 2CB      0.722200
     12 CAG        -3.6390    5.1240    2.0330 ca        1 2CB     -0.347300
     13 CAH        -4.3510    6.2200    2.4820 ca        1 2CB      0.061000
     14 NAP        -5.7460    3.9690    1.5300 nb        1 2CB     -0.756000
     15 CAI        -6.3800    5.0510    1.9760 ca        1 2CB      0.565200
     16 CAV        -5.7550    6.2250    2.4610 ca        1 2CB     -0.583800
     17 SBB        -6.6350    7.5130    3.0420 sy        1 2CB      1.534200
     18 OAE        -7.8720    7.0340    3.5190 o         1 2CB     -0.661800
     19 OAF        -5.8380    8.2310    3.9670 o         1 2CB     -0.661800
     20 NAS        -6.8330    8.4920    1.7560 nu        1 2CB     -0.750500
     21 CAX        -7.5930    8.2250    0.6300 cc        1 2CB     -0.064700
     22 CAW        -7.1300    7.9470   -0.6830 cd        1 2CB     -0.095600
     23 CAB        -5.7540    7.8470   -1.1920 c3        1 2CB     -0.032800
     24 NBA        -8.2790    7.7790   -1.4690 na        1 2CB      0.093400
     25 CAD        -8.2450    7.4980   -2.8830 c3        1 2CB      0.041600
     26 NAQ        -9.4090    7.9390   -0.7620 nd        1 2CB     -0.508800
     27 CAT        -9.0530    8.2200    0.5210 cc        1 2CB      0.334600
     28 CAA        -9.9960    8.4730    1.6260 c3        1 2CB     -0.140400
     29 HAN1       -0.3130   -0.7820   -0.0050 h1        1 2CB      0.038950
     30 HAN2       -0.0250    0.6250   -1.1290 h1        1 2CB      0.038950
     31 HAL1        2.2140    0.9740   -0.3580 h1        1 2CB      0.039200
     32 HAL2        2.0060   -0.8200   -0.6050 h1        1 2CB      0.039200
     33 HAC1        3.7900   -0.7110    2.5790 h1        1 2CB      0.034033
     34 HAC2        4.1230    0.5370    1.2920 h1        1 2CB      0.034033
     35 HAC3        3.8850   -1.2100    0.8280 h1        1 2CB      0.034033
     36 HAM1        2.0720    1.7210    2.2670 h1        1 2CB      0.039200
     37 HAM2        1.7870    0.3180    3.3960 h1        1 2CB      0.039200
     38 HAO1       -0.4570   -0.0320    2.6340 h1        1 2CB      0.038950
     39 HAO2       -0.2450    1.7630    2.8740 h1        1 2CB      0.038950
     40 HAK1       -2.0880    1.2010   -0.3490 h1        1 2CB      0.041700
     41 HAK2       -2.3610    0.5220    1.3190 h1        1 2CB      0.041700
     42 HAJ1       -2.0290    2.8420    2.3080 h1        1 2CB      0.055200
     43 HAJ2       -1.7400    3.5100    0.6360 h1        1 2CB      0.055200
     44 HAR        -4.2380    2.0850    0.7790 hn        1 2CB      0.444800
     45 HAG        -2.5420    5.1260    2.0550 ha        1 2CB      0.150000
     46 HAH        -3.8150    7.1000    2.8820 ha        1 2CB      0.156000
     47 HAI        -7.4890    4.9830    1.9670 h4        1 2CB      0.046100
     48 HAS        -6.3780    9.3780    1.7250 hn        1 2CB      0.451800
     49 HAB1       -5.0340    8.1820   -0.4050 hc        1 2CB      0.054033
     50 HAB2       -5.6150    8.4880   -2.0990 hc        1 2CB      0.054033
     51 HAB3       -5.5140    6.7890   -1.4690 hc        1 2CB      0.054033
     52 HAD1       -7.9370    8.4230   -3.4400 h1        1 2CB      0.058367
     53 HAD2       -7.4930    6.6860   -3.0720 h1        1 2CB      0.058367
     54 HAD3       -9.2540    7.1680   -3.2440 h1        1 2CB      0.058367
     55 HAA1       -9.8730    9.5260    1.9840 hc        1 2CB      0.063367
     56 HAA2       -9.7730    7.7780    2.4780 hc        1 2CB      0.063367
     57 HAA3      -11.0580    8.3260    1.3110 hc        1 2CB      0.063367
@<TRIPOS>BOND
     1    1    2 1   
     2    1    7 1   
     3    1   29 1   
     4    1   30 1   
     5    2    3 1   
     6    2   31 1   
     7    2   32 1   
     8    3    4 1   
     9    3    5 1   
    10    4   33 1   
    11    4   34 1   
    12    4   35 1   
    13    5    6 1   
    14    5   36 1   
    15    5   37 1   
    16    6    7 1   
    17    6   38 1   
    18    6   39 1   
    19    7    8 1   
    20    8    9 1   
    21    8   40 1   
    22    8   41 1   
    23    9   10 1   
    24    9   42 1   
    25    9   43 1   
    26   10   11 1   
    27   10   44 1   
    28   11   12 ar  
    29   11   14 ar  
    30   12   13 ar  
    31   12   45 1   
    32   13   16 ar  
    33   13   46 1   
    34   14   15 ar  
    35   15   16 ar  
    36   15   47 1   
    37   16   17 1   
    38   17   18 2   
    39   17   19 2   
    40   17   20 1   
    41   20   21 1   
    42   20   48 1   
    43   21   22 2   
    44   21   27 1   
    45   22   23 1   
    46   22   24 1   
    47   23   49 1   
    48   23   50 1   
    49   23   51 1   
    50   24   25 1   
    51   24   26 1   
    52   25   52 1   
    53   25   53 1   
    54   25   54 1   
    55   26   27 2   
    56   27   28 1   
    57   28   55 1   
    58   28   56 1   
    59   28   57 1   
@<TRIPOS>SUBSTRUCTURE
     1 2CB         1 TEMP              0 ****  ****    0 ROOT
