@<TRIPOS>MOLECULE
2CB
   57    53     1     0     0
SMALL
bcc


@<TRIPOS>ATOM
      1 CAN         6.0500   -2.8940   -0.7230 c3        1 2CB     -0.074500
      2 CAL         7.1070   -2.0750    0.0750 c3        1 2CB     -0.101500
      3 NAY         7.4160   -0.8400   -0.5450 n3        1 2CB     -0.256000
      4 CAC         8.2650   -0.0870    0.2950 c3        1 2CB     -0.119000
      5 CAM         6.2520   -0.0690   -0.8510 c3        1 2CB     -0.101500
      6 CAO         5.1930   -0.8750   -1.6470 c3        1 2CB     -0.074500
      7 NAZ         4.8800   -2.1210   -1.0250 n3        1 2CB     -0.248000
      8 CAK         4.0890   -1.8740    0.2520 c3        1 2CB     -0.085000
      9 CAJ         2.6450   -1.8560   -0.0530 c3        1 2CB     -0.027000
     10 NAR         1.9130   -1.3700    1.1060 n3        1 2CB     -0.311000
     11 CAU         0.6460   -0.6710    0.9240 c2        1 2CB      0.209000
     12 CAG         0.4750    0.2070   -0.1630 c2        1 2CB     -0.283000
     13 CAH        -0.7100    0.8560   -0.3350 c1        1 2CB      0.064000
     14 NAP        -0.3500   -0.8680    1.7830 n1        1 2CB     -0.233000
     15 CAI        -1.5470   -0.2150    1.6140 c1        1 2CB      0.096000
     16 CAV        -1.7210    0.6530    0.5430 c1        1 2CB     -0.973000
     17 SBB        -3.2530    1.5930    0.3800 s4        1 2CB      2.103800
     18 OAE        -3.0780    2.7000   -0.4480 o         1 2CB     -0.554900
     19 OAF        -3.6110    2.2200    1.6100 o         1 2CB     -0.554900
     20 NAS        -4.4890    0.5960   -0.1840 n2        1 2CB     -0.805000
     21 CAX        -5.8510    1.1150   -0.3220 c2        1 2CB     -0.100000
     22 CAW        -6.5950    1.7360    0.6830 c1        1 2CB     -0.066500
     23 CAB        -6.1490    1.9190    2.1480 c2        1 2CB     -0.127333
     24 NBA        -7.8310    1.9380    0.2140 n2        1 2CB     -0.099000
     25 CAD        -8.8970    2.6180    0.9110 c2        1 2CB     -0.127333
     26 NAQ        -7.8860    1.4460   -1.0970 n2        1 2CB     -0.099000
     27 CAT        -6.6690    0.9470   -1.4090 c1        1 2CB     -0.066500
     28 CAA        -6.2890    0.2810   -2.7340 c2        1 2CB     -0.127333
     29 HAN1        5.7780   -3.6950   -0.1730 h1        1 2CB      0.101250
     30 HAN2        6.4600   -3.2100   -1.5750 h1        1 2CB      0.101250
     31 HAL1        7.9660   -2.6280    0.1630 h1        1 2CB      0.074750
     32 HAL2        6.7380   -1.8890    1.0070 h1        1 2CB      0.074750
     33 HAC1        7.8600    0.0050    1.1600 h1        1 2CB      0.073333
     34 HAC2        9.1630   -0.5610    0.3880 h1        1 2CB      0.073333
     35 HAC3        8.4000    0.7680   -0.0800 h1        1 2CB      0.073333
     36 HAM1        5.8480    0.2370   -0.0140 h1        1 2CB      0.074750
     37 HAM2        6.5270    0.7270   -1.3860 h1        1 2CB      0.074750
     38 HAO1        4.4110   -0.3600   -1.7060 h1        1 2CB      0.101250
     39 HAO2        5.5470   -1.0540   -2.5990 h1        1 2CB      0.101250
     40 HAK1        4.2760   -2.5950    0.9000 h1        1 2CB      0.080000
     41 HAK2        4.3640   -0.9700    0.6550 h1        1 2CB      0.080000
     42 HAJ1        2.3280   -2.8190   -0.2850 h1        1 2CB      0.095000
     43 HAJ2        2.4780   -1.2590   -0.8230 h1        1 2CB      0.095000
     44 HAR         2.2480   -1.5220    1.9730 hn        1 2CB      0.244000
     45 HAG         1.1980    0.3470   -0.7870 ha        1 2CB      0.152000
     46 HAH        -0.8400    1.5150   -1.1480 ha        1 2CB      0.159000
     47 HAI        -2.2330   -0.3530    2.2090 ha        1 2CB      0.180000
     48 HAS        -4.2960   -0.2810   -0.4440 hn        1 2CB      0.245000
     49 HAB1       -5.2230    1.6100    2.2480 ha        1 2CB      0.098444
     50 HAB2       -6.2030    2.8370    2.3830 ha        1 2CB      0.098444
     51 HAB3       -6.7420    1.3900    2.7440 ha        1 2CB      0.098444
     52 HAD1       -9.1510    2.0900    1.7400 ha        1 2CB      0.098444
     53 HAD2       -8.5870    3.5260    1.1760 ha        1 2CB      0.098444
     54 HAD3       -9.6840    2.6980    0.3160 ha        1 2CB      0.098444
     55 HAA1       -7.0600   -0.1720   -3.0960 ha        1 2CB      0.098444
     56 HAA2       -5.9870    0.9600   -3.3620 ha        1 2CB      0.098444
     57 HAA3       -5.5870   -0.3510   -2.5860 ha        1 2CB      0.098444
@<TRIPOS>BOND
     1    1    2 1   
     2    1    7 1   
     3    1   29 1   
     4    1   30 1   
     5    2    3 1   
     6    2   31 1   
     7    2   32 1   
     8    3    4 1   
     9    3    5 1   
    10    4   33 1   
    11    4   34 1   
    12    4   35 1   
    13    5    6 1   
    14    5   36 1   
    15    5   37 1   
    16    6    7 1   
    17    6   38 1   
    18    6   39 1   
    19    7    8 1   
    20    8    9 1   
    21    8   40 1   
    22    8   41 1   
    23    9   10 1   
    24    9   42 1   
    25    9   43 1   
    26   10   11 1   
    27   10   44 1   
    28   11   12 1   
    29   11   14 1   
    30   12   13 1   
    31   12   45 1   
    32   13   46 1   
    33   15   16 1   
    34   15   47 1   
    35   16   17 1   
    36   17   18 1   
    37   17   19 1   
    38   20   21 1   
    39   20   48 1   
    40   21   22 1   
    41   21   27 1   
    42   22   24 1   
    43   23   49 1   
    44   23   50 1   
    45   23   51 1   
    46   24   26 1   
    47   25   52 1   
    48   25   53 1   
    49   25   54 1   
    50   26   27 1   
    51   28   55 1   
    52   28   56 1   
    53   28   57 1   
@<TRIPOS>SUBSTRUCTURE
     1 2CB         1 TEMP              0 ****  ****    0 ROOT
