@<TRIPOS>MOLECULE
2CB
   57    59     1     0     0
SMALL
bcc


@<TRIPOS>ATOM
      1 CAN        -6.5160   -1.4750   -0.4130 c3        1 2CB      0.169300
      2 CAL        -7.7990   -1.2440    0.4090 c3        1 2CB      0.167800
      3 NAY        -8.3280    0.1040    0.2660 n3        1 2CB     -0.732600
      4 CAC        -9.5240    0.3160    1.0480 c3        1 2CB      0.157100
      5 CAM        -7.3130    1.1190    0.5130 c3        1 2CB      0.167800
      6 CAO        -6.0300    0.8920   -0.3080 c3        1 2CB      0.169300
      7 NAZ        -5.5010   -0.4580   -0.1740 n3        1 2CB     -0.733600
      8 CAK        -4.3060   -0.6760   -0.9760 c3        1 2CB      0.160800
      9 CAJ        -3.0520   -0.0800   -0.2920 c3        1 2CB      0.205800
     10 NAR        -1.8530   -0.3610   -1.0380 nh        1 2CB     -0.862900
     11 CAU        -0.6500    0.2260   -0.7000 ca        1 2CB      0.722200
     12 CAG        -0.4760    0.8990    0.5560 ca        1 2CB     -0.347300
     13 CAH         0.7680    1.4130    0.8690 ca        1 2CB      0.061000
     14 NAP         0.4000    0.1100   -1.5970 nb        1 2CB     -0.756000
     15 CAI         1.5750    0.6240   -1.2440 ca        1 2CB      0.565200
     16 CAV         1.8460    1.2850   -0.0230 ca        1 2CB     -0.584800
     17 SBB         3.3410    1.9380    0.3100 sy        1 2CB      1.534200
     18 OAE         3.9760    2.2530   -0.9080 o         1 2CB     -0.661800
     19 OAF         3.1800    3.0040    1.2300 o         1 2CB     -0.661800
     20 NAS         4.1350    0.7630    1.1100 nh        1 2CB     -0.750500
     21 CAX         4.5540   -0.4460    0.5830 cc        1 2CB     -0.065700
     22 CAW         4.0300   -1.7380    0.8510 cd        1 2CB     -0.094600
     23 CAB         2.9170   -2.1340    1.7260 c3        1 2CB     -0.032800
     24 NBA         4.8220   -2.6350    0.1200 na        1 2CB      0.093400
     25 CAD         4.5700   -4.0530    0.0540 c3        1 2CB      0.040600
     26 NAQ         5.7780   -2.0120   -0.5870 nd        1 2CB     -0.508800
     27 CAT         5.6750   -0.6800   -0.3300 cc        1 2CB      0.334600
     28 CAA         6.5540    0.3630   -0.8890 c3        1 2CB     -0.140400
     29 HAN1       -6.0880   -2.4700   -0.1040 h1        1 2CB      0.038950
     30 HAN2       -6.7930   -1.5380   -1.5060 h1        1 2CB      0.038950
     31 HAL1       -8.5800   -1.9620    0.0320 h1        1 2CB      0.039200
     32 HAL2       -7.5870   -1.4970    1.4890 h1        1 2CB      0.039200
     33 HAC1       -9.3540    0.2320    2.1570 h1        1 2CB      0.034033
     34 HAC2       -9.9240    1.3400    0.8260 h1        1 2CB      0.034033
     35 HAC3      -10.2910   -0.4450    0.7460 h1        1 2CB      0.034033
     36 HAM1       -7.7420    2.1150    0.2100 h1        1 2CB      0.039200
     37 HAM2       -7.0380    1.1770    1.6060 h1        1 2CB      0.039200
     38 HAO1       -6.2410    1.1510   -1.3870 h1        1 2CB      0.038950
     39 HAO2       -5.2500    1.6090    0.0720 h1        1 2CB      0.038950
     40 HAK1       -4.1520   -1.7870   -1.0970 h1        1 2CB      0.041700
     41 HAK2       -4.4070   -0.2320   -2.0100 h1        1 2CB      0.041700
     42 HAJ1       -3.1810    1.0360   -0.1760 h1        1 2CB      0.055200
     43 HAJ2       -2.9460   -0.5230    0.7400 h1        1 2CB      0.055200
     44 HAR        -1.9570   -0.7320   -1.9560 hn        1 2CB      0.444800
     45 HAG        -1.3140    1.0060    1.2570 ha        1 2CB      0.150000
     46 HAH         0.9200    1.9500    1.8240 ha        1 2CB      0.156000
     47 HAI         2.3800    0.5230   -2.0040 h4        1 2CB      0.047100
     48 HAS         4.3600    0.8750    2.0740 hn        1 2CB      0.451800
     49 HAB1        2.1620   -2.7400    1.1610 hc        1 2CB      0.054033
     50 HAB2        3.2890   -2.7490    2.5850 hc        1 2CB      0.054033
     51 HAB3        2.4110   -1.2250    2.1320 hc        1 2CB      0.054033
     52 HAD1        3.6990   -4.2520   -0.6270 h1        1 2CB      0.058367
     53 HAD2        5.4730   -4.5950   -0.3340 h1        1 2CB      0.058367
     54 HAD3        4.3250   -4.4220    1.0850 h1        1 2CB      0.058367
     55 HAA1        7.1360    0.8410   -0.0620 hc        1 2CB      0.063367
     56 HAA2        7.2750   -0.0540   -1.6350 hc        1 2CB      0.063367
     57 HAA3        5.9320    1.1510   -1.3900 hc        1 2CB      0.063367
@<TRIPOS>BOND
     1    1    2 1   
     2    1    7 1   
     3    1   29 1   
     4    1   30 1   
     5    2    3 1   
     6    2   31 1   
     7    2   32 1   
     8    3    4 1   
     9    3    5 1   
    10    4   33 1   
    11    4   34 1   
    12    4   35 1   
    13    5    6 1   
    14    5   36 1   
    15    5   37 1   
    16    6    7 1   
    17    6   38 1   
    18    6   39 1   
    19    7    8 1   
    20    8    9 1   
    21    8   40 1   
    22    8   41 1   
    23    9   10 1   
    24    9   42 1   
    25    9   43 1   
    26   10   11 1   
    27   10   44 1   
    28   11   12 ar  
    29   11   14 ar  
    30   12   13 ar  
    31   12   45 1   
    32   13   16 ar  
    33   13   46 1   
    34   14   15 ar  
    35   15   16 ar  
    36   15   47 1   
    37   16   17 1   
    38   17   18 2   
    39   17   19 2   
    40   17   20 1   
    41   20   21 1   
    42   20   48 1   
    43   21   22 2   
    44   21   27 1   
    45   22   23 1   
    46   22   24 1   
    47   23   49 1   
    48   23   50 1   
    49   23   51 1   
    50   24   25 1   
    51   24   26 1   
    52   25   52 1   
    53   25   53 1   
    54   25   54 1   
    55   26   27 2   
    56   27   28 1   
    57   28   55 1   
    58   28   56 1   
    59   28   57 1   
@<TRIPOS>SUBSTRUCTURE
     1 2CB         1 TEMP              0 ****  ****    0 ROOT
