@<TRIPOS>MOLECULE
2CB
   57    59     1     0     0
SMALL
bcc


@<TRIPOS>ATOM
      1 CAN         0.1720    0.2410   -0.1040 c3        1 2CB      0.169300
      2 CAL         1.6980    0.0680    0.0230 c3        1 2CB      0.167800
      3 NAY         2.1240   -0.2220    1.3840 n3        1 2CB     -0.732600
      4 CAC         3.5570   -0.3710    1.4950 c3        1 2CB      0.157100
      5 CAM         1.5870    0.7340    2.3410 c3        1 2CB      0.167800
      6 CAO         0.0610    0.9080    2.2190 c3        1 2CB      0.169300
      7 NAZ        -0.3710    1.1920    0.8570 n3        1 2CB     -0.733600
      8 CAK        -1.8150    1.3240    0.7410 c3        1 2CB      0.160800
      9 CAJ        -2.2940    2.7160    1.2220 c3        1 2CB      0.205800
     10 NAR        -3.7110    2.8870    1.0350 nh        1 2CB     -0.862900
     11 CAU        -4.3710    3.9840    1.5520 ca        1 2CB      0.722200
     12 CAG        -3.6500    5.1260    2.0390 ca        1 2CB     -0.347300
     13 CAH        -4.3620    6.2220    2.4880 ca        1 2CB      0.061000
     14 NAP        -5.7560    3.9640    1.5500 nb        1 2CB     -0.756000
     15 CAI        -6.3900    5.0460    1.9940 ca        1 2CB      0.565200
     16 CAV        -5.7670    6.2230    2.4730 ca        1 2CB     -0.584800
     17 SBB        -6.6470    7.5110    3.0520 sy        1 2CB      1.534200
     18 OAE        -7.8870    7.0330    3.5240 o         1 2CB     -0.661800
     19 OAF        -5.8540    8.2280    3.9810 o         1 2CB     -0.661800
     20 NAS        -6.8390    8.4910    1.7660 nh        1 2CB     -0.750500
     21 CAX        -7.5900    8.2210    0.6350 cc        1 2CB     -0.065700
     22 CAW        -7.1180    7.9380   -0.6730 cd        1 2CB     -0.094600
     23 CAB        -5.7380    7.8390   -1.1710 c3        1 2CB     -0.032800
     24 NBA        -8.2610    7.7880   -1.4720 na        1 2CB      0.093400
     25 CAD        -8.2200    7.4120   -2.8640 c3        1 2CB      0.040600
     26 NAQ        -9.3960    7.9390   -0.7710 nd        1 2CB     -0.508800
     27 CAT        -9.0490    8.2220    0.5130 cc        1 2CB      0.334600
     28 CAA        -9.9990    8.4830    1.6110 c3        1 2CB     -0.140400
     29 HAN1       -0.3160   -0.7730   -0.0070 h1        1 2CB      0.038950
     30 HAN2       -0.0420    0.6330   -1.1370 h1        1 2CB      0.038950
     31 HAL1        2.2010    0.9940   -0.3850 h1        1 2CB      0.039200
     32 HAL2        1.9990   -0.8020   -0.6250 h1        1 2CB      0.039200
     33 HAC1        3.8070   -0.6760    2.5450 h1        1 2CB      0.034033
     34 HAC2        4.1250    0.5700    1.2520 h1        1 2CB      0.034033
     35 HAC3        3.8910   -1.1800    0.7940 h1        1 2CB      0.034033
     36 HAM1        1.8060    0.3450    3.3750 h1        1 2CB      0.039200
     37 HAM2        2.0760    1.7470    2.2400 h1        1 2CB      0.039200
     38 HAO1       -0.4420   -0.0160    2.6310 h1        1 2CB      0.038950
     39 HAO2       -0.2360    1.7800    2.8650 h1        1 2CB      0.038950
     40 HAK1       -2.1020    1.2030   -0.3420 h1        1 2CB      0.041700
     41 HAK2       -2.3590    0.5260    1.3290 h1        1 2CB      0.041700
     42 HAJ1       -2.0300    2.8490    2.3110 h1        1 2CB      0.055200
     43 HAJ2       -1.7540    3.5160    0.6360 h1        1 2CB      0.055200
     44 HAR        -4.2460    2.0810    0.7980 hn        1 2CB      0.444800
     45 HAG        -2.5520    5.1310    2.0570 ha        1 2CB      0.150000
     46 HAH        -3.8270    7.1050    2.8820 ha        1 2CB      0.156000
     47 HAI        -7.5000    4.9750    1.9910 h4        1 2CB      0.047100
     48 HAS        -6.3880    9.3790    1.7390 hn        1 2CB      0.451800
     49 HAB1       -5.5230    8.6580   -1.9050 hc        1 2CB      0.053700
     50 HAB2       -5.5670    6.8570   -1.6810 hc        1 2CB      0.053700
     51 HAB3       -5.0200    7.9280   -0.3190 hc        1 2CB      0.053700
     52 HAD1       -8.0030    6.3130   -2.9530 h1        1 2CB      0.058367
     53 HAD2       -9.2020    7.6350   -3.3600 h1        1 2CB      0.058367
     54 HAD3       -7.4030    7.9930   -3.3680 h1        1 2CB      0.058367
     55 HAA1       -9.7790    7.7970    2.4700 hc        1 2CB      0.063367
     56 HAA2       -9.8810    9.5400    1.9600 hc        1 2CB      0.063367
     57 HAA3      -11.0590    8.3300    1.2910 hc        1 2CB      0.063367
@<TRIPOS>BOND
     1    1    2 1   
     2    1    7 1   
     3    1   29 1   
     4    1   30 1   
     5    2    3 1   
     6    2   31 1   
     7    2   32 1   
     8    3    4 1   
     9    3    5 1   
    10    4   33 1   
    11    4   34 1   
    12    4   35 1   
    13    5    6 1   
    14    5   36 1   
    15    5   37 1   
    16    6    7 1   
    17    6   38 1   
    18    6   39 1   
    19    7    8 1   
    20    8    9 1   
    21    8   40 1   
    22    8   41 1   
    23    9   10 1   
    24    9   42 1   
    25    9   43 1   
    26   10   11 1   
    27   10   44 1   
    28   11   12 ar  
    29   11   14 ar  
    30   12   13 ar  
    31   12   45 1   
    32   13   16 ar  
    33   13   46 1   
    34   14   15 ar  
    35   15   16 ar  
    36   15   47 1   
    37   16   17 1   
    38   17   18 2   
    39   17   19 2   
    40   17   20 1   
    41   20   21 1   
    42   20   48 1   
    43   21   22 2   
    44   21   27 1   
    45   22   23 1   
    46   22   24 1   
    47   23   49 1   
    48   23   50 1   
    49   23   51 1   
    50   24   25 1   
    51   24   26 1   
    52   25   52 1   
    53   25   53 1   
    54   25   54 1   
    55   26   27 2   
    56   27   28 1   
    57   28   55 1   
    58   28   56 1   
    59   28   57 1   
@<TRIPOS>SUBSTRUCTURE
     1 2CB         1 TEMP              0 ****  ****    0 ROOT
