@<TRIPOS>MOLECULE
2CB
   59    61     1     0     0
SMALL
bcc


@<TRIPOS>ATOM
      1 CAN         0.1720    0.1590    0.3840 c3        1 2CB      0.175300
      2 CAL         1.6850    0.0710    0.6690 c3        1 2CB      0.169300
      3 NAY         1.9690   -0.5680    1.9440 n3        1 2CB     -0.733600
      4 CAC         3.3840   -0.7360    2.1900 c3        1 2CB      0.153100
      5 CAM         1.2740    0.0890    3.0380 c3        1 2CB      0.169300
      6 CAO        -0.2460    0.1770    2.7940 c3        1 2CB      0.175300
      7 NAZ        -0.5790    0.7400    1.4910 n3        1 2CB     -0.757600
      8 CAK        -1.9960    0.8360    1.2480 c3        1 2CB      0.177800
      9 CAJ        -2.4210    2.3250    1.4220 c3        1 2CB      0.084800
     10 NAR        -3.8870    2.5070    1.1380 n4        1 2CB     -0.760700
     11 CAU        -4.2910    3.9250    1.2700 ca        1 2CB      0.566200
     12 CAG        -4.3790    4.7400    0.1230 ca        1 2CB     -0.232300
     13 CAH        -4.7350    6.0840    0.3070 ca        1 2CB      0.088000
     14 NAP        -4.5480    4.3780    2.5350 nb        1 2CB     -0.646000
     15 CAI        -4.8810    5.6620    2.6740 ca        1 2CB      0.553200
     16 CAV        -4.9920    6.5830    1.5920 ca        1 2CB     -0.546800
     17 SBB        -5.2410    8.1930    1.8800 sy        1 2CB      1.446200
     18 OAE        -5.0160    8.4890    3.2100 o         1 2CB     -0.546300
     19 OAF        -4.7910    8.9840    0.8470 o         1 2CB     -0.546300
     20 NAS        -7.0970    8.3380    1.8170 n4        1 2CB     -0.508300
     21 CAX        -7.6050    8.1810    0.4990 cc        1 2CB     -0.358700
     22 CAW        -7.6560    9.1590   -0.5450 cd        1 2CB      0.019400
     23 CAB        -7.1120   10.5260   -0.5380 c3        1 2CB     -0.082800
     24 NBA        -8.3190    8.5390   -1.5960 na        1 2CB      0.144400
     25 CAD        -8.5990    9.1750   -2.8750 c3        1 2CB      0.014600
     26 NAQ        -8.7180    7.2900   -1.2910 nd        1 2CB     -0.448800
     27 CAT        -8.3340    7.0270   -0.0170 cc        1 2CB      0.354600
     28 CAA        -8.6530    5.8030    0.7400 c3        1 2CB     -0.145400
     29 HAN1       -0.2090   -0.8730    0.1310 h1        1 2CB      0.043450
     30 HAN2        0.0280    0.8200   -0.5160 h1        1 2CB      0.043450
     31 HAL1        2.1270    1.1080    0.6060 h1        1 2CB      0.052200
     32 HAL2        2.1460   -0.5540   -0.1470 h1        1 2CB      0.052200
     33 HAC1        3.9370    0.2390    2.2790 h1        1 2CB      0.047367
     34 HAC2        3.8270   -1.3270    1.3460 h1        1 2CB      0.047367
     35 HAC3        3.5160   -1.3130    3.1430 h1        1 2CB      0.047367
     36 HAM1        1.6710    1.1280    3.2320 h1        1 2CB      0.052200
     37 HAM2        1.4320   -0.5240    3.9710 h1        1 2CB      0.052200
     38 HAO1       -0.6860    0.8490    3.5820 h1        1 2CB      0.043450
     39 HAO2       -0.6920   -0.8530    2.9190 h1        1 2CB      0.043450
     40 HAK1       -2.5980    0.2110    1.9700 h1        1 2CB      0.056200
     41 HAK2       -2.2550    0.5080    0.2010 h1        1 2CB      0.056200
     42 HAJ1       -1.8440    2.9820    0.7120 hx        1 2CB      0.121200
     43 HAJ2       -2.2260    2.6610    2.4810 hx        1 2CB      0.121200
     44 HAR        -4.4260    1.9230    1.7980 hn        1 2CB      0.474800
     45 HAG        -4.1700    4.3630   -0.8930 ha        1 2CB      0.200000
     46 HAH        -4.7900    6.7530   -0.5770 ha        1 2CB      0.205000
     47 HAI        -5.0460    5.9900    3.7290 h4        1 2CB      0.095100
     48 HAS        -7.3780    9.2650    2.1660 hn        1 2CB      0.465800
     49 HAB1       -5.9890   10.4910   -0.5380 hc        1 2CB      0.093033
     50 HAB2       -7.4430   11.1180   -1.4290 hc        1 2CB      0.093033
     51 HAB3       -7.4570   11.0640    0.3820 hc        1 2CB      0.093033
     52 HAD1       -7.6310    9.5240   -3.3230 h1        1 2CB      0.094033
     53 HAD2       -9.0980    8.4470   -3.5700 h1        1 2CB      0.094033
     54 HAD3       -9.2810   10.0510   -2.7010 h1        1 2CB      0.094033
     55 HAA1       -9.4620    6.0240    1.4850 hc        1 2CB      0.066700
     56 HAA2       -7.7480    5.4370    1.2840 hc        1 2CB      0.066700
     57 HAA3       -9.0230    4.9850    0.0700 hc        1 2CB      0.066700
     58 HAR2       -4.0930    2.1930    0.1810 hn        1 2CB      0.474800
     59 HAS2       -7.5650    7.6520    2.4170 hn        1 2CB      0.465800
@<TRIPOS>BOND
     1    1    2 1   
     2    1    7 1   
     3    1   29 1   
     4    1   30 1   
     5    2    3 1   
     6    2   31 1   
     7    2   32 1   
     8    3    4 1   
     9    3    5 1   
    10    4   33 1   
    11    4   34 1   
    12    4   35 1   
    13    5    6 1   
    14    5   36 1   
    15    5   37 1   
    16    6    7 1   
    17    6   38 1   
    18    6   39 1   
    19    7    8 1   
    20    8    9 1   
    21    8   40 1   
    22    8   41 1   
    23    9   10 1   
    24    9   42 1   
    25    9   43 1   
    26   10   11 1   
    27   10   44 1   
    28   10   58 1   
    29   11   12 ar  
    30   11   14 ar  
    31   12   13 ar  
    32   12   45 1   
    33   13   16 ar  
    34   13   46 1   
    35   14   15 ar  
    36   15   16 ar  
    37   15   47 1   
    38   16   17 1   
    39   17   18 2   
    40   17   19 2   
    41   17   20 1   
    42   20   21 1   
    43   20   48 1   
    44   20   59 1   
    45   21   22 2   
    46   21   27 1   
    47   22   23 1   
    48   22   24 1   
    49   23   49 1   
    50   23   50 1   
    51   23   51 1   
    52   24   25 1   
    53   24   26 1   
    54   25   52 1   
    55   25   53 1   
    56   25   54 1   
    57   26   27 2   
    58   27   28 1   
    59   28   55 1   
    60   28   56 1   
    61   28   57 1   
@<TRIPOS>SUBSTRUCTURE
     1 2CB         1 TEMP              0 ****  ****    0 ROOT
