@<TRIPOS>MOLECULE
2CC
   42    46     1     0     0
SMALL
bcc


@<TRIPOS>ATOM
      1 CL1         4.3440   -3.4320    1.0560 cl        1 2CC     -0.165400
      2 C16         3.2440   -2.4860    0.1470 ca        1 2CC     -0.009600
      3 C15         2.8860   -2.8650   -1.1440 ca        1 2CC     -0.133000
      4 C14         1.9890   -2.0880   -1.8880 ca        1 2CC     -0.177000
      5 C13         1.4310   -0.9220   -1.3720 ca        1 2CC     -0.060000
      6 C12         1.7750   -0.5130   -0.0880 ca        1 2CC     -0.055800
      7 C17         2.7010   -1.3160    0.6910 ca        1 2CC     -0.065200
      8 N2          2.8390   -0.7360    1.9560 na        1 2CC     -0.188400
      9 C18         2.1190    0.4780    1.9440 cc        1 2CC     -0.115100
     10 C11         1.4270    0.6340    0.7420 cd        1 2CC      0.006600
     11 C10         0.6190    1.7550    0.3820 cd        1 2CC     -0.132800
     12 C9          0.9590    3.1090    0.6280 cc        1 2CC     -0.126900
     13 C26         2.1020    3.7590    1.3800 c         1 2CC      0.934200
     14 O28         2.5690    3.1970    2.4140 o         1 2CC     -0.845800
     15 O27         2.5260    4.8740    0.9580 o         1 2CC     -0.845800
     16 N1         -0.0040    3.8970    0.0110 na        1 2CC     -0.126100
     17 C8         -0.9640    3.1100   -0.6110 cc        1 2CC     -0.126900
     18 C29        -2.1090    3.7610   -1.3600 c         1 2CC      0.934200
     19 O32        -2.5350    4.8730   -0.9320 o         1 2CC     -0.845800
     20 O30        -2.5740    3.2030   -2.3970 o         1 2CC     -0.845800
     21 C7         -0.6210    1.7550   -0.3720 cd        1 2CC     -0.132800
     22 C6         -1.4250    0.6340   -0.7380 cd        1 2CC      0.006600
     23 C19        -2.1180    0.4830   -1.9410 cc        1 2CC     -0.115100
     24 N3         -2.8340   -0.7320   -1.9600 na        1 2CC     -0.188400
     25 C20        -2.6950   -1.3190   -0.6980 ca        1 2CC     -0.065200
     26 C5         -1.7710   -0.5180    0.0860 ca        1 2CC     -0.055800
     27 C4         -1.4260   -0.9330    1.3670 ca        1 2CC     -0.060000
     28 C3         -1.9810   -2.1030    1.8780 ca        1 2CC     -0.177000
     29 C2         -2.8770   -2.8780    1.1300 ca        1 2CC     -0.133000
     30 C1         -3.2350   -2.4940   -0.1600 ca        1 2CC     -0.009600
     31 CL2        -4.3330   -3.4370   -1.0730 cl        1 2CC     -0.165400
     32 H15         3.3100   -3.7780   -1.5840 ha        1 2CC      0.114000
     33 H14         1.7200   -2.4150   -2.9020 ha        1 2CC      0.114000
     34 H13         0.7110   -0.3220   -1.9540 ha        1 2CC      0.164000
     35 H18         2.1730    1.1880    2.7820 h4        1 2CC      0.227000
     36 H19        -2.1730    1.1970   -2.7750 h4        1 2CC      0.227000
     37 H4         -0.7080   -0.3340    1.9530 ha        1 2CC      0.164000
     38 H3         -1.7110   -2.4340    2.8900 ha        1 2CC      0.114000
     39 H2         -3.2980   -3.7950    1.5650 ha        1 2CC      0.114000
     40 HN2         3.6510   -0.8640    2.5030 hn        1 2CC      0.272700
     41 HN1        -0.0050    4.8860    0.0130 hn        1 2CC      0.310700
     42 HN3        -3.6460   -0.8600   -2.5070 hn        1 2CC      0.272700
@<TRIPOS>BOND
     1    1    2 1   
     2    2    3 ar  
     3    2    7 ar  
     4    3    4 ar  
     5    3   32 1   
     6    4    5 ar  
     7    4   33 1   
     8    5    6 ar  
     9    5   34 1   
    10    6    7 ar  
    11    6   10 1   
    12    7    8 1   
    13    8    9 1   
    14    8   40 1   
    15    9   10 2   
    16    9   35 1   
    17   10   11 1   
    18   11   12 2   
    19   11   21 1   
    20   12   13 1   
    21   12   16 1   
    22   13   14 1   
    23   13   15 1   
    24   16   17 1   
    25   16   41 1   
    26   17   18 1   
    27   17   21 2   
    28   18   19 1   
    29   18   20 1   
    30   21   22 1   
    31   22   23 2   
    32   22   26 1   
    33   23   24 1   
    34   23   36 1   
    35   24   25 1   
    36   24   42 1   
    37   25   26 ar  
    38   25   30 ar  
    39   26   27 ar  
    40   27   28 ar  
    41   27   37 1   
    42   28   29 ar  
    43   28   38 1   
    44   29   30 ar  
    45   29   39 1   
    46   30   31 1   
@<TRIPOS>SUBSTRUCTURE
     1 2CC         1 TEMP              0 ****  ****    0 ROOT
