@<TRIPOS>MOLECULE
2CC
   42    46     1     0     0
SMALL
bcc


@<TRIPOS>ATOM
      1 CL1        -0.0920    0.0710   -0.6980 cl        1 2CC     -0.165400
      2 C16         1.5450   -0.4310   -0.7240 ca        1 2CC     -0.009600
      3 C15         2.0490   -1.2480    0.2840 ca        1 2CC     -0.133000
      4 C14         3.3890   -1.6550    0.2640 ca        1 2CC     -0.177000
      5 C13         4.2560   -1.2600   -0.7510 ca        1 2CC     -0.060000
      6 C12         3.7850   -0.4360   -1.7680 ca        1 2CC     -0.055800
      7 C17         2.3950   -0.0150   -1.7560 ca        1 2CC     -0.065200
      8 N2          2.1510    0.7480   -2.9020 na        1 2CC     -0.188400
      9 C18         3.3850    0.9180   -3.5660 cc        1 2CC     -0.115100
     10 C11         4.3930    0.1850   -2.9380 cd        1 2CC      0.006600
     11 C10         5.7650    0.1470   -3.3290 cd        1 2CC     -0.132800
     12 C9          6.5220    1.2740   -3.7380 cc        1 2CC     -0.126900
     13 C26         6.1510    2.7200   -3.9920 c         1 2CC      0.934200
     14 O28         5.0150    2.9970   -4.4790 o         1 2CC     -0.845800
     15 O27         7.0200    3.6050   -3.7380 o         1 2CC     -0.845800
     16 N1          7.8370    0.8560   -3.8980 na        1 2CC     -0.126100
     17 C8          7.9610   -0.5010   -3.6270 cc        1 2CC     -0.126900
     18 C29         9.3150   -1.1730   -3.7280 c         1 2CC      0.934200
     19 O32        10.1280   -0.7310   -4.5910 o         1 2CC     -0.845800
     20 O30         9.6040   -2.1170   -2.9350 o         1 2CC     -0.845800
     21 C7          6.6710   -0.9870   -3.2950 cd        1 2CC     -0.132800
     22 C6          6.3500   -2.3600   -3.0730 cd        1 2CC      0.006600
     23 C19         7.1270   -3.2760   -2.3610 cc        1 2CC     -0.115100
     24 N3          6.5250   -4.5520   -2.3600 na        1 2CC     -0.188400
     25 C20         5.3990   -4.4840   -3.1880 ca        1 2CC     -0.065200
     26 C5          5.2210   -3.1070   -3.6140 ca        1 2CC     -0.055800
     27 C4          4.1270   -2.7750   -4.4050 ca        1 2CC     -0.060000
     28 C3          3.2300   -3.7700   -4.7810 ca        1 2CC     -0.177000
     29 C2          3.3980   -5.1010   -4.3770 ca        1 2CC     -0.133000
     30 C1          4.4780   -5.4640   -3.5780 ca        1 2CC     -0.009600
     31 CL2         4.6880   -7.0910   -3.0870 cl        1 2CC     -0.165400
     32 H15         1.3930   -1.5770    1.1010 ha        1 2CC      0.114000
     33 H14         3.7580   -2.3060    1.0690 ha        1 2CC      0.114000
     34 H13         5.3060   -1.5960   -0.7730 ha        1 2CC      0.164000
     35 H18         3.4850    1.5890   -4.4320 h4        1 2CC      0.227000
     36 H19         8.1020   -3.0980   -1.8850 h4        1 2CC      0.227000
     37 H4          3.9820   -1.7250   -4.7110 ha        1 2CC      0.164000
     38 H3          2.3640   -3.5110   -5.4060 ha        1 2CC      0.114000
     39 H2          2.6710   -5.8620   -4.6940 ha        1 2CC      0.114000
     40 HN2         1.4350    1.4270   -2.9340 hn        1 2CC      0.272700
     41 HN1         8.5840    1.4440   -4.1680 hn        1 2CC      0.310700
     42 HN3         7.0480   -5.3840   -2.2590 hn        1 2CC      0.272700
@<TRIPOS>BOND
     1    1    2 1   
     2    2    3 ar  
     3    2    7 ar  
     4    3    4 ar  
     5    3   32 1   
     6    4    5 ar  
     7    4   33 1   
     8    5    6 ar  
     9    5   34 1   
    10    6    7 ar  
    11    6   10 1   
    12    7    8 1   
    13    8    9 1   
    14    8   40 1   
    15    9   10 2   
    16    9   35 1   
    17   10   11 1   
    18   11   12 2   
    19   11   21 1   
    20   12   13 1   
    21   12   16 1   
    22   13   14 1   
    23   13   15 1   
    24   16   17 1   
    25   16   41 1   
    26   17   18 1   
    27   17   21 2   
    28   18   19 1   
    29   18   20 1   
    30   21   22 1   
    31   22   23 2   
    32   22   26 1   
    33   23   24 1   
    34   23   36 1   
    35   24   25 1   
    36   24   42 1   
    37   25   26 ar  
    38   25   30 ar  
    39   26   27 ar  
    40   27   28 ar  
    41   27   37 1   
    42   28   29 ar  
    43   28   38 1   
    44   29   30 ar  
    45   29   39 1   
    46   30   31 1   
@<TRIPOS>SUBSTRUCTURE
     1 2CC         1 TEMP              0 ****  ****    0 ROOT
