@<TRIPOS>MOLECULE
2CC
   42    32     1     0     0
SMALL
bcc


@<TRIPOS>ATOM
      1 CL1        -3.7220    5.3710    0.2510 cl        1 2CC     -0.085000
      2 C16        -3.1770    3.8930    1.0060 c2        1 2CC     -0.088000
      3 C15        -3.8420    3.5180    2.1690 c2        1 2CC     -0.137000
      4 C14        -3.5240    2.3170    2.7960 c1        1 2CC     -0.179000
      5 C13        -2.5410    1.4910    2.2610 c1        1 2CC     -0.065000
      6 C12        -1.8670    1.8690    1.0820 c1        1 2CC     -0.046000
      7 C17        -2.1810    3.0560    0.4630 c1        1 2CC     -0.024000
      8 N2         -1.3670    3.1850   -0.6550 n1        1 2CC     -0.211000
      9 C18        -0.5560    2.0810   -0.7200 c1        1 2CC     -0.079000
     10 C11        -0.8610    1.2610    0.3540 c1        1 2CC     -0.017000
     11 C10        -0.7550    0.2090   -0.5740 c2        1 2CC     -0.112000
     12 C9         -1.7030   -0.1380   -1.5190 c1        1 2CC     -0.088000
     13 C26        -3.1100    0.4350   -1.6260 c1        1 2CC      0.380500
     14 O28        -3.2880    1.5780   -2.1290 o         1 2CC     -0.574000
     15 O27        -4.1020   -0.2580   -1.2670 o         1 2CC     -0.574000
     16 N1         -1.1750   -1.1250   -2.3080 n2        1 2CC     -0.137000
     17 C8          0.0930   -1.3930   -1.8630 c1        1 2CC     -0.044000
     18 C29         1.0790   -2.3570   -2.5050 c1        1 2CC      0.380500
     19 O32         0.8970   -3.6020   -2.4090 o         1 2CC     -0.574000
     20 O30         2.0400   -1.9110   -3.1920 o         1 2CC     -0.574000
     21 C7          0.3520   -0.5640   -0.7870 c2        1 2CC     -0.156000
     22 C6          1.5160   -0.5820    0.0110 c2        1 2CC      0.035000
     23 C19         2.4630    0.3810   -0.2960 c1        1 2CC     -0.142000
     24 N3          3.7060   -0.1660   -0.0920 n2        1 2CC     -0.202000
     25 C20         3.5350   -1.4730    0.3430 c1        1 2CC     -0.013000
     26 C5          2.1840   -1.7280    0.4060 c1        1 2CC     -0.061000
     27 C4          1.7240   -2.9940    0.8230 c1        1 2CC     -0.047000
     28 C3          2.6370   -3.9860    1.1710 c1        1 2CC     -0.153500
     29 C2          4.0050   -3.7270    1.1070 c1        1 2CC     -0.153500
     30 C1          4.4590   -2.4780    0.6960 c1        1 2CC     -0.102000
     31 CL2         6.1970   -2.3670    0.8140 cl        1 2CC     -0.090000
     32 H15        -4.5360    4.1020    2.5470 ha        1 2CC      0.115000
     33 H14        -3.9940    2.0530    3.6180 ha        1 2CC      0.116000
     34 H13        -2.2830    0.6690    2.7310 ha        1 2CC      0.165000
     35 H18         0.1490    1.9220   -1.3840 DU        1 2CC      0.217600
     36 H19         2.2780    1.3020   -0.5750 DU        1 2CC      0.217600
     37 H4          0.7630   -3.1590    0.9170 ha        1 2CC      0.217000
     38 H3          2.3170   -4.8670    1.4620 ha        1 2CC      0.115500
     39 H2          4.6480   -4.4260    1.3530 ha        1 2CC      0.115500
     40 HN2        -1.3700    3.8870   -1.2460 DU        1 2CC      0.217600
     41 HN1        -1.5970   -1.5360   -3.0140 DU        1 2CC      0.217600
     42 HN3         4.5090    0.2580   -0.2210 DU        1 2CC      0.217600
@<TRIPOS>BOND
     1    1    2 1   
     2    2    3 1   
     3    2    7 1   
     4    3    4 1   
     5    3   32 1   
     6    4   33 1   
     7    5    6 1   
     8    5   34 1   
     9    8    9 1   
    10    9   10 1   
    11   10   11 1   
    12   11   12 1   
    13   11   21 1   
    14   12   16 1   
    15   13   14 1   
    16   13   15 1   
    17   16   17 1   
    18   17   21 1   
    19   18   19 1   
    20   18   20 1   
    21   21   22 1   
    22   22   23 1   
    23   22   26 1   
    24   23   24 1   
    25   24   25 1   
    26   25   30 1   
    27   26   27 1   
    28   27   37 1   
    29   28   29 1   
    30   28   38 1   
    31   29   39 1   
    32   30   31 1   
@<TRIPOS>SUBSTRUCTURE
     1 2CC         1 TEMP              0 ****  ****    0 ROOT
