@<TRIPOS>MOLECULE
2CC
   42    46     1     0     0
SMALL
bcc


@<TRIPOS>ATOM
      1 Cl1        -0.0820    0.0680   -0.6720 cl        1 2CC     -0.165400
      2 C16         1.5540   -0.4350   -0.7070 ca        1 2CC     -0.009600
      3 C15         2.0620   -1.2570    0.2960 ca        1 2CC     -0.133000
      4 C14         3.4020   -1.6650    0.2690 ca        1 2CC     -0.177000
      5 C13         4.2650   -1.2670   -0.7480 ca        1 2CC     -0.060000
      6 C12         3.7900   -0.4390   -1.7590 ca        1 2CC     -0.055800
      7 C17         2.4010   -0.0160   -1.7400 ca        1 2CC     -0.065200
      8 N2          2.1530    0.7510   -2.8830 na        1 2CC     -0.188400
      9 C18         3.3840    0.9220   -3.5510 cc        1 2CC     -0.115100
     10 C11         4.3940    0.1860   -2.9300 cd        1 2CC      0.006600
     11 C10         5.7650    0.1480   -3.3260 cd        1 2CC     -0.132800
     12 C9          6.5210    1.2750   -3.7350 cc        1 2CC     -0.126900
     13 C26         6.1500    2.7230   -3.9820 c         1 2CC      0.934200
     14 O28         5.0130    3.0030   -4.4630 o         1 2CC     -0.845800
     15 O27         7.0210    3.6060   -3.7290 o         1 2CC     -0.845800
     16 N1          7.8340    0.8570   -3.9010 na        1 2CC     -0.126100
     17 C8          7.9580   -0.5010   -3.6360 cc        1 2CC     -0.126900
     18 C29         9.3120   -1.1740   -3.7450 c         1 2CC      0.934200
     19 O32        10.1220   -0.7300   -4.6100 o         1 2CC     -0.845800
     20 O30         9.6030   -2.1210   -2.9570 o         1 2CC     -0.845800
     21 C7          6.6700   -0.9870   -3.3000 cd        1 2CC     -0.132800
     22 C6          6.3480   -2.3600   -3.0820 cd        1 2CC      0.006600
     23 C19         7.1270   -3.2790   -2.3760 cc        1 2CC     -0.115100
     24 N3          6.5240   -4.5550   -2.3770 na        1 2CC     -0.188400
     25 C20         5.3950   -4.4840   -3.2000 ca        1 2CC     -0.065200
     26 C5          5.2170   -3.1050   -3.6210 ca        1 2CC     -0.055800
     27 C4          4.1200   -2.7680   -4.4070 ca        1 2CC     -0.060000
     28 C3          3.2200   -3.7620   -4.7820 ca        1 2CC     -0.177000
     29 C2          3.3880   -5.0940   -4.3840 ca        1 2CC     -0.133000
     30 C1          4.4720   -5.4610   -3.5900 ca        1 2CC     -0.009600
     31 Cl2         4.6810   -7.0900   -3.1070 cl        1 2CC     -0.165400
     32 H15         1.4090   -1.5880    1.1160 ha        1 2CC      0.114000
     33 H14         3.7730   -2.3180    1.0710 ha        1 2CC      0.114000
     34 H13         5.3150   -1.6040   -0.7750 ha        1 2CC      0.164000
     35 H18         3.4820    1.5960   -4.4150 h4        1 2CC      0.227000
     36 H19         8.1040   -3.1050   -1.9030 h4        1 2CC      0.227000
     37 H4          3.9750   -1.7170   -4.7080 ha        1 2CC      0.164000
     38 H3          2.3520   -3.5000   -5.4030 ha        1 2CC      0.114000
     39 H2          2.6600   -5.8530   -4.7010 ha        1 2CC      0.114000
     40 HN2         1.4370    1.4310   -2.9090 hn        1 2CC      0.272700
     41 HN1         8.5810    1.4460   -4.1730 hn        1 2CC      0.310700
     42 HN3         7.0460   -5.3880   -2.2810 hn        1 2CC      0.272700
@<TRIPOS>BOND
     1    1    2 1   
     2    2    3 ar  
     3    2    7 ar  
     4    3    4 ar  
     5    3   32 1   
     6    4    5 ar  
     7    4   33 1   
     8    5    6 ar  
     9    5   34 1   
    10    6    7 ar  
    11    6   10 1   
    12    7    8 1   
    13    8    9 1   
    14    8   40 1   
    15    9   10 2   
    16    9   35 1   
    17   10   11 1   
    18   11   12 2   
    19   11   21 1   
    20   12   13 1   
    21   12   16 1   
    22   13   14 1   
    23   13   15 1   
    24   16   17 1   
    25   16   41 1   
    26   17   18 1   
    27   17   21 2   
    28   18   19 1   
    29   18   20 1   
    30   21   22 1   
    31   22   23 2   
    32   22   26 1   
    33   23   24 1   
    34   23   36 1   
    35   24   25 1   
    36   24   42 1   
    37   25   26 ar  
    38   25   30 ar  
    39   26   27 ar  
    40   27   28 ar  
    41   27   37 1   
    42   28   29 ar  
    43   28   38 1   
    44   29   30 ar  
    45   29   39 1   
    46   30   31 1   
@<TRIPOS>SUBSTRUCTURE
     1 2CC         1 TEMP              0 ****  ****    0 ROOT
