@<TRIPOS>MOLECULE
2CD
   60    57     1     0     0
SMALL
bcc


@<TRIPOS>ATOM
      1 CAA        -4.9000   -1.8660    5.4350 c3        1 2CD     -0.152000
      2 CAB        -6.8570   -1.3690    0.6890 c3        1 2CD     -0.176000
      3 CAC        -8.8030   -2.6600    2.8760 c3        1 2CD     -0.059000
      4 OAD        -2.3330   -1.9300    3.9340 o         1 2CD     -0.923000
      5 OAE        -2.7510   -3.4960    2.4110 o         1 2CD     -0.923000
      6 CLF        -1.6290   -3.4570   -0.2620 cl        1 2CD      0.035000
      7 CLG        -1.3070    0.5000    3.4330 cl        1 2CD      0.014000
      8 CAH         4.8030   -0.3160    0.0720 c1        1 2CD     -0.112500
      9 CAI         3.5150   -0.6090    0.5170 c1        1 2CD     -0.127500
     10 CAJ         0.3570   -1.6030   -0.2080 c1        1 2CD     -0.156000
     11 CAK         0.4690    0.1870    1.3980 c1        1 2CD     -0.127500
     12 CAL         2.5980    0.5400   -1.3910 c1        1 2CD     -0.108000
     13 CAN         5.7050    2.2930   -4.6160 c3        1 2CD     -0.069000
     14 CAM         4.0880    3.5400   -3.4720 c3        1 2CD     -0.069000
     15 CAP         7.1690    2.3810   -4.2580 c3        1 2CD     -0.211500
     16 CAO         4.8990    4.7500   -3.0520 c3        1 2CD     -0.211500
     17 NAR        -7.0760   -2.1780    4.1230 n2        1 2CD     -0.077000
     18 NAS         4.9130    2.3720   -3.4210 n3        1 2CD     -0.261000
     19 NAT        -4.1080   -1.3260    2.1800 nh        1 2CD     -0.802000
     20 CAU        -5.7510   -1.9130    4.1760 c2        1 2CD     -0.089000
     21 CAV        -6.3780   -1.8450    2.0520 c2        1 2CD     -0.031000
     22 CAW        -0.8100   -2.0660    0.3900 c2        1 2CD      0.050000
     23 CAX        -0.7000   -0.2760    1.9970 c1        1 2CD      0.030000
     24 CAY         2.4150   -0.1820   -0.2120 c1        1 2CD     -0.010000
     25 CAZ         0.9960   -0.4780    0.2950 c1        1 2CD     -0.010000
     26 CBA         3.8850    0.8330   -1.8350 c1        1 2CD     -0.078000
     27 CBB        -5.3090   -1.7050    2.8940 c2        1 2CD     -0.111000
     28 CBC        -1.3390   -1.3990    1.4950 c2        1 2CD     -0.774000
     29 C14         4.9860    0.4050   -1.1050 c1        1 2CD     -0.112500
     30 NBE        -7.4680   -2.1370    2.8040 na        1 2CD     -0.118000
     31 C16         4.0760    1.1960   -3.3160 c3        1 2CD     -0.032000
     32 SBF        -2.6560   -2.0640    2.5390 s6        1 2CD      2.853000
     33 HAA1       -5.4770   -1.7050    6.2140 hc        1 2CD      0.095000
     34 HAA2       -4.2450   -1.1420    5.3600 hc        1 2CD      0.095000
     35 HAA3       -4.4310   -2.7210    5.5460 hc        1 2CD      0.095000
     36 HAB1       -7.5980   -0.7350    0.8050 hc        1 2CD      0.104667
     37 HAB2       -7.1640   -2.1390    0.1630 hc        1 2CD      0.104667
     38 HAB3       -6.1190   -0.9270    0.2200 hc        1 2CD      0.104667
     39 HAC1       -8.7810   -3.5600    3.2670 h1        1 2CD      0.099333
     40 HAC2       -9.1860   -2.7050    1.9710 h1        1 2CD      0.099333
     41 HAC3       -9.3550   -2.0720    3.4370 h1        1 2CD      0.099333
     42 HAH         5.5740   -0.6160    0.5840 ha        1 2CD      0.145000
     43 HAI         3.3880   -1.1140    1.3400 ha        1 2CD      0.150000
     44 H14         5.8850    0.6100   -1.4150 ha        1 2CD      0.145000
     45 HAJ         0.7280   -2.0710   -0.9830 ha        1 2CD      0.160000
     46 HAK         0.9170    0.9750    1.7500 ha        1 2CD      0.150000
     47 HAL         1.8300    0.8390   -1.9010 ha        1 2CD      0.136000
     48 HAM1        3.7600    3.6680   -4.3850 h1        1 2CD      0.071500
     49 HAM2        3.3300    3.4300   -2.8660 h1        1 2CD      0.071500
     50 HAO1        5.5370    4.9780   -3.7600 hc        1 2CD      0.078167
     51 HAO2        5.3860    4.5470   -2.2260 hc        1 2CD      0.078167
     52 HAO3        4.2970    5.5090   -2.8970 hc        1 2CD      0.078167
     53 HAN1        5.4690    3.0320   -5.2130 h1        1 2CD      0.071500
     54 HAN2        5.5310    1.4440   -5.0660 h1        1 2CD      0.071500
     55 HAP1        7.2670    2.8330   -3.3960 hc        1 2CD      0.078167
     56 HAP2        7.5460    1.4800   -4.1980 hc        1 2CD      0.078167
     57 HAP3        7.6450    2.8890   -4.9490 hc        1 2CD      0.078167
     58 H161        4.5040    0.4480   -3.7830 h1        1 2CD      0.080500
     59 H162        3.2030    1.3790   -3.7230 h1        1 2CD      0.080500
     60 HAT        -4.1420   -0.6740    1.5460 hn        1 2CD      0.250000
@<TRIPOS>BOND
     1    1   20 1   
     2    1   33 1   
     3    1   34 1   
     4    1   35 1   
     5    2   21 1   
     6    2   36 1   
     7    2   37 1   
     8    2   38 1   
     9    3   30 1   
    10    3   39 1   
    11    3   40 1   
    12    3   41 1   
    13    4   32 1   
    14    5   32 1   
    15    6   22 1   
    16    7   23 1   
    17    8   29 1   
    18    8   42 1   
    19    9   24 1   
    20    9   43 1   
    21   10   22 1   
    22   10   45 1   
    23   11   25 1   
    24   11   46 1   
    25   12   26 1   
    26   12   47 1   
    27   13   15 1   
    28   13   18 1   
    29   13   53 1   
    30   13   54 1   
    31   14   16 1   
    32   14   18 1   
    33   14   48 1   
    34   14   49 1   
    35   15   55 1   
    36   15   56 1   
    37   15   57 1   
    38   16   50 1   
    39   16   51 1   
    40   16   52 1   
    41   17   20 1   
    42   17   30 1   
    43   18   31 1   
    44   19   27 1   
    45   19   32 1   
    46   19   60 1   
    47   20   27 1   
    48   21   27 1   
    49   21   30 1   
    50   22   28 1   
    51   23   28 1   
    52   24   25 1   
    53   26   31 1   
    54   28   32 1   
    55   29   44 1   
    56   31   58 1   
    57   31   59 1   
@<TRIPOS>SUBSTRUCTURE
     1 2CD         1 TEMP              0 ****  ****    0 ROOT
