@<TRIPOS>MOLECULE
2CD
   60    62     1     0     0
SMALL
bcc


@<TRIPOS>ATOM
      1 CAA        -6.0360    1.5150   -1.3660 c3        1 2CD     -0.140400
      2 CAB        -2.2750    1.8200    2.1090 c3        1 2CD     -0.035800
      3 CAC        -3.1090    4.5780    1.1590 c3        1 2CD      0.040600
      4 OAD        -4.0200   -2.5420   -0.3420 o         1 2CD     -0.636300
      5 OAE        -3.9890   -0.8210   -1.9520 o         1 2CD     -0.636300
      6 CAH         4.3200   -2.7020    0.8990 ca        1 2CD     -0.135000
      7 CAI         2.9420   -2.5920    0.7300 ca        1 2CD     -0.107000
      8 CAJ         0.0730   -1.7540    0.9220 ca        1 2CD     -0.153500
      9 CAK         0.4220   -0.8190   -1.2630 ca        1 2CD     -0.153500
     10 CAL         3.2560   -0.4520   -0.3580 ca        1 2CD     -0.109000
     11 CAN         7.5840    1.7680   -0.4050 c3        1 2CD      0.167800
     12 CAM         5.9000    1.7130    1.3400 c3        1 2CD      0.167800
     13 CAP         8.5340    0.9420   -1.2570 c3        1 2CD     -0.093600
     14 CAO         6.7680    1.8060    2.5850 c3        1 2CD     -0.093600
     15 NAR        -4.7110    3.3150   -0.2110 nc        1 2CD     -0.508800
     16 NAS         6.5240    0.9970    0.2320 n3        1 2CD     -0.735600
     17 NAT        -4.1300   -0.2170    0.4710 nh        1 2CD     -0.745500
     18 CAU        -5.0050    2.0060   -0.4340 cd        1 2CD      0.342600
     19 CAV        -3.3190    2.0800    1.1070 cc        1 2CD     -0.090600
     20 CAW        -1.3030   -1.6490    0.7290 ca        1 2CD      0.121400
     21 CAX        -0.9650   -0.7230   -1.4410 ca        1 2CD      0.121400
     22 CAY         2.4000   -1.4640    0.0980 cp        1 2CD     -0.067000
     23 CAZ         0.9550   -1.3470   -0.0860 cp        1 2CD      0.045000
     24 CBA         4.6380   -0.5630   -0.1860 ca        1 2CD     -0.085300
     25 CBB        -4.1280    1.1650    0.3830 cd        1 2CD     -0.071700
     26 CBC        -1.8780   -1.1700   -0.4690 ca        1 2CD     -0.322500
     27 C14         5.1690   -1.6940    0.4440 ca        1 2CD     -0.091000
     28 NBE        -3.7320    3.3590    0.7070 na        1 2CD      0.095400
     29 C16         5.5440    0.5050   -0.7290 c3        1 2CD      0.211100
     30 SBF        -3.6010   -1.2360   -0.6710 sy        1 2CD      1.495200
     31 HAA1       -5.5580    0.8600   -2.1420 hc        1 2CD      0.063700
     32 HAA2       -6.7890    0.9090   -0.8020 hc        1 2CD      0.063700
     33 HAA3       -6.5670    2.3520   -1.8820 hc        1 2CD      0.063700
     34 HAB1       -1.3250    2.3520    1.8440 hc        1 2CD      0.055033
     35 HAB2       -2.6040    2.1720    3.1210 hc        1 2CD      0.055033
     36 HAB3       -2.0660    0.7230    2.1640 hc        1 2CD      0.055033
     37 HAC1       -2.9270    4.4990    2.2640 h1        1 2CD      0.058700
     38 HAC2       -2.1270    4.7200    0.6320 h1        1 2CD      0.058700
     39 HAC3       -3.7710    5.4590    0.9490 h1        1 2CD      0.058700
     40 HAH         4.7410   -3.5910    1.3930 ha        1 2CD      0.138000
     41 HAI         2.2780   -3.3960    1.0830 ha        1 2CD      0.139000
     42 H14         6.2580   -1.7810    0.5820 ha        1 2CD      0.152000
     43 HAJ         0.4730   -2.1500    1.8700 ha        1 2CD      0.160000
     44 HAK         1.1000   -0.4820   -2.0650 ha        1 2CD      0.160000
     45 HAL         2.8330    0.4390   -0.8480 ha        1 2CD      0.136000
     46 HAM1        4.9560    1.1590    1.6160 h1        1 2CD      0.031700
     47 HAM2        5.5970    2.7580    1.0340 h1        1 2CD      0.031700
     48 HAO1        6.1520    2.2260    3.4170 hc        1 2CD      0.038867
     49 HAO2        7.1440    0.8010    2.8900 hc        1 2CD      0.038867
     50 HAO3        7.6450    2.4780    2.4250 hc        1 2CD      0.038867
     51 HAN1        8.1880    2.2530    0.4140 h1        1 2CD      0.031700
     52 HAN2        7.1600    2.5990   -1.0440 h1        1 2CD      0.031700
     53 HAP1        8.0440    0.5910   -2.1970 hc        1 2CD      0.038867
     54 HAP2        9.4080    1.5790   -1.5360 hc        1 2CD      0.038867
     55 HAP3        8.9070    0.0500   -0.6990 hc        1 2CD      0.038867
     56 H161        4.9130    1.3490   -1.1410 h1        1 2CD      0.041200
     57 H162        6.1090    0.0540   -1.5960 h1        1 2CD      0.041200
     58 HAT        -4.4830   -0.5600    1.3390 hn        1 2CD      0.457800
     59 CLF        -2.2720   -2.1240    2.0510 cl        1 2CD     -0.056900
     60 CLG        -1.4480   -0.0180   -2.9070 cl        1 2CD     -0.056900
@<TRIPOS>BOND
     1    1   18 1   
     2    1   31 1   
     3    1   32 1   
     4    1   33 1   
     5    2   19 1   
     6    2   34 1   
     7    2   35 1   
     8    2   36 1   
     9    3   28 1   
    10    3   37 1   
    11    3   38 1   
    12    3   39 1   
    13    4   30 2   
    14    5   30 2   
    15    6    7 ar  
    16    6   27 ar  
    17    6   40 1   
    18    7   22 ar  
    19    7   41 1   
    20    8   20 ar  
    21    8   23 ar  
    22    8   43 1   
    23    9   21 ar  
    24    9   23 ar  
    25    9   44 1   
    26   10   22 ar  
    27   10   24 ar  
    28   10   45 1   
    29   11   13 1   
    30   11   16 1   
    31   11   51 1   
    32   11   52 1   
    33   12   14 1   
    34   12   16 1   
    35   12   46 1   
    36   12   47 1   
    37   13   53 1   
    38   13   54 1   
    39   13   55 1   
    40   14   48 1   
    41   14   49 1   
    42   14   50 1   
    43   15   18 2   
    44   15   28 1   
    45   16   29 1   
    46   17   25 1   
    47   17   30 1   
    48   17   58 1   
    49   18   25 1   
    50   19   25 2   
    51   19   28 1   
    52   20   26 ar  
    53   20   59 1   
    54   21   26 ar  
    55   21   60 1   
    56   22   23 1   
    57   24   27 ar  
    58   24   29 1   
    59   26   30 1   
    60   27   42 1   
    61   29   56 1   
    62   29   57 1   
@<TRIPOS>SUBSTRUCTURE
     1 2CD         1 TEMP              0 ****  ****    0 ROOT
