@<TRIPOS>MOLECULE
2CD
   60    62     1     0     0
SMALL
bcc


@<TRIPOS>ATOM
      1 CAA        -0.0960   -1.5230   -1.3460 c3        1 2CD     -0.165000
      2 CAB         4.7040    0.2380   -0.9140 c3        1 2CD     -0.162000
      3 CAC         3.8080   -1.1250    1.6440 c3        1 2CD     -0.058000
      4 OAD         1.2480    1.2980   -4.7880 o         1 2CD     -0.914500
      5 OAE         0.0260    1.2950   -2.7730 o         1 2CD     -0.914500
      6 CAH         6.5970    7.4040   -3.0500 c3        1 2CD     -0.300000
      7 CAI         5.9540    6.1620   -2.6420 c1        1 2CD     -0.032000
      8 CAJ         4.2730    4.0130   -3.2270 ca        1 2CD     -0.148000
      9 CAK         2.5900    4.7800   -1.6910 ca        1 2CD     -0.148000
     10 CAL         3.8150    7.4550   -2.4250 c2        1 2CD     -0.100000
     11 CAN         5.1010   11.6980   -3.3550 c3        1 2CD     -0.066000
     12 CAM         3.7940   11.1920   -1.3630 c3        1 2CD     -0.066000
     13 CAP         4.9300   12.1760   -4.7900 c3        1 2CD     -0.225000
     14 CAO         4.9950   10.7980   -0.5170 c3        1 2CD     -0.225000
     15 NAR         1.7290   -1.4980    0.3860 n2        1 2CD     -0.075000
     16 NAS         3.9080   11.0680   -2.8040 n3        1 2CD     -0.260000
     17 NAT         2.1860    0.0360   -2.8880 nh        1 2CD     -0.795000
     18 CAU         1.2480   -1.1810   -0.8460 c2        1 2CD     -0.079000
     19 CAV         3.3780   -0.3620   -0.7060 c2        1 2CD     -0.058000
     20 CAW         3.5050    2.8730   -3.4680 ca        1 2CD      0.039000
     21 CAX         1.8330    3.6290   -1.9460 ca        1 2CD      0.039000
     22 CAY         4.5970    6.2310   -2.0740 c3        1 2CD     -0.135000
     23 CAZ         3.8050    4.9880   -2.3440 ca        1 2CD      0.021000
     24 CBA         4.4200    8.5720   -2.8990 c2        1 2CD     -0.205000
     25 CBB         2.2680   -0.4370   -1.5890 c2        1 2CD     -0.091000
     26 CBC         2.2420    2.6580   -2.8760 ca        1 2CD     -0.758000
     27 C14         5.8460    8.6590   -2.9740 c1        1 2CD     -0.040000
     28 NBE         2.9860   -1.0310    0.4630 na        1 2CD     -0.118000
     29 C16         3.6030    9.7610   -3.3380 c3        1 2CD     -0.003000
     30 SBF         1.2890    1.2910   -3.3780 s6        1 2CD      2.833000
     31 HAA1       -0.0020   -2.1520   -2.2660 hc        1 2CD      0.103333
     32 HAA2       -0.6470   -0.5820   -1.6100 hc        1 2CD      0.103333
     33 HAA3       -0.6930   -2.0870   -0.5880 hc        1 2CD      0.103333
     34 HAB1        4.7200    0.7990   -1.8820 hc        1 2CD      0.095000
     35 HAB2        4.9560    0.9480   -0.0860 hc        1 2CD      0.095000
     36 HAB3        5.4940   -0.5550   -0.9490 hc        1 2CD      0.095000
     37 HAC1        3.7980   -0.1440    2.1900 h1        1 2CD      0.098333
     38 HAC2        4.8590   -1.3640    1.3300 h1        1 2CD      0.098333
     39 HAC3        3.4260   -1.9310    2.3250 h1        1 2CD      0.098333
     40 HAH         7.5510    7.5080   -2.4450 hc        1 2CD      0.190000
     41 HAI         4.7980    6.2610   -0.9460 hc        1 2CD      0.172000
     42 H14         6.9620    7.2780   -4.1190 hc        1 2CD      0.190000
     43 HAJ         5.2570    4.1420   -3.7130 ha        1 2CD      0.168000
     44 HAK         2.2240    5.5240   -0.9640 ha        1 2CD      0.168000
     45 HAL         2.7260    7.4020   -2.2650 ha        1 2CD      0.145000
     46 HAM1        3.5580   12.2770   -1.1580 h1        1 2CD      0.086250
     47 HAM2        2.9040   10.5850   -1.0310 h1        1 2CD      0.086250
     48 HAO1        5.8560   11.4830   -0.7050 hc        1 2CD      0.074500
     49 HAO2        5.3260    9.7570   -0.7520 hc        1 2CD      0.074500
     50 HAO3        4.7220   10.8560    0.5640 hc        1 2CD      0.074500
     51 HAN1        5.3390   12.5970   -2.7170 h1        1 2CD      0.086250
     52 HAN2        5.9890   10.9980   -3.3070 h1        1 2CD      0.086250
     53 HAP1        4.0350   12.8340   -4.8950 hc        1 2CD      0.074500
     54 HAP2        5.8380   12.7570   -5.0800 hc        1 2CD      0.074500
     55 HAP3        4.8220   11.3190   -5.4960 hc        1 2CD      0.074500
     56 H161        3.6930    9.8240   -4.4620 h1        1 2CD      0.094000
     57 H162        2.5180    9.5560   -3.0940 h1        1 2CD      0.094000
     58 HAT         2.7610   -0.4640   -3.5300 hn        1 2CD      0.254000
     59 CLF         4.1970    1.7290   -4.5260 cl        1 2CD      0.026000
     60 CLG         0.4070    3.4980   -1.0360 cl        1 2CD      0.026000
@<TRIPOS>BOND
     1    1   18 1   
     2    1   31 1   
     3    1   32 1   
     4    1   33 1   
     5    2   19 1   
     6    2   34 1   
     7    2   35 1   
     8    2   36 1   
     9    3   28 1   
    10    3   37 1   
    11    3   38 1   
    12    3   39 1   
    13    4   30 1   
    14    5   30 1   
    15    6    7 1   
    16    6   27 1   
    17    6   40 1   
    18    6   42 1   
    19    7   22 1   
    20    8   20 1   
    21    8   23 1   
    22    8   43 1   
    23    9   21 1   
    24    9   23 1   
    25    9   44 1   
    26   10   22 1   
    27   10   24 1   
    28   10   45 1   
    29   11   13 1   
    30   11   16 1   
    31   11   51 1   
    32   11   52 1   
    33   12   14 1   
    34   12   16 1   
    35   12   46 1   
    36   12   47 1   
    37   13   53 1   
    38   13   54 1   
    39   13   55 1   
    40   14   48 1   
    41   14   49 1   
    42   14   50 1   
    43   15   18 1   
    44   15   28 1   
    45   16   29 1   
    46   17   25 1   
    47   17   30 1   
    48   17   58 1   
    49   18   25 1   
    50   19   25 1   
    51   19   28 1   
    52   20   26 1   
    53   20   59 1   
    54   21   26 1   
    55   21   60 1   
    56   22   23 1   
    57   22   41 1   
    58   24   27 1   
    59   24   29 1   
    60   26   30 1   
    61   29   56 1   
    62   29   57 1   
@<TRIPOS>SUBSTRUCTURE
     1 2CD         1 TEMP              0 ****  ****    0 ROOT
