@<TRIPOS>MOLECULE
2CE
   73    74     1     0     0
SMALL
bcc


@<TRIPOS>ATOM
      1 C1         -0.6610   -1.6260    2.0030 ca        1 2CE      0.095400
      2 C2          0.2740   -2.6380    2.2620 ca        1 2CE     -0.127500
      3 C3          1.1290   -2.5330    3.3570 ca        1 2CE     -0.051000
      4 C4          1.0700   -1.4150    4.2020 ca        1 2CE     -0.155100
      5 C5          0.1270   -0.4070    3.9390 ca        1 2CE     -0.051000
      6 C6         -0.7280   -0.5020    2.8550 ca        1 2CE     -0.127500
      7 CL7        -1.7010   -1.7440    0.6960 cl        1 2CE      0.050600
      8 S8          2.2080   -1.2670    5.4380 ss        1 2CE     -0.150000
      9 C9          1.4260   -1.9310    6.8800 c3        1 2CE     -0.184300
     10 C10         1.1550   -0.9120    7.9230 c         1 2CE      0.611100
     11 O11         0.8890   -1.0300    9.1090 o         1 2CE     -0.477100
     12 N12         1.2590    0.5500    7.4450 n4        1 2CE     -0.744800
     13 C13         1.7350    1.4870    8.5050 c3        1 2CE      0.087500
     14 C14         2.2240    2.8410    7.9460 c3        1 2CE     -0.079100
     15 C15         3.4510    2.8530    7.0960 ca        1 2CE     -0.057300
     16 C16         3.3760    3.3830    5.7960 ca        1 2CE     -0.092000
     17 C17         4.5230    3.5920    5.0290 ca        1 2CE     -0.072500
     18 C18         5.7840    3.2680    5.5670 ca        1 2CE     -0.078400
     19 C19         5.8760    2.7160    6.8610 ca        1 2CE     -0.072500
     20 C20         4.7130    2.5160    7.6070 ca        1 2CE     -0.092000
     21 N21         6.9970    3.4180    4.7400 n4        1 2CE     -0.647400
     22 C22         7.5970    4.8190    4.8070 c2        1 2CE      0.602100
     23 N23         7.1930    5.8080    5.4940 n2        1 2CE     -0.566100
     24 N24         8.8110    5.0160    3.9430 n4        1 2CE     -0.817600
     25 C25         0.5470    1.8170    9.4550 c         1 2CE      0.494100
     26 O26        -0.3960    2.4930    9.0710 o         1 2CE     -0.348100
     27 N27         0.5430    1.2850   10.8450 n4        1 2CE     -0.654800
     28 C28        -0.8430    1.2450   11.4500 c3        1 2CE      0.088800
     29 C29        -0.8140    0.7840   12.9170 c3        1 2CE      0.102400
     30 O30         0.0080    1.6690   13.6540 os        1 2CE     -0.458600
     31 C31        -0.6290    2.3680   14.7290 c3        1 2CE      0.128400
     32 C32        -0.7140    1.5170   15.9950 c3        1 2CE      0.081400
     33 O33        -2.1100    1.2560   16.2150 os        1 2CE     -0.399600
     34 C34        -2.4330    0.7630   17.4940 c3        1 2CE      0.081400
     35 C35        -2.5770    1.9230   18.4720 c         1 2CE      0.499100
     36 O36        -2.0360    3.0130   18.4060 o         1 2CE     -0.380100
     37 N37        -3.4780    1.7090   19.6630 n4        1 2CE     -0.757400
     38 H2          0.3340   -3.5230    1.6000 ha        1 2CE      0.191000
     39 H3          1.8600   -3.3380    3.5520 ha        1 2CE      0.130500
     40 H5          0.0700    0.4740    4.5960 ha        1 2CE      0.130500
     41 H6         -1.4660    0.2930    2.6500 ha        1 2CE      0.191000
     42 H9C1        2.1070   -2.7140    7.3320 h1        1 2CE      0.188700
     43 H9C2        0.4630   -2.4720    6.6370 h1        1 2CE      0.188700
     44 H12         1.9130    0.5170    6.5980 hn        1 2CE      0.490800
     45 H13         2.5760    0.9760    9.0620 hx        1 2CE      0.131700
     46 H141        2.4330    3.5000    8.8410 hc        1 2CE      0.122700
     47 H142        1.3710    3.3290    7.3880 hc        1 2CE      0.122700
     48 H16         2.3990    3.6710    5.3610 ha        1 2CE      0.187500
     49 H17         4.4070    4.0080    4.0100 ha        1 2CE      0.192000
     50 H19         6.8470    2.4340    7.3100 ha        1 2CE      0.192000
     51 H20         4.8140    2.1050    8.6280 ha        1 2CE      0.187500
     52 H21         6.7420    3.1970    3.7620 hn        1 2CE      0.493300
     53 H23         6.3970    5.8020    6.1040 hn        1 2CE      0.535400
     54 H241        9.1580    6.0000    4.0530 hn        1 2CE      0.522133
     55 H242        8.5840    4.8760    2.9440 hn        1 2CE      0.522133
     56 H27         1.1230    1.8860   11.4570 hn        1 2CE      0.490300
     57 H281       -1.4700    0.5320   10.8430 hx        1 2CE      0.129700
     58 H282       -1.2760    2.2850   11.3800 hx        1 2CE      0.129700
     59 H291       -0.3660   -0.2430   13.0110 h1        1 2CE      0.105700
     60 H292       -1.8770    0.7630   13.2850 h1        1 2CE      0.105700
     61 H311       -1.6430    2.7340   14.4230 h1        1 2CE      0.095200
     62 H312        0.0650    3.2380   14.9030 h1        1 2CE      0.095200
     63 H321       -0.2920    2.0850   16.8660 h1        1 2CE      0.078200
     64 H322       -0.1770    0.5400   15.8730 h1        1 2CE      0.078200
     65 H341       -3.4170    0.2310   17.3500 h1        1 2CE      0.121700
     66 H342       -1.6530    0.0610   17.8960 h1        1 2CE      0.121700
     67 H371       -3.1870    0.8780   20.1920 hn        1 2CE      0.484467
     68 H372       -4.4500    1.5810   19.3560 hn        1 2CE      0.484467
     69 H122        0.3380    0.8490    7.0970 hn        1 2CE      0.490800
     70 H212        7.6970    2.7290    5.0670 hn        1 2CE      0.493300
     71 H243        9.5770    4.3820    4.2260 hn        1 2CE      0.522133
     72 H272        0.9360    0.3310   10.8580 hn        1 2CE      0.490300
     73 H373       -3.4390    2.5290   20.2900 hn        1 2CE      0.484467
@<TRIPOS>BOND
     1    1    2 ar  
     2    1    6 ar  
     3    1    7 1   
     4    2    3 ar  
     5    2   38 1   
     6    3    4 ar  
     7    3   39 1   
     8    4    5 ar  
     9    4    8 1   
    10    5    6 ar  
    11    5   40 1   
    12    6   41 1   
    13    8    9 1   
    14    9   10 1   
    15    9   42 1   
    16    9   43 1   
    17   10   11 2   
    18   10   12 1   
    19   12   13 1   
    20   12   44 1   
    21   12   69 1   
    22   13   14 1   
    23   13   25 1   
    24   13   45 1   
    25   14   15 1   
    26   14   46 1   
    27   14   47 1   
    28   15   16 ar  
    29   15   20 ar  
    30   16   17 ar  
    31   16   48 1   
    32   17   18 ar  
    33   17   49 1   
    34   18   19 ar  
    35   18   21 1   
    36   19   20 ar  
    37   19   50 1   
    38   20   51 1   
    39   21   22 1   
    40   21   52 1   
    41   21   70 1   
    42   22   23 2   
    43   22   24 1   
    44   23   53 1   
    45   24   54 1   
    46   24   55 1   
    47   24   71 1   
    48   25   26 2   
    49   25   27 1   
    50   27   28 1   
    51   27   56 1   
    52   27   72 1   
    53   28   29 1   
    54   28   57 1   
    55   28   58 1   
    56   29   30 1   
    57   29   59 1   
    58   29   60 1   
    59   30   31 1   
    60   31   32 1   
    61   31   61 1   
    62   31   62 1   
    63   32   33 1   
    64   32   63 1   
    65   32   64 1   
    66   33   34 1   
    67   34   35 1   
    68   34   65 1   
    69   34   66 1   
    70   35   36 2   
    71   35   37 1   
    72   37   67 1   
    73   37   68 1   
    74   37   73 1   
@<TRIPOS>SUBSTRUCTURE
     1 2CE         1 TEMP              0 ****  ****    0 ROOT
