@<TRIPOS>MOLECULE
2CE
   72    73     1     0     0
SMALL
bcc


@<TRIPOS>ATOM
      1 C1          1.2390   -3.2070    2.8820 ca        1 2CE      0.090400
      2 C2          1.8460   -2.8500    4.1000 ca        1 2CE     -0.136000
      3 C3          1.6540   -1.5790    4.6210 ca        1 2CE     -0.047000
      4 C4          0.8620   -0.6410    3.9410 ca        1 2CE     -0.123100
      5 C5          0.2540   -1.0040    2.7290 ca        1 2CE     -0.047000
      6 C6          0.4430   -2.2770    2.1980 ca        1 2CE     -0.136000
      7 CL7         1.4680   -4.7480    2.2530 cl        1 2CE      0.020600
      8 S8          0.7330    0.9570    4.4670 ss        1 2CE     -0.180000
      9 C9         -0.6790    1.0130    5.5280 c3        1 2CE     -0.167300
     10 C10        -0.2800    1.2340    6.9400 c         1 2CE      0.610100
     11 O11        -0.6430    0.7000    7.9780 o         1 2CE     -0.492100
     12 N12         0.7990    2.3100    7.1350 n4        1 2CE     -0.708800
     13 C13         1.4080    2.3270    8.5010 c3        1 2CE      0.071500
     14 C14         2.5310    3.3850    8.6230 c3        1 2CE     -0.043100
     15 C15         3.4840    3.4110    7.4820 ca        1 2CE     -0.202300
     16 C16         3.2390    4.2450    6.3790 ca        1 2CE     -0.070500
     17 C17         4.1980    4.4390    5.3970 ca        1 2CE     -0.161000
     18 C18         5.4690    3.8130    5.5030 ca        1 2CE      0.194600
     19 C19         5.7010    2.9490    6.5940 ca        1 2CE     -0.161000
     20 C20         4.7190    2.7600    7.5640 ca        1 2CE     -0.070500
     21 N21         6.4510    4.1390    4.5560 nh        1 2CE     -0.775600
     22 C22         7.6300    3.3740    4.3720 c2        1 2CE      0.716100
     23 N23         7.8440    2.1110    4.2820 n2        1 2CE     -0.698100
     24 N24         8.8800    4.2410    4.2540 n4        1 2CE     -0.822600
     25 C25         0.3290    2.6840    9.5450 c         1 2CE      0.509100
     26 O26        -0.3160    3.7210    9.5000 o         1 2CE     -0.362100
     27 N27         0.0620    1.7140   10.6490 n4        1 2CE     -0.656800
     28 C28        -1.0750    2.1450   11.5380 c3        1 2CE      0.108800
     29 C29        -1.3560    1.1360   12.6550 c3        1 2CE      0.098400
     30 O30        -0.1770    1.0620   13.4490 os        1 2CE     -0.455600
     31 C31        -0.2940    0.2150   14.5920 c3        1 2CE      0.130400
     32 C32        -0.9830    0.9390   15.7510 c3        1 2CE      0.081400
     33 O33        -0.6260    0.1760   16.9130 os        1 2CE     -0.376600
     34 C34        -1.0560    0.7070   18.1410 c3        1 2CE      0.082400
     35 C35        -2.4620    0.1960   18.4410 c         1 2CE      0.503100
     36 O36        -3.3830    0.0730   17.6520 o         1 2CE     -0.388100
     37 N37        -2.7580   -0.2090   19.8650 n4        1 2CE     -0.758400
     38 H2          2.4740   -3.5830    4.6350 ha        1 2CE      0.183000
     39 H3          2.1390   -1.3070    5.5700 ha        1 2CE      0.142000
     40 H5         -0.3700   -0.2750    2.1830 ha        1 2CE      0.142000
     41 H6         -0.0340   -2.5510    1.2400 ha        1 2CE      0.183000
     42 H9C1       -1.3350    1.8630    5.1860 h1        1 2CE      0.169700
     43 H9C2       -1.3040    0.0770    5.4750 h1        1 2CE      0.169700
     44 H12         1.5550    2.1280    6.4330 hn        1 2CE      0.495300
     45 H13         1.8330    1.2950    8.6840 hx        1 2CE      0.133700
     46 H141        3.0860    3.1590    9.5760 hc        1 2CE      0.106700
     47 H142        2.0630    4.4040    8.7360 hc        1 2CE      0.106700
     48 H16         2.2900    4.8030    6.3040 ha        1 2CE      0.150000
     49 H17         3.9710    5.1150    4.5530 ha        1 2CE      0.169500
     50 H19         6.6700    2.4420    6.7280 ha        1 2CE      0.169500
     51 H20         4.9490    2.1080    8.4240 ha        1 2CE      0.150000
     52 H21         6.1790    4.7490    3.8100 hn        1 2CE      0.479800
     53 H23         7.0740    1.4740    4.3110 hn        1 2CE      0.485400
     54 H241        8.9490    4.8660    5.0660 hn        1 2CE      0.489133
     55 H242        8.8310    4.8010    3.3940 hn        1 2CE      0.489133
     56 H27         0.9020    1.6050   11.2380 hn        1 2CE      0.486800
     57 H281       -0.7970    3.1450   11.9840 hx        1 2CE      0.133700
     58 H282       -1.9990    2.2650   10.9020 hx        1 2CE      0.133700
     59 H291       -1.6150    0.1200   12.2520 h1        1 2CE      0.089200
     60 H292       -2.2190    1.5310   13.2590 h1        1 2CE      0.089200
     61 H311        0.7760   -0.0140   14.8600 h1        1 2CE      0.092700
     62 H312       -0.8370   -0.7310   14.3360 h1        1 2CE      0.092700
     63 H321       -0.6020    1.9890   15.8510 h1        1 2CE      0.064200
     64 H322       -2.0990    0.9410   15.6380 h1        1 2CE      0.064200
     65 H341       -0.3050    0.3270   18.8910 h1        1 2CE      0.121700
     66 H342       -1.0920    1.8310   18.1500 h1        1 2CE      0.121700
     67 H371       -3.7510   -0.4720   19.9630 hn        1 2CE      0.482467
     68 H372       -2.5570    0.5660   20.5070 hn        1 2CE      0.482467
     69 H122        0.3940    3.2330    6.9240 hn        1 2CE      0.495300
     70 H243        9.7220    3.6430    4.2120 hn        1 2CE      0.489133
     71 H272       -0.1660    0.7970   10.2320 hn        1 2CE      0.486800
     72 H373       -2.1790   -1.0160   20.1280 hn        1 2CE      0.482467
@<TRIPOS>BOND
     1    1    2 ar  
     2    1    6 ar  
     3    1    7 1   
     4    2    3 ar  
     5    2   38 1   
     6    3    4 ar  
     7    3   39 1   
     8    4    5 ar  
     9    4    8 1   
    10    5    6 ar  
    11    5   40 1   
    12    6   41 1   
    13    8    9 1   
    14    9   10 1   
    15    9   42 1   
    16    9   43 1   
    17   10   11 2   
    18   10   12 1   
    19   12   13 1   
    20   12   44 1   
    21   12   69 1   
    22   13   14 1   
    23   13   25 1   
    24   13   45 1   
    25   14   15 1   
    26   14   46 1   
    27   14   47 1   
    28   15   16 ar  
    29   15   20 ar  
    30   16   17 ar  
    31   16   48 1   
    32   17   18 ar  
    33   17   49 1   
    34   18   19 ar  
    35   18   21 1   
    36   19   20 ar  
    37   19   50 1   
    38   20   51 1   
    39   21   22 1   
    40   21   52 1   
    41   22   23 2   
    42   22   24 1   
    43   23   53 1   
    44   24   54 1   
    45   24   55 1   
    46   24   70 1   
    47   25   26 2   
    48   25   27 1   
    49   27   28 1   
    50   27   56 1   
    51   27   71 1   
    52   28   29 1   
    53   28   57 1   
    54   28   58 1   
    55   29   30 1   
    56   29   59 1   
    57   29   60 1   
    58   30   31 1   
    59   31   32 1   
    60   31   61 1   
    61   31   62 1   
    62   32   33 1   
    63   32   63 1   
    64   32   64 1   
    65   33   34 1   
    66   34   35 1   
    67   34   65 1   
    68   34   66 1   
    69   35   36 2   
    70   35   37 1   
    71   37   67 1   
    72   37   68 1   
    73   37   72 1   
@<TRIPOS>SUBSTRUCTURE
     1 2CE         1 TEMP              0 ****  ****    0 ROOT
