@<TRIPOS>MOLECULE
2CE
   68    63     1     0     0
SMALL
bcc


@<TRIPOS>ATOM
      1 C1         -1.9060   -6.1910   -7.2590 c1        1 2CE     -0.069000
      2 C2         -0.7750   -5.3790   -7.1470 c1        1 2CE     -0.120000
      3 C3         -0.8250   -4.2360   -6.4120 c1        1 2CE     -0.120000
      4 C4         -2.0060   -3.8740   -5.7680 c1        1 2CE     -0.235000
      5 C5         -3.1600   -4.6980   -5.8790 c1        1 2CE     -0.111000
      6 C6         -3.1080   -5.8230   -6.6040 c1        1 2CE     -0.106000
      7 CL7        -1.8590   -7.5970   -8.2540 cl        1 2CE     -0.010000
      8 S8         -2.0710   -2.3310   -4.7930 ss        1 2CE      0.261000
      9 C9         -1.4580   -2.6300   -3.1870 c3        1 2CE     -0.340000
     10 C10        -1.5890   -1.3460   -2.3370 c2        1 2CE      0.326000
     11 O11        -1.5850   -0.2130   -2.8970 o         1 2CE     -0.369000
     12 N12        -1.6910   -1.4360   -1.0010 n         1 2CE     -0.367000
     13 C13        -1.6440   -0.2020   -0.1650 c3        1 2CE      0.014000
     14 C14        -2.7790    0.6560   -0.4910 c3        1 2CE     -0.130000
     15 C15        -2.3160    2.1100   -0.5280 c2        1 2CE     -0.127000
     16 C16        -1.3440    2.4880   -1.4060 c2        1 2CE     -0.092000
     17 C17        -1.0350    3.8470   -1.5690 c1        1 2CE     -0.178000
     18 C18        -1.7110    4.8000   -0.8420 c1        1 2CE      0.048000
     19 C19        -2.6800    4.4250    0.0330 c1        1 2CE     -0.179000
     20 C20        -2.9920    3.0670    0.1980 c1        1 2CE     -0.099000
     21 N21        -1.4470    6.2310   -1.0800 n3        1 2CE     -0.279000
     22 C22        -0.9370    7.0340   -0.0520 c2        1 2CE      0.148000
     23 N23         0.3600    7.4370   -0.0890 n1        1 2CE     -0.291000
     24 N24        -1.8130    7.4490    1.0720 n3        1 2CE     -0.341000
     25 C25        -1.6990   -0.5880    1.3280 c2        1 2CE      0.288000
     26 O26        -2.7050   -0.7620    1.8340 o         1 2CE     -0.379000
     27 N27        -0.4700   -0.9020    2.0380 n         1 2CE     -0.368000
     28 C28        -0.2610   -0.4020    3.3210 c3        1 2CE     -0.026000
     29 C29         1.2350   -0.5360    3.6810 c3        1 2CE     -0.055000
     30 O30         1.5310    0.2840    4.7920 os        1 2CE     -0.280000
     31 C31         2.9450    0.7070    4.8740 c3        1 2CE     -0.023000
     32 C32         3.6850   -0.2200    5.7630 c3        1 2CE     -0.063000
     33 O33         5.1250   -0.0910    5.5160 os        1 2CE     -0.276000
     34 C34         5.7520   -1.2910    5.2560 c3        1 2CE     -0.044000
     35 C35         6.4600   -1.2060    3.9510 c2        1 2CE      0.266000
     36 O36         6.8340   -0.1170    3.5270 o         1 2CE     -0.374000
     37 N37         6.5530   -2.3760    3.1090 n         1 2CE     -0.427000
     38 H2          0.0450   -5.6290   -7.5930 ha        1 2CE      0.143000
     39 H3         -0.0750   -3.6980   -6.3400 ha        1 2CE      0.143000
     40 H5         -4.0210   -4.4360   -5.4110 ha        1 2CE      0.149000
     41 H6         -3.8770   -6.3740   -6.6790 ha        1 2CE      0.151000
     42 H9C1       -0.4830   -2.9020   -3.2410 h1        1 2CE      0.140000
     43 H9C2       -1.9600   -3.3260   -2.7830 h1        1 2CE      0.140000
     44 H12        -1.7640   -2.2840   -0.5900 hn        1 2CE      0.260000
     45 H13        -0.8220    0.2740   -0.3430 h1        1 2CE      0.135000
     46 H141       -3.4670    0.5520    0.1850 hc        1 2CE      0.107500
     47 H142       -3.1410    0.3990   -1.3740 hc        1 2CE      0.107500
     48 H16        -0.8740    1.8310   -1.9080 ha        1 2CE      0.163000
     49 H17        -0.3020    4.1320   -2.2320 ha        1 2CE      0.142000
     50 H19        -3.1590    5.1000    0.5480 ha        1 2CE      0.136000
     51 H20        -3.7160    2.7890    0.8570 ha        1 2CE      0.136000
     52 H21        -1.6620    6.6260   -1.9400 hn        1 2CE      0.206000
     53 H23         0.9150    7.1740   -0.8050 DU        1 2CE      0.168000
     54 H241       -2.0710    8.2650    1.1340 hn        1 2CE      0.196000
     55 H242       -2.0740    6.8300    1.7110 hn        1 2CE      0.196000
     56 H27         0.1740   -1.5480    1.6490 hn        1 2CE      0.244000
     57 H281       -0.5400    0.6020    3.3550 h1        1 2CE      0.113000
     58 H282       -0.8260   -0.9400    3.9910 h1        1 2CE      0.113000
     59 H291        1.4340   -1.4640    3.9020 h1        1 2CE      0.079500
     60 H292        1.7490   -0.2740    2.9590 h1        1 2CE      0.079500
     61 H311        3.3210    0.6920    4.0320 h1        1 2CE      0.101500
     62 H312        2.9970    1.6430    5.2490 h1        1 2CE      0.101500
     63 H321        3.4210   -1.0770    5.5940 h1        1 2CE      0.083000
     64 H322        3.5040   -0.0120    6.6530 h1        1 2CE      0.083000
     65 H341        6.3820   -1.4820    5.9470 h1        1 2CE      0.123500
     66 H342        5.0320   -2.0610    5.2140 h1        1 2CE      0.123500
     67 H371        6.7160   -2.2870    2.2500 hn        1 2CE      0.230500
     68 H372        6.5240   -3.2010    3.4790 hn        1 2CE      0.230500
@<TRIPOS>BOND
     1    1    6 1   
     2    1    7 1   
     3    2    3 1   
     4    2   38 1   
     5    3   39 1   
     6    4    5 1   
     7    4    8 1   
     8    5   40 1   
     9    6   41 1   
    10    8    9 1   
    11    9   10 1   
    12    9   42 1   
    13    9   43 1   
    14   10   11 1   
    15   10   12 1   
    16   12   13 1   
    17   12   44 1   
    18   13   14 1   
    19   13   25 1   
    20   13   45 1   
    21   14   15 1   
    22   14   46 1   
    23   14   47 1   
    24   15   16 1   
    25   15   20 1   
    26   16   17 1   
    27   16   48 1   
    28   17   49 1   
    29   18   19 1   
    30   18   21 1   
    31   19   50 1   
    32   20   51 1   
    33   21   22 1   
    34   21   52 1   
    35   22   23 1   
    36   22   24 1   
    37   24   54 1   
    38   24   55 1   
    39   25   26 1   
    40   25   27 1   
    41   27   28 1   
    42   27   56 1   
    43   28   29 1   
    44   28   57 1   
    45   28   58 1   
    46   29   30 1   
    47   29   59 1   
    48   29   60 1   
    49   30   31 1   
    50   31   32 1   
    51   31   61 1   
    52   31   62 1   
    53   32   33 1   
    54   32   63 1   
    55   32   64 1   
    56   33   34 1   
    57   34   35 1   
    58   34   65 1   
    59   34   66 1   
    60   35   36 1   
    61   35   37 1   
    62   37   67 1   
    63   37   68 1   
@<TRIPOS>SUBSTRUCTURE
     1 2CE         1 TEMP              0 ****  ****    0 ROOT
