@<TRIPOS>MOLECULE
2CE
   68    69     1     0     0
SMALL
bcc


@<TRIPOS>ATOM
      1 C1         -7.2390   -2.5050   -0.8600 ca        1 2CE      0.010400
      2 C2         -7.0590   -1.2630   -0.2370 ca        1 2CE     -0.106500
      3 C3         -5.7910   -0.6960   -0.1930 ca        1 2CE     -0.122000
      4 C4         -4.6920   -1.3530   -0.7690 ca        1 2CE     -0.009100
      5 C5         -4.8870   -2.5870   -1.3920 ca        1 2CE     -0.122000
      6 C6         -6.1530   -3.1680   -1.4380 ca        1 2CE     -0.106500
      7 CL7        -8.7850   -3.2060   -0.9120 cl        1 2CE     -0.086400
      8 S8         -3.2200   -0.5200   -0.6510 ss        1 2CE     -0.151000
      9 C9         -2.0070   -1.6460   -1.2610 c3        1 2CE     -0.129300
     10 C10        -0.6160   -1.1240   -0.9760 c         1 2CE      0.683100
     11 O11         0.2740   -1.1880   -1.8510 o         1 2CE     -0.618100
     12 N12        -0.3540   -0.6430    0.2870 n         1 2CE     -0.550900
     13 C13         0.9210   -0.0650    0.6340 c3        1 2CE      0.040700
     14 C14         0.8190    0.9920    1.7460 c3        1 2CE     -0.039100
     15 C15        -0.0500    2.1340    1.3660 ca        1 2CE     -0.121300
     16 C16        -1.2650    2.3540    2.0230 ca        1 2CE     -0.093000
     17 C17        -2.0690    3.4390    1.6960 ca        1 2CE     -0.176000
     18 C18        -1.6800    4.3380    0.6760 ca        1 2CE      0.127600
     19 C19        -0.4490    4.1130    0.0170 ca        1 2CE     -0.176000
     20 C20         0.3450    3.0270    0.3630 ca        1 2CE     -0.093000
     21 N21        -2.5460    5.3710    0.2670 nh        1 2CE     -0.716600
     22 C22        -1.9390    6.6170   -0.1990 c2        1 2CE      0.739100
     23 N23        -2.3030    7.2120   -1.2990 n2        1 2CE     -0.822100
     24 N24        -0.9680    7.2110    0.6610 nh        1 2CE     -0.903800
     25 C25         1.9350   -1.1470    1.1010 c         1 2CE      0.641100
     26 O26         2.3750   -1.1500    2.2660 o         1 2CE     -0.610100
     27 N27         2.2880   -2.0990    0.1720 n         1 2CE     -0.551900
     28 C28         3.3420   -3.0430    0.4170 c3        1 2CE      0.086000
     29 C29         4.3620   -3.1650   -0.7220 c3        1 2CE      0.107400
     30 O30         5.1230   -1.9620   -0.7360 os        1 2CE     -0.422600
     31 C31         6.1150   -1.9610   -1.7610 c3        1 2CE      0.125400
     32 C32         6.9370   -0.6920   -1.5670 c3        1 2CE      0.130400
     33 O33         8.1280   -1.0830   -0.8830 os        1 2CE     -0.433600
     34 C34         8.9520    0.0340   -0.5660 c3        1 2CE      0.056400
     35 C35        10.1710   -0.4420    0.2200 c         1 2CE      0.657100
     36 O36        11.2430    0.1910    0.1290 o         1 2CE     -0.618100
     37 N37        10.0490   -1.5110    1.0650 n         1 2CE     -0.653000
     38 H2         -7.9140   -0.7390    0.2150 ha        1 2CE      0.151500
     39 H3         -5.6460    0.2810    0.2970 ha        1 2CE      0.142000
     40 H5         -4.0430   -3.1170   -1.8610 ha        1 2CE      0.142000
     41 H6         -6.2930   -4.1420   -1.9300 ha        1 2CE      0.151500
     42 H9C1       -2.1040   -1.7780   -2.3690 h1        1 2CE      0.102200
     43 H9C2       -2.1110   -2.6550   -0.7860 h1        1 2CE      0.102200
     44 H12        -1.1010   -0.5270    0.9330 hn        1 2CE      0.333500
     45 H13         1.3560    0.4260   -0.2920 h1        1 2CE      0.085700
     46 H141        1.8620    1.3570    1.9520 hc        1 2CE      0.077700
     47 H142        0.4540    0.5080    2.6910 hc        1 2CE      0.077700
     48 H16        -1.5880    1.6660    2.8200 ha        1 2CE      0.135000
     49 H17        -3.0180    3.5880    2.2340 ha        1 2CE      0.138000
     50 H19        -0.1220    4.7870   -0.7890 ha        1 2CE      0.138000
     51 H20         1.3000    2.8670   -0.1620 ha        1 2CE      0.135000
     52 H21        -3.2870    5.5470    0.9190 hn        1 2CE      0.409800
     53 H23        -3.0550    6.7910   -1.8000 hn        1 2CE      0.412400
     54 H241       -0.5120    8.0080    0.2680 hn        1 2CE      0.401800
     55 H242       -0.3240    6.5550    1.0500 hn        1 2CE      0.401800
     56 H27         1.9990   -1.9740   -0.7740 hn        1 2CE      0.332500
     57 H281        3.8840   -2.7610    1.3660 h1        1 2CE      0.068700
     58 H282        2.8810   -4.0640    0.5580 h1        1 2CE      0.068700
     59 H291        5.0370   -4.0380   -0.5160 h1        1 2CE      0.035700
     60 H292        3.8630   -3.3110   -1.7170 h1        1 2CE      0.035700
     61 H311        6.7630   -2.8730   -1.6750 h1        1 2CE      0.044700
     62 H312        5.6120   -1.9470   -2.7640 h1        1 2CE      0.044700
     63 H321        7.2110   -0.2500   -2.5610 h1        1 2CE      0.048200
     64 H322        6.3720    0.0610   -0.9560 h1        1 2CE      0.048200
     65 H341        9.3040    0.5300   -1.5090 h1        1 2CE      0.062700
     66 H342        8.3850    0.7710    0.0630 h1        1 2CE      0.062700
     67 H371        9.2340   -2.0710    1.0370 hn        1 2CE      0.316500
     68 H372       10.8490   -1.8510    1.5380 hn        1 2CE      0.316500
@<TRIPOS>BOND
     1    1    2 ar  
     2    1    6 ar  
     3    1    7 1   
     4    2    3 ar  
     5    2   38 1   
     6    3    4 ar  
     7    3   39 1   
     8    4    5 ar  
     9    4    8 1   
    10    5    6 ar  
    11    5   40 1   
    12    6   41 1   
    13    8    9 1   
    14    9   10 1   
    15    9   42 1   
    16    9   43 1   
    17   10   11 2   
    18   10   12 1   
    19   12   13 1   
    20   12   44 1   
    21   13   14 1   
    22   13   25 1   
    23   13   45 1   
    24   14   15 1   
    25   14   46 1   
    26   14   47 1   
    27   15   16 ar  
    28   15   20 ar  
    29   16   17 ar  
    30   16   48 1   
    31   17   18 ar  
    32   17   49 1   
    33   18   19 ar  
    34   18   21 1   
    35   19   20 ar  
    36   19   50 1   
    37   20   51 1   
    38   21   22 1   
    39   21   52 1   
    40   22   23 2   
    41   22   24 1   
    42   23   53 1   
    43   24   54 1   
    44   24   55 1   
    45   25   26 2   
    46   25   27 1   
    47   27   28 1   
    48   27   56 1   
    49   28   29 1   
    50   28   57 1   
    51   28   58 1   
    52   29   30 1   
    53   29   59 1   
    54   29   60 1   
    55   30   31 1   
    56   31   32 1   
    57   31   61 1   
    58   31   62 1   
    59   32   33 1   
    60   32   63 1   
    61   32   64 1   
    62   33   34 1   
    63   34   35 1   
    64   34   65 1   
    65   34   66 1   
    66   35   36 2   
    67   35   37 1   
    68   37   67 1   
    69   37   68 1   
@<TRIPOS>SUBSTRUCTURE
     1 2CE         1 TEMP              0 ****  ****    0 ROOT
