@<TRIPOS>MOLECULE
2CE
   72    73     1     0     0
SMALL
bcc


@<TRIPOS>ATOM
      1 C1          1.8560   -3.5250    3.1660 ca        1 2CE      0.090400
      2 C2          2.4100   -3.0280    4.3610 ca        1 2CE     -0.136000
      3 C3          2.0530   -1.7670    4.8160 ca        1 2CE     -0.047000
      4 C4          1.1460   -0.9770    4.0920 ca        1 2CE     -0.123100
      5 C5          0.5930   -1.4790    2.9050 ca        1 2CE     -0.047000
      6 C6          0.9470   -2.7430    2.4390 ca        1 2CE     -0.136000
      7 Cl7         2.2860   -5.0530    2.6180 cl        1 2CE      0.020600
      8 S8          0.8090    0.6160    4.5340 ss        1 2CE     -0.180000
      9 C9         -0.5960    0.5420    5.6030 c3        1 2CE     -0.167300
     10 C10        -0.2290    0.8860    7.0000 c         1 2CE      0.610100
     11 O11        -0.5300    0.3710    8.0670 o         1 2CE     -0.491100
     12 N12         0.7130    2.0930    7.1310 ny        1 2CE     -0.708800
     13 C13         1.3160    2.2530    8.4890 c3        1 2CE      0.070500
     14 C14         2.3030    3.4440    8.5490 c3        1 2CE     -0.043100
     15 C15         3.2490    3.5230    7.4060 ca        1 2CE     -0.202300
     16 C16         2.9100    4.2600    6.2600 ca        1 2CE     -0.070500
     17 C17         3.8430    4.5150    5.2670 ca        1 2CE     -0.161000
     18 C18         5.1800    4.0530    5.4030 ca        1 2CE      0.194600
     19 C19         5.5100    3.2830    6.5390 ca        1 2CE     -0.161000
     20 C20         4.5540    3.0300    7.5200 ca        1 2CE     -0.070500
     21 N21         6.1200    4.4430    4.4380 nu        1 2CE     -0.775600
     22 C22         7.3830    3.8170    4.2930 c2        1 2CE      0.716100
     23 N23         7.7470    2.5860    4.2710 n2        1 2CE     -0.698100
     24 N24         8.5200    4.8200    4.1270 nz        1 2CE     -0.822600
     25 C25         0.2030    2.5310    9.5220 c         1 2CE      0.509100
     26 O26        -0.5670    3.4740    9.4250 o         1 2CE     -0.363100
     27 N27         0.0630    1.5990   10.6790 ny        1 2CE     -0.654800
     28 C28        -1.0860    1.9560   11.5850 c3        1 2CE      0.086800
     29 C29        -1.1860    1.0040   12.7860 c3        1 2CE      0.101400
     30 O30         0.0380    1.0380   13.4970 os        1 2CE     -0.454600
     31 C31        -0.0380    1.4920   14.8500 c3        1 2CE      0.128400
     32 C32        -0.4610    0.3770   15.8020 c3        1 2CE      0.079400
     33 O33        -1.8130    0.6680   16.1980 os        1 2CE     -0.398600
     34 C34        -2.2890   -0.0830   17.2870 c3        1 2CE      0.082400
     35 C35        -1.8430    0.5660   18.5930 c         1 2CE      0.499100
     36 O36        -0.8590    1.2590   18.7770 o         1 2CE     -0.378100
     37 N37        -2.7060    0.3200   19.8080 nz        1 2CE     -0.759400
     38 H2          3.1270   -3.6430    4.9310 ha        1 2CE      0.183000
     39 H3          2.4960   -1.3850    5.7470 ha        1 2CE      0.142500
     40 H5         -0.1200   -0.8680    2.3240 ha        1 2CE      0.142500
     41 H6          0.5110   -3.1260    1.4990 ha        1 2CE      0.183000
     42 H9C1       -1.3590    1.2800    5.2240 h1        1 2CE      0.169700
     43 H9C2       -1.0930   -0.4700    5.6040 h1        1 2CE      0.169700
     44 H12         1.4840    1.9660    6.4330 hn        1 2CE      0.495300
     45 H13         1.8640    1.2910    8.7220 hx        1 2CE      0.133700
     46 H141        1.7140    4.4040    8.6070 hc        1 2CE      0.105700
     47 H142        2.8770    3.3400    9.5120 hc        1 2CE      0.105700
     48 H16         1.9010    4.6950    6.1570 ha        1 2CE      0.150000
     49 H17         3.5400    5.1110    4.3880 ha        1 2CE      0.169500
     50 H19         6.5320    2.9040    6.6980 ha        1 2CE      0.169500
     51 H20         4.8560    2.4580    8.4140 ha        1 2CE      0.150000
     52 H21         5.7790    4.9740    3.6600 hn        1 2CE      0.479800
     53 H23         7.0590    1.8630    4.3340 hn        1 2CE      0.485400
     54 H241        8.4080    5.3240    3.2380 hn        1 2CE      0.489133
     55 H242        8.5090    5.4910    4.9040 hn        1 2CE      0.489133
     56 H27        -0.0830    0.6420   10.3150 hn        1 2CE      0.486800
     57 H281       -0.9230    3.0150   11.9390 hx        1 2CE      0.128700
     58 H282       -2.0390    1.9100   10.9840 hx        1 2CE      0.128700
     59 H291       -1.3410   -0.0590   12.4500 h1        1 2CE      0.101700
     60 H292       -2.0640    1.3290   13.4090 h1        1 2CE      0.101700
     61 H311        1.0240    1.7930   15.0740 h1        1 2CE      0.093700
     62 H312       -0.7220    2.3770   14.9400 h1        1 2CE      0.093700
     63 H321        0.2040    0.3750   16.7060 h1        1 2CE      0.078200
     64 H322       -0.4380   -0.6260   15.3000 h1        1 2CE      0.078200
     65 H341       -1.9130   -1.1440   17.2790 h1        1 2CE      0.119700
     66 H342       -3.4120   -0.0540   17.1840 h1        1 2CE      0.119700
     67 H371       -3.6330    0.7420   19.6750 hn        1 2CE      0.482133
     68 H372       -2.2710    0.7430   20.6430 hn        1 2CE      0.482133
     69 H122        0.1990    2.9480    6.8760 hn        1 2CE      0.495300
     70 H243        9.4280    4.3260    4.1160 hn        1 2CE      0.489133
     71 H272        0.9260    1.6010   11.2460 hn        1 2CE      0.486800
     72 H373       -2.8220   -0.6860   19.9700 hn        1 2CE      0.482133
@<TRIPOS>BOND
     1    1    2 ar  
     2    1    6 ar  
     3    1    7 1   
     4    2    3 ar  
     5    2   38 1   
     6    3    4 ar  
     7    3   39 1   
     8    4    5 ar  
     9    4    8 1   
    10    5    6 ar  
    11    5   40 1   
    12    6   41 1   
    13    8    9 1   
    14    9   10 1   
    15    9   42 1   
    16    9   43 1   
    17   10   11 2   
    18   10   12 1   
    19   12   13 1   
    20   12   44 1   
    21   12   69 1   
    22   13   14 1   
    23   13   25 1   
    24   13   45 1   
    25   14   15 1   
    26   14   46 1   
    27   14   47 1   
    28   15   16 ar  
    29   15   20 ar  
    30   16   17 ar  
    31   16   48 1   
    32   17   18 ar  
    33   17   49 1   
    34   18   19 ar  
    35   18   21 1   
    36   19   20 ar  
    37   19   50 1   
    38   20   51 1   
    39   21   22 1   
    40   21   52 1   
    41   22   23 2   
    42   22   24 1   
    43   23   53 1   
    44   24   54 1   
    45   24   55 1   
    46   24   70 1   
    47   25   26 2   
    48   25   27 1   
    49   27   28 1   
    50   27   56 1   
    51   27   71 1   
    52   28   29 1   
    53   28   57 1   
    54   28   58 1   
    55   29   30 1   
    56   29   59 1   
    57   29   60 1   
    58   30   31 1   
    59   31   32 1   
    60   31   61 1   
    61   31   62 1   
    62   32   33 1   
    63   32   63 1   
    64   32   64 1   
    65   33   34 1   
    66   34   35 1   
    67   34   65 1   
    68   34   66 1   
    69   35   36 2   
    70   35   37 1   
    71   37   67 1   
    72   37   68 1   
    73   37   72 1   
@<TRIPOS>SUBSTRUCTURE
     1 2CE         1 TEMP              0 ****  ****    0 ROOT
