@<TRIPOS>MOLECULE
2CF
   49    48     1     0     0
SMALL
bcc


@<TRIPOS>ATOM
      1 F           0.0000    0.0000    0.0000 f         1 2CF     -0.177500
      2 C1          1.3510    0.0000    0.0000 c2        1 2CF      0.138300
      3 C2          2.0080    0.0000    1.1370 c2        1 2CF     -0.303400
      4 C3          3.5080   -0.1400    1.1400 c3        1 2CF      0.046800
      5 C4          1.2610    0.1400    2.4390 c3        1 2CF      0.087100
      6 C5          4.1500    1.2490    1.1580 c3        1 2CF     -0.008200
      7 C6          5.6500    1.1090    1.1620 c2        1 2CF     -0.103200
      8 C7          6.3620    1.7070    2.0850 c2        1 2CF     -0.222400
      9 C8          7.8440    1.4530    2.1770 c3        1 2CF      0.044800
     10 C9          8.5960    2.5410    1.4080 c3        1 2CF      0.018800
     11 PA          2.4640   -1.5650   -3.4470 p5        1 2CF      0.890800
     12 PB          1.8020   -3.6580   -5.4370 p5        1 2CF      0.767900
     13 C10        10.0800    2.2870    1.5000 c2        1 2CF     -0.233200
     14 C11        10.7730    2.0580    0.4120 c2        1 2CF     -0.211400
     15 C12        10.0820    2.0110   -0.9260 c3        1 2CF      0.075100
     16 C13        12.2610    1.8420    0.5000 c3        1 2CF      0.075100
     17 C14         5.6980    2.6500    3.0550 c3        1 2CF      0.070100
     18 C15         2.1040   -0.0070   -1.3050 c3        1 2CF      0.310600
     19 O1A         1.8260   -1.2190   -2.0090 os        1 2CF     -0.483200
     20 O2A         2.1640   -0.4690   -4.3960 o         1 2CF     -0.697500
     21 O3A         4.0590   -1.7250   -3.3000 o         1 2CF     -0.697500
     22 OB1         3.2020   -4.4120   -5.6930 o         1 2CF     -0.740500
     23 OB2         1.5910   -2.6400   -6.4910 o         1 2CF     -0.740500
     24 OB3         0.6010   -4.7290   -5.4770 o         1 2CF     -0.740500
     25 OB4         1.8340   -2.9400   -3.9970 os        1 2CF     -0.454800
     26 H3          3.8230   -0.6720    0.2510 hc        1 2CF      0.038200
     27 H3A         3.8170   -0.6920    2.0200 hc        1 2CF      0.038200
     28 H4          0.4670   -0.5960    2.4800 hc        1 2CF     -0.014633
     29 H4A         1.9430   -0.0190    3.2650 hc        1 2CF     -0.014633
     30 H4B         0.8370    1.1340    2.5060 hc        1 2CF     -0.014633
     31 H5          3.8340    1.7810    2.0480 hc        1 2CF      0.019200
     32 H5A         3.8410    1.8010    0.2790 hc        1 2CF      0.019200
     33 H6          6.1400    0.5140    0.4010 ha        1 2CF      0.127000
     34 H8          8.1490    1.4690    3.2160 hc        1 2CF      0.009200
     35 H8A         8.0720    0.4850    1.7480 hc        1 2CF      0.009200
     36 H9          8.2910    2.5260    0.3690 hc        1 2CF      0.018200
     37 H9A         8.3690    3.5090    1.8370 hc        1 2CF      0.018200
     38 H10        10.5770    2.3200    2.4620 ha        1 2CF      0.086000
     39 H12         9.5780    2.9530   -1.1060 hc        1 2CF     -0.003800
     40 H12A        9.3570    1.2070   -0.9310 hc        1 2CF     -0.003800
     41 H12B       10.8160    1.8400   -1.7050 hc        1 2CF     -0.003800
     42 H13        12.7450    2.7690    0.7830 hc        1 2CF     -0.003800
     43 H13A       12.4730    1.0820    1.2430 hc        1 2CF     -0.003800
     44 H13B       12.6370    1.5180   -0.4640 hc        1 2CF     -0.003800
     45 H14         5.1280    3.3900    2.5070 hc        1 2CF     -0.004967
     46 H14A        6.4540    3.1450    3.6520 hc        1 2CF     -0.004967
     47 H14B        5.0340    2.0910    3.7040 hc        1 2CF     -0.004967
     48 H15         1.7930    0.8390   -1.9060 h1        1 2CF     -0.005800
     49 H15A        3.1680    0.0610   -1.1090 h1        1 2CF     -0.005800
@<TRIPOS>BOND
     1    1    2 1   
     2    2    3 2   
     3    2   18 1   
     4    3    4 1   
     5    3    5 1   
     6    4    6 1   
     7    4   26 1   
     8    4   27 1   
     9    5   28 1   
    10    5   29 1   
    11    5   30 1   
    12    6    7 1   
    13    6   31 1   
    14    6   32 1   
    15    7    8 2   
    16    7   33 1   
    17    8    9 1   
    18    8   17 1   
    19    9   10 1   
    20    9   34 1   
    21    9   35 1   
    22   10   13 1   
    23   10   36 1   
    24   10   37 1   
    25   11   19 1   
    26   11   20 1   
    27   11   21 1   
    28   11   25 1   
    29   12   22 1   
    30   12   23 1   
    31   12   24 1   
    32   12   25 1   
    33   13   14 2   
    34   13   38 1   
    35   14   15 1   
    36   14   16 1   
    37   15   39 1   
    38   15   40 1   
    39   15   41 1   
    40   16   42 1   
    41   16   43 1   
    42   16   44 1   
    43   17   45 1   
    44   17   46 1   
    45   17   47 1   
    46   18   19 1   
    47   18   48 1   
    48   18   49 1   
@<TRIPOS>SUBSTRUCTURE
     1 2CF         1 TEMP              0 ****  ****    0 ROOT
