@<TRIPOS>MOLECULE
2CF
   49    48     1     0     0
SMALL
bcc


@<TRIPOS>ATOM
      1 F          -1.9070   -3.9050    0.9970 f         1 2CF     -0.244500
      2 C1         -1.0080   -2.9880    0.5160 c2        1 2CF      0.108300
      3 C2          0.0900   -3.4450   -0.1390 c2        1 2CF     -0.214400
      4 C3          1.1250   -2.5520   -0.7170 c3        1 2CF     -0.057200
      5 C4          0.3320   -4.8970   -0.3430 c3        1 2CF     -0.032900
      6 C5          2.5200   -2.8520   -0.1860 c3        1 2CF     -0.035200
      7 C6          3.4050   -1.6800   -0.3860 c2        1 2CF     -0.109200
      8 C7          4.7470   -1.6770   -0.3880 c2        1 2CF     -0.232400
      9 C8          5.4890   -0.3970   -0.5940 c3        1 2CF     -0.003200
     10 C9          5.0070    0.7210    0.3160 c3        1 2CF     -0.064200
     11 PA          0.0230    0.6520    0.8810 p5        1 2CF      1.581800
     12 PB         -1.7730    3.4260    0.3690 p5        1 2CF      1.450900
     13 C10         5.5060    2.0370   -0.1450 c2        1 2CF     -0.217200
     14 C11         4.7360    3.1250   -0.3180 c2        1 2CF     -0.086400
     15 C12         3.2780    3.1610   -0.0580 c3        1 2CF     -0.080400
     16 C13         5.3280    4.4050   -0.7890 c3        1 2CF     -0.080400
     17 C14         5.5950   -2.8780   -0.2150 c3        1 2CF     -0.022900
     18 C15        -1.4380   -1.5620    0.8650 c3        1 2CF      0.237600
     19 O1A        -0.8640   -0.5960    0.0920 os        1 2CF     -0.558200
     20 O2A         0.0720    0.1650    2.2900 o         1 2CF     -0.925000
     21 O3A         1.3170    0.5670    0.1260 o         1 2CF     -0.925000
     22 OB1        -0.8990    4.4430    1.0470 o         1 2CF     -0.951833
     23 OB2        -3.0790    3.1420    1.0540 o         1 2CF     -0.951833
     24 OB3        -1.8590    3.5590   -1.1240 o         1 2CF     -0.951833
     25 OB4        -0.8350    1.9040    0.6160 os        1 2CF     -0.795800
     26 H3          1.1230   -2.6710   -1.8330 hc        1 2CF      0.095200
     27 H3A         0.8830   -1.4580   -0.4970 hc        1 2CF      0.095200
     28 H4          0.6080   -5.0970   -1.4090 hc        1 2CF      0.007367
     29 H4A         1.1820   -5.2380    0.3010 hc        1 2CF      0.007367
     30 H4B        -0.5660   -5.5120   -0.0910 hc        1 2CF      0.007367
     31 H5          2.4580   -3.0590    0.9170 hc        1 2CF      0.018700
     32 H5A         2.9320   -3.7750   -0.6760 hc        1 2CF      0.018700
     33 H6          2.8390   -0.7140   -0.4910 ha        1 2CF      0.244000
     34 H8          6.5900   -0.5590   -0.4350 hc        1 2CF      0.006700
     35 H8A         5.3600   -0.0760   -1.6640 hc        1 2CF      0.006700
     36 H9          3.8750    0.7230    0.3680 hc        1 2CF      0.083200
     37 H9A         5.3770    0.5320    1.3600 hc        1 2CF      0.083200
     38 H10         6.5870    2.0810   -0.3580 ha        1 2CF      0.066000
     39 H12         3.0810    3.2080    1.0430 hc        1 2CF      0.053200
     40 H12A        2.7990    4.0520   -0.5330 hc        1 2CF      0.053200
     41 H12B        2.7470    2.2390   -0.4350 hc        1 2CF      0.053200
     42 H13         6.4380    4.3420   -0.9040 hc        1 2CF      0.053200
     43 H13A        4.8850    4.6830   -1.7780 hc        1 2CF      0.053200
     44 H13B        5.0920    5.2230   -0.0630 hc        1 2CF      0.053200
     45 H14         6.2600   -3.0230   -1.1040 hc        1 2CF      0.006033
     46 H14A        6.2500   -2.7650    0.6860 hc        1 2CF      0.006033
     47 H14B        4.9800   -3.8020   -0.0830 hc        1 2CF      0.006033
     48 H15        -2.5610   -1.5510    0.7160 h1        1 2CF      0.041700
     49 H15A       -1.2030   -1.4100    1.9620 h1        1 2CF      0.041700
@<TRIPOS>BOND
     1    1    2 1   
     2    2    3 2   
     3    2   18 1   
     4    3    4 1   
     5    3    5 1   
     6    4    6 1   
     7    4   26 1   
     8    4   27 1   
     9    5   28 1   
    10    5   29 1   
    11    5   30 1   
    12    6    7 1   
    13    6   31 1   
    14    6   32 1   
    15    7    8 2   
    16    7   33 1   
    17    8    9 1   
    18    8   17 1   
    19    9   10 1   
    20    9   34 1   
    21    9   35 1   
    22   10   13 1   
    23   10   36 1   
    24   10   37 1   
    25   11   19 1   
    26   11   20 1   
    27   11   21 1   
    28   11   25 1   
    29   12   22 1   
    30   12   23 1   
    31   12   24 1   
    32   12   25 1   
    33   13   14 2   
    34   13   38 1   
    35   14   15 1   
    36   14   16 1   
    37   15   39 1   
    38   15   40 1   
    39   15   41 1   
    40   16   42 1   
    41   16   43 1   
    42   16   44 1   
    43   17   45 1   
    44   17   46 1   
    45   17   47 1   
    46   18   19 1   
    47   18   48 1   
    48   18   49 1   
@<TRIPOS>SUBSTRUCTURE
     1 2CF         1 TEMP              0 ****  ****    0 ROOT
