@<TRIPOS>MOLECULE
2CH
   13    13     1     0     0
SMALL
bcc


@<TRIPOS>ATOM
      1 C1          0.9810   -0.1320    0.3160 ca        1 2CH      0.137100
      2 C2          1.0580   -0.0430    1.7180 ca        1 2CH     -0.151000
      3 C3         -0.1110    0.0440    2.4630 ca        1 2CH     -0.094000
      4 C4         -1.3570    0.0430    1.8310 ca        1 2CH     -0.159000
      5 C5         -1.4390   -0.0460    0.4450 ca        1 2CH     -0.085000
      6 C6         -0.2720   -0.1340   -0.3210 ca        1 2CH     -0.071600
      7 O           2.1830   -0.2140   -0.3440 oh        1 2CH     -0.491100
      8 CL8        -0.3920   -0.2410   -2.0160 cl        1 2CH     -0.096400
      9 H2          2.0470   -0.0430    2.1980 ha        1 2CH      0.155000
     10 H3         -0.0530    0.1140    3.5600 ha        1 2CH      0.139000
     11 H4         -2.2770    0.1120    2.4290 ha        1 2CH      0.139000
     12 H5         -2.4210   -0.0470   -0.0530 ha        1 2CH      0.148000
     13 H           2.0070   -0.2720   -1.2960 ho        1 2CH      0.430000
@<TRIPOS>BOND
     1    1    2 ar  
     2    1    6 ar  
     3    1    7 1   
     4    2    3 ar  
     5    2    9 1   
     6    3    4 ar  
     7    3   10 1   
     8    4    5 ar  
     9    4   11 1   
    10    5    6 ar  
    11    5   12 1   
    12    6    8 1   
    13    7   13 1   
@<TRIPOS>SUBSTRUCTURE
     1 2CH         1 TEMP              0 ****  ****    0 ROOT
