@<TRIPOS>MOLECULE
2CH
   13    13     1     0     0
SMALL
bcc


@<TRIPOS>ATOM
      1 C1          0.0880   -0.1420   -0.0540 ca        1 2CH      0.137100
      2 C2          1.4910   -0.0440   -0.0040 ca        1 2CH     -0.151000
      3 C3          2.1270    0.0540    1.2270 ca        1 2CH     -0.094000
      4 C4          1.3850    0.0560    2.4110 ca        1 2CH     -0.159000
      5 C5         -0.0030   -0.0410    2.3670 ca        1 2CH     -0.085000
      6 C6         -0.6590   -0.1410    1.1360 ca        1 2CH     -0.071600
      7 O          -0.4590   -0.2350   -1.3100 oh        1 2CH     -0.491100
      8 CL8        -2.3580   -0.2580    1.1030 cl        1 2CH     -0.096400
      9 H2          2.0590   -0.0470   -0.9460 ha        1 2CH      0.155000
     10 H3          3.2240    0.1310    1.2680 ha        1 2CH      0.139000
     11 H4          1.8960    0.1340    3.3810 ha        1 2CH      0.139000
     12 H5         -0.5880   -0.0400    3.3000 ha        1 2CH      0.148000
     13 H          -1.4230   -0.2970   -1.2210 ho        1 2CH      0.430000
@<TRIPOS>BOND
     1    1    2 ar  
     2    1    6 ar  
     3    1    7 1   
     4    2    3 ar  
     5    2    9 1   
     6    3    4 ar  
     7    3   10 1   
     8    4    5 ar  
     9    4   11 1   
    10    5    6 ar  
    11    5   12 1   
    12    6    8 1   
    13    7   13 1   
@<TRIPOS>SUBSTRUCTURE
     1 2CH         1 TEMP              0 ****  ****    0 ROOT
