@<TRIPOS>MOLECULE
2CH
   13    13     1     0     0
SMALL
bcc


@<TRIPOS>ATOM
      1 C1          0.0850   -0.1270   -0.0540 ca        1 2CH      0.137100
      2 C2          1.4870   -0.0090   -0.0070 ca        1 2CH     -0.151000
      3 C3          2.1260    0.0730    1.2240 ca        1 2CH     -0.094000
      4 C4          1.3880    0.0390    2.4100 ca        1 2CH     -0.159000
      5 C5          0.0020   -0.0780    2.3700 ca        1 2CH     -0.085000
      6 C6         -0.6580   -0.1620    1.1390 ca        1 2CH     -0.071600
      7 O          -0.4660   -0.2030   -1.3090 oh        1 2CH     -0.491100
      8 Cl8        -2.3540   -0.3050    1.1100 cl        1 2CH     -0.096400
      9 H2          2.0510    0.0170   -0.9500 ha        1 2CH      0.155000
     10 H3          3.2220    0.1660    1.2620 ha        1 2CH      0.139000
     11 H4          1.9030    0.1050    3.3790 ha        1 2CH      0.139000
     12 H5         -0.5780   -0.1050    3.3040 ha        1 2CH      0.148000
     13 H          -1.4290   -0.2810   -1.2180 ho        1 2CH      0.430000
@<TRIPOS>BOND
     1    1    2 ar  
     2    1    6 ar  
     3    1    7 1   
     4    2    3 ar  
     5    2    9 1   
     6    3    4 ar  
     7    3   10 1   
     8    4    5 ar  
     9    4   11 1   
    10    5    6 ar  
    11    5   12 1   
    12    6    8 1   
    13    7   13 1   
@<TRIPOS>SUBSTRUCTURE
     1 2CH         1 TEMP              0 ****  ****    0 ROOT
