@<TRIPOS>MOLECULE
2CH
   13    10     1     0     0
SMALL
bcc


@<TRIPOS>ATOM
      1 C1         -0.5040    0.0600   -0.9620 c1        1 2CH      0.120600
      2 C2          0.8820    0.0600   -0.9620 c1        1 2CH     -0.064750
      3 C3          1.5750    0.0600    0.2380 c1        1 2CH     -0.064750
      4 C4          0.8820    0.0600    1.4390 c1        1 2CH     -0.064750
      5 C5         -0.5040    0.0600    1.4390 c1        1 2CH     -0.064750
      6 C6         -1.1970    0.0600    0.2380 c1        1 2CH     -0.060100
      7 O          -1.2080    0.0760   -2.1800 oh        1 2CH     -0.474600
      8 CL8        -2.9410    0.0750    0.2390 cl        1 2CH     -0.107900
      9 H2          1.3700    0.0600   -1.8070 ha        1 2CH      0.087750
     10 H3          2.5510    0.0600    0.2380 ha        1 2CH      0.087750
     11 H4          1.3700    0.0600    2.2840 ha        1 2CH      0.087750
     12 H5         -0.9920    0.0600    2.2840 ha        1 2CH      0.087750
     13 H          -1.2840   -0.7520   -2.4890 ho        1 2CH      0.430000
@<TRIPOS>BOND
     1    1    6 3   
     2    1    7 1   
     3    2    3 3   
     4    2    9 1   
     5    3   10 1   
     6    4    5 3   
     7    4   11 1   
     8    5   12 1   
     9    6    8 1   
    10    7   13 1   
@<TRIPOS>SUBSTRUCTURE
     1 2CH         1 TEMP              0 ****  ****    0 ROOT
