@<TRIPOS>MOLECULE
2CJ
   62    65     1     0     0
SMALL
bcc


@<TRIPOS>ATOM
      1 OAA         0.9820   -3.9450   -0.1950 o         1 2CJ     -0.862300
      2 OAB         2.2670   -2.5070   -4.2840 o         1 2CJ     -0.614100
      3 OAC        -0.8660   -2.8000   -0.6020 o         1 2CJ     -0.862300
      4 CAD        -3.9070   -7.0490    0.4120 ca        1 2CJ     -0.147000
      5 CAE         2.1780  -10.5460   -0.4170 ca        1 2CJ     -0.147000
      6 CAF        -3.1400   -5.8950    0.5740 ca        1 2CJ     -0.147750
      7 CAG        -3.3830   -8.1390   -0.2810 ca        1 2CJ     -0.147750
      8 CAH         2.2040   -9.5160    0.5220 ca        1 2CJ     -0.147750
      9 CAI         1.4800  -10.3740   -1.6110 ca        1 2CJ     -0.147750
     10 CAJ        -1.8490   -5.8270    0.0530 ca        1 2CJ     -0.115750
     11 CAK        -2.0920   -8.0780   -0.8060 ca        1 2CJ     -0.115750
     12 CAL         1.5360   -8.3200    0.2700 ca        1 2CJ     -0.115750
     13 CAM         0.8060   -9.1790   -1.8660 ca        1 2CJ     -0.115750
     14 CAN         0.1590    1.2460   -1.5450 c3        1 2CJ     -0.076900
     15 CAO         1.4520    1.3280   -2.3460 c3        1 2CJ     -0.076900
     16 CAP         1.7120   -5.2350   -4.2030 c3        1 2CJ      0.071500
     17 CAQ        -0.6130   -4.6800   -4.2110 c3        1 2CJ      0.071500
     18 CAR         1.5520   -5.9090   -2.8240 c3        1 2CJ      0.106300
     19 CAS        -0.8190   -5.3720   -2.8500 c3        1 2CJ      0.106300
     20 CAT        -0.4730   -0.1030   -1.8480 c3        1 2CJ     -0.078400
     21 CAU         1.6900   -0.0380   -2.9750 c3        1 2CJ     -0.078400
     22 CAV         1.2730   -1.8150   -1.2520 c3        1 2CJ     -0.181400
     23 CAW         0.0710   -1.9380   -3.4500 c3        1 2CJ     -0.150400
     24 CAX         0.3970   -2.9130   -0.6470 c         1 2CJ      0.898600
     25 CAY         1.1000   -2.8800   -4.0440 c         1 2CJ      0.660100
     26 CAZ        -1.3160   -6.9290   -0.6340 ca        1 2CJ     -0.064300
     27 CBA         0.8260   -8.1430   -0.9260 ca        1 2CJ     -0.064300
     28 CBB         0.1050   -6.8300   -1.1430 c3        1 2CJ      0.228100
     29 NBC         0.7310   -4.1870   -4.4340 n         1 2CJ     -0.442800
     30 NBD         0.1930   -6.3860   -2.5550 n3        1 2CJ     -0.704600
     31 CBE         0.6500   -1.0090   -2.3870 c3        1 2CJ     -0.012000
     32 HAF        -3.5530   -5.0270    1.1080 ha        1 2CJ      0.118000
     33 HAG        -3.9860   -9.0470   -0.4160 ha        1 2CJ      0.118000
     34 HAH         2.7570   -9.6450    1.4640 ha        1 2CJ      0.118000
     35 HAI         1.4600  -11.1810   -2.3570 ha        1 2CJ      0.118000
     36 HAJ        -1.2460   -4.8930    0.1560 ha        1 2CJ      0.160500
     37 HAK        -1.6810   -8.9380   -1.3550 ha        1 2CJ      0.160500
     38 HAL         1.5670   -7.5040    1.0100 ha        1 2CJ      0.160500
     39 HAM         0.2610   -9.0490   -2.8130 ha        1 2CJ      0.160500
     40 HAN        -0.5330    2.0820   -1.8130 hc        1 2CJ      0.024200
     41 HANA        0.3780    1.3310   -0.4510 hc        1 2CJ      0.024200
     42 HAO         2.3070    1.6090   -1.6810 hc        1 2CJ      0.024200
     43 HAOA        1.3780    2.1150   -3.1380 hc        1 2CJ      0.024200
     44 HAP         1.5880   -6.0000   -5.0190 h1        1 2CJ      0.050450
     45 HAPA        2.7480   -4.8030   -4.2690 h1        1 2CJ      0.050450
     46 HAQ        -0.8200   -5.4200   -5.0370 h1        1 2CJ      0.050450
     47 HAQA       -1.3620   -3.8480   -4.3070 h1        1 2CJ      0.050450
     48 HAR         1.8950   -5.1760   -2.0290 h1        1 2CJ      0.067950
     49 HARA        2.2270   -6.8080   -2.7930 h1        1 2CJ      0.067950
     50 HAS        -0.8650   -4.5770   -2.0410 h1        1 2CJ      0.067950
     51 HASA       -1.8140   -5.8980   -2.8810 h1        1 2CJ      0.067950
     52 HAT        -0.9370   -0.5710   -0.9420 hc        1 2CJ      0.052450
     53 HATA       -1.2760    0.0170   -2.6190 hc        1 2CJ      0.052450
     54 HAU         1.5740    0.0170   -4.0870 hc        1 2CJ      0.052450
     55 HAUA        2.7270   -0.4050   -2.7760 hc        1 2CJ      0.052450
     56 HAV         1.5500   -1.1130   -0.4250 hc        1 2CJ      0.042200
     57 HAVA        2.2140   -2.2980   -1.6270 hc        1 2CJ      0.042200
     58 HAW        -0.3630   -1.3400   -4.2940 hc        1 2CJ      0.075700
     59 HAWA       -0.7580   -2.5050   -2.9390 hc        1 2CJ      0.075700
     60 HBB         0.6180   -6.0450   -0.4820 h1        1 2CJ      0.122700
     61 HAD        -4.9230   -7.0980    0.8270 ha        1 2CJ      0.111000
     62 HAE         2.7070  -11.4880   -0.2180 ha        1 2CJ      0.111000
@<TRIPOS>BOND
     1    1   24 1   
     2    2   25 2   
     3    3   24 1   
     4    4    6 ar  
     5    4    7 ar  
     6    4   61 1   
     7    5    8 ar  
     8    5    9 ar  
     9    5   62 1   
    10    6   10 ar  
    11    6   32 1   
    12    7   11 ar  
    13    7   33 1   
    14    8   12 ar  
    15    8   34 1   
    16    9   13 ar  
    17    9   35 1   
    18   10   26 ar  
    19   10   36 1   
    20   11   26 ar  
    21   11   37 1   
    22   12   27 ar  
    23   12   38 1   
    24   13   27 ar  
    25   13   39 1   
    26   14   15 1   
    27   14   20 1   
    28   14   40 1   
    29   14   41 1   
    30   15   21 1   
    31   15   42 1   
    32   15   43 1   
    33   16   18 1   
    34   16   29 1   
    35   16   44 1   
    36   16   45 1   
    37   17   19 1   
    38   17   29 1   
    39   17   46 1   
    40   17   47 1   
    41   18   30 1   
    42   18   48 1   
    43   18   49 1   
    44   19   30 1   
    45   19   50 1   
    46   19   51 1   
    47   20   31 1   
    48   20   52 1   
    49   20   53 1   
    50   21   31 1   
    51   21   54 1   
    52   21   55 1   
    53   22   24 1   
    54   22   31 1   
    55   22   56 1   
    56   22   57 1   
    57   23   25 1   
    58   23   31 1   
    59   23   58 1   
    60   23   59 1   
    61   25   29 1   
    62   26   28 1   
    63   27   28 1   
    64   28   30 1   
    65   28   60 1   
@<TRIPOS>SUBSTRUCTURE
     1 2CJ         1 TEMP              0 ****  ****    0 ROOT
