@<TRIPOS>MOLECULE
2CJ
   62    65     1     0     0
SMALL
bcc


@<TRIPOS>ATOM
      1 OAA         1.0290   -3.9840   -0.1980 o         1 2CJ     -0.862300
      2 OAB         2.2140   -2.4530   -4.2830 o         1 2CJ     -0.614100
      3 OAC        -0.8190   -2.8140   -0.5250 o         1 2CJ     -0.862300
      4 CAD        -3.8730   -7.0590    0.4640 ca        1 2CJ     -0.147000
      5 CAE         2.1550  -10.5870   -0.6190 ca        1 2CJ     -0.147000
      6 CAF        -3.0910   -5.9170    0.6340 ca        1 2CJ     -0.147750
      7 CAG        -3.3780   -8.1350   -0.2710 ca        1 2CJ     -0.147750
      8 CAH         2.2160   -9.5810    0.3450 ca        1 2CJ     -0.147750
      9 CAI         1.4260  -10.3780   -1.7890 ca        1 2CJ     -0.147750
     10 CAJ        -1.8130   -5.8460    0.0800 ca        1 2CJ     -0.115750
     11 CAK        -2.1010   -8.0720   -0.8290 ca        1 2CJ     -0.115750
     12 CAL         1.5530   -8.3730    0.1410 ca        1 2CJ     -0.115750
     13 CAM         0.7560   -9.1710   -1.9950 ca        1 2CJ     -0.115750
     14 CAN         0.2180    1.2470   -1.3920 c3        1 2CJ     -0.076900
     15 CAO         1.4880    1.3390   -2.2280 c3        1 2CJ     -0.076900
     16 CAP         1.6350   -5.1770   -4.2560 c3        1 2CJ      0.071500
     17 CAQ        -0.6830   -4.6010   -4.1860 c3        1 2CJ      0.071500
     18 CAR         1.5070   -5.8840   -2.8900 c3        1 2CJ      0.106300
     19 CAS        -0.8590   -5.3270   -2.8380 c3        1 2CJ      0.106300
     20 CAT        -0.4350   -0.0890   -1.7120 c3        1 2CJ     -0.078400
     21 CAU         1.6960   -0.0140   -2.8960 c3        1 2CJ     -0.078400
     22 CAV         1.3100   -1.8310   -1.2080 c3        1 2CJ     -0.181400
     23 CAW         0.0480   -1.8870   -3.3750 c3        1 2CJ     -0.150400
     24 CAX         0.4410   -2.9360   -0.6080 c         1 2CJ      0.898600
     25 CAY         1.0510   -2.8210   -4.0210 c         1 2CJ      0.660100
     26 CAZ        -1.3100   -6.9350   -0.6490 ca        1 2CJ     -0.064300
     27 CBA         0.8120   -8.1590   -1.0300 ca        1 2CJ     -0.064300
     28 CBB         0.0970   -6.8350   -1.1950 c3        1 2CJ      0.228100
     29 NBC         0.6580   -4.1150   -4.4340 n         1 2CJ     -0.442800
     30 NBD         0.1510   -6.3570   -2.5970 n3        1 2CJ     -0.704600
     31 CBE         0.6640   -0.9900   -2.3050 c3        1 2CJ     -0.012000
     32 HAF        -3.4810   -5.0590    1.2010 ha        1 2CJ      0.118000
     33 HAG        -3.9930   -9.0350   -0.4130 ha        1 2CJ      0.118000
     34 HAH         2.7930   -9.7390    1.2670 ha        1 2CJ      0.118000
     35 HAI         1.3780  -11.1660   -2.5540 ha        1 2CJ      0.118000
     36 HAJ        -1.1990   -4.9210    0.1900 ha        1 2CJ      0.160500
     37 HAK        -1.7130   -8.9220   -1.4110 ha        1 2CJ      0.160500
     38 HAL         1.6110   -7.5760    0.8990 ha        1 2CJ      0.160500
     39 HAM         0.1870   -9.0120   -2.9240 ha        1 2CJ      0.160500
     40 HAN        -0.4740    2.0950   -1.6180 hc        1 2CJ      0.024200
     41 HANA        0.4690    1.3010   -0.3030 hc        1 2CJ      0.024200
     42 HAO         2.3640    1.5960   -1.5810 hc        1 2CJ      0.024200
     43 HAOA        1.3980    2.1460   -2.9980 hc        1 2CJ      0.024200
     44 HAP         1.4820   -5.9200   -5.0870 h1        1 2CJ      0.050450
     45 HAPA        2.6740   -4.7530   -4.3400 h1        1 2CJ      0.050450
     46 HAQ        -1.4260   -3.7610   -4.2410 h1        1 2CJ      0.050450
     47 HAQA       -0.9200   -5.3180   -5.0250 h1        1 2CJ      0.050450
     48 HAR         2.1740   -6.7900   -2.9020 h1        1 2CJ      0.067950
     49 HARA        1.8790   -5.1750   -2.0880 h1        1 2CJ      0.067950
     50 HAS        -1.8590   -5.8430   -2.8550 h1        1 2CJ      0.067950
     51 HASA       -0.8750   -4.5520   -2.0080 h1        1 2CJ      0.067950
     52 HAT        -1.2580    0.0590   -2.4570 hc        1 2CJ      0.052450
     53 HATA       -0.8780   -0.5760   -0.8060 hc        1 2CJ      0.052450
     54 HAU         2.7350   -0.3940   -2.7350 hc        1 2CJ      0.052450
     55 HAUA        1.5510    0.0710   -4.0030 hc        1 2CJ      0.052450
     56 HAV         1.6180   -1.1520   -0.3720 hc        1 2CJ      0.042200
     57 HAVA        2.2360   -2.3120   -1.6220 hc        1 2CJ      0.042200
     58 HAW        -0.7720   -2.4590   -2.8560 hc        1 2CJ      0.075700
     59 HAWA       -0.4040   -1.2630   -4.1910 hc        1 2CJ      0.075700
     60 HBB         0.6360   -6.0720   -0.5290 h1        1 2CJ      0.122700
     61 HAD        -4.8780   -7.1100    0.9050 ha        1 2CJ      0.111000
     62 HAE         2.6800  -11.5380   -0.4590 ha        1 2CJ      0.111000
@<TRIPOS>BOND
     1    1   24 1   
     2    2   25 2   
     3    3   24 1   
     4    4    6 ar  
     5    4    7 ar  
     6    4   61 1   
     7    5    8 ar  
     8    5    9 ar  
     9    5   62 1   
    10    6   10 ar  
    11    6   32 1   
    12    7   11 ar  
    13    7   33 1   
    14    8   12 ar  
    15    8   34 1   
    16    9   13 ar  
    17    9   35 1   
    18   10   26 ar  
    19   10   36 1   
    20   11   26 ar  
    21   11   37 1   
    22   12   27 ar  
    23   12   38 1   
    24   13   27 ar  
    25   13   39 1   
    26   14   15 1   
    27   14   20 1   
    28   14   40 1   
    29   14   41 1   
    30   15   21 1   
    31   15   42 1   
    32   15   43 1   
    33   16   18 1   
    34   16   29 1   
    35   16   44 1   
    36   16   45 1   
    37   17   19 1   
    38   17   29 1   
    39   17   46 1   
    40   17   47 1   
    41   18   30 1   
    42   18   48 1   
    43   18   49 1   
    44   19   30 1   
    45   19   50 1   
    46   19   51 1   
    47   20   31 1   
    48   20   52 1   
    49   20   53 1   
    50   21   31 1   
    51   21   54 1   
    52   21   55 1   
    53   22   24 1   
    54   22   31 1   
    55   22   56 1   
    56   22   57 1   
    57   23   25 1   
    58   23   31 1   
    59   23   58 1   
    60   23   59 1   
    61   25   29 1   
    62   26   28 1   
    63   27   28 1   
    64   28   30 1   
    65   28   60 1   
@<TRIPOS>SUBSTRUCTURE
     1 2CJ         1 TEMP              0 ****  ****    0 ROOT
