@<TRIPOS>MOLECULE
2CJ
   62    59     1     0     0
SMALL
bcc


@<TRIPOS>ATOM
      1 OAA        -0.5150   -2.2110    4.7130 o         1 2CJ     -0.847800
      2 OAB        -1.3940   -2.7500    1.0210 o         1 2CJ     -0.665100
      3 OAC         1.0770   -3.6290    5.1590 o         1 2CJ     -0.847800
      4 CAD        -3.4110    3.3870   -4.3940 c1        1 2CJ     -0.072500
      5 CAE         2.3060    6.0960   -1.1500 c1        1 2CJ     -0.072500
      6 CAF        -3.5580    3.9520   -3.1180 c1        1 2CJ     -0.072500
      7 CAG        -2.2900    2.6190   -4.6890 c1        1 2CJ     -0.072500
      8 CAH         2.9060    4.9130   -1.5640 c1        1 2CJ     -0.072500
      9 CAI         0.9300    6.1360   -0.9100 c1        1 2CJ     -0.072500
     10 CAJ        -2.5790    3.7440   -2.1440 c1        1 2CJ     -0.072500
     11 CAK        -1.3070    2.4090   -3.7140 c1        1 2CJ     -0.057000
     12 CAL         2.1330    3.7670   -1.7390 c1        1 2CJ     -0.072500
     13 CAM         0.1660    5.0000   -1.0830 c1        1 2CJ     -0.057000
     14 CAN         0.8010   -6.2060    1.1680 c3        1 2CJ     -0.072900
     15 CAO         1.9250   -6.0850    2.2910 c3        1 2CJ     -0.072900
     16 CAP        -1.7230    0.0250    0.5120 c3        1 2CJ      0.066000
     17 CAQ         0.5480    0.3220    1.1680 c3        1 2CJ      0.066000
     18 CAR        -1.4820    0.8970   -0.7190 c3        1 2CJ      0.139300
     19 CAS         0.7980    1.1900   -0.0560 c3        1 2CJ      0.139300
     20 CAT         0.1680   -4.7620    1.0410 c3        1 2CJ     -0.086900
     21 CAU         2.0760   -4.7710    2.4940 c3        1 2CJ     -0.086900
     22 CAV        -0.3610   -4.1940    3.2980 c3        1 2CJ     -0.195400
     23 CAW         0.8520   -2.6060    1.7360 c3        1 2CJ     -0.146400
     24 CAX         0.1070   -3.2900    4.4580 c         1 2CJ      0.906600
     25 CAY        -0.4310   -2.0260    1.2120 c         1 2CJ      0.669100
     26 CAZ        -1.4530    2.9720   -2.4410 c1        1 2CJ     -0.035600
     27 CBA         0.7680    3.8080   -1.4990 c1        1 2CJ     -0.035600
     28 CBB        -0.1220    2.5350   -1.7900 c3        1 2CJ      0.203700
     29 NBC        -0.5390   -0.5900    0.9690 n         1 2CJ     -0.453800
     30 NBD        -0.4000    1.8310   -0.5240 n3        1 2CJ     -0.725600
     31 CBE         0.6380   -4.0780    2.1050 c3        1 2CJ     -0.013000
     32 HAD        -4.0810    3.5360   -5.0630 ha        1 2CJ      0.070125
     33 HAE         2.8400    6.8930   -1.0290 ha        1 2CJ      0.070125
     34 HAF        -4.3570    4.5000   -2.9080 ha        1 2CJ      0.070125
     35 HAG        -2.1880    2.2220   -5.5840 ha        1 2CJ      0.070125
     36 HAH         3.9240    4.8610   -1.6580 ha        1 2CJ      0.070125
     37 HAI         0.5130    6.9640   -0.5390 ha        1 2CJ      0.070125
     38 HAJ        -2.6840    4.1380   -1.2510 ha        1 2CJ      0.070125
     39 HAK        -0.5090    1.9640   -3.9420 ha        1 2CJ      0.081000
     40 HAL         2.5490    2.9410   -2.0270 ha        1 2CJ      0.070125
     41 HAM        -0.8290    5.0300   -0.9090 ha        1 2CJ      0.081000
     42 HAN         0.1190   -6.8500    1.4390 hc        1 2CJ      0.025950
     43 HANA        1.1940   -6.4680    0.3370 hc        1 2CJ      0.025950
     44 HAO         2.7550   -6.4750    1.9820 hc        1 2CJ      0.025950
     45 HAOA        1.6220   -6.5350    3.1340 hc        1 2CJ      0.025950
     46 HAP        -2.0850    0.5790    1.2240 h1        1 2CJ      0.081450
     47 HAPA       -2.3840   -0.6790    0.2850 h1        1 2CJ      0.081450
     48 HAQ         0.3430    0.9040    1.9370 h1        1 2CJ      0.081450
     49 HAQA        1.3820   -0.2050    1.3690 h1        1 2CJ      0.081450
     50 HAR        -1.2710    0.3310   -1.4600 h1        1 2CJ      0.039700
     51 HARA       -2.2820    1.3820   -0.9180 h1        1 2CJ      0.039700
     52 HAS         1.1670    0.6110   -0.7930 h1        1 2CJ      0.039700
     53 HASA        1.4660    1.8860    0.1740 h1        1 2CJ      0.039700
     54 HAT         0.4600   -4.3290    0.1940 hc        1 2CJ      0.052700
     55 HATA       -0.7850   -4.8150    1.0760 hc        1 2CJ      0.052700
     56 HAU         2.3000   -4.5890    3.4600 hc        1 2CJ      0.052700
     57 HAUA        2.7910   -4.4180    1.9060 hc        1 2CJ      0.052700
     58 HAV        -1.2550   -3.9090    3.0030 hc        1 2CJ      0.032200
     59 HAVA       -0.3990   -5.1250    3.6030 hc        1 2CJ      0.032200
     60 HAW         1.1310   -2.1170    2.5180 hc        1 2CJ      0.086700
     61 HAWA        1.5370   -2.5410    1.0540 hc        1 2CJ      0.086700
     62 HBB         0.3780    1.9090   -2.4240 h1        1 2CJ      0.029700
@<TRIPOS>BOND
     1    1   24 1   
     2    2   25 2   
     3    3   24 1   
     4    4    7 3   
     5    4   32 1   
     6    5    9 3   
     7    5   33 1   
     8    6   10 3   
     9    6   34 1   
    10    7   35 1   
    11    8   12 3   
    12    8   36 1   
    13    9   37 1   
    14   10   38 1   
    15   11   26 3   
    16   11   39 1   
    17   12   40 1   
    18   13   27 3   
    19   13   41 1   
    20   14   15 1   
    21   14   20 1   
    22   14   42 1   
    23   14   43 1   
    24   15   21 1   
    25   15   44 1   
    26   15   45 1   
    27   16   18 1   
    28   16   29 1   
    29   16   46 1   
    30   16   47 1   
    31   17   19 1   
    32   17   29 1   
    33   17   48 1   
    34   17   49 1   
    35   18   30 1   
    36   18   50 1   
    37   18   51 1   
    38   19   30 1   
    39   19   52 1   
    40   19   53 1   
    41   20   31 1   
    42   20   54 1   
    43   20   55 1   
    44   21   31 1   
    45   21   56 1   
    46   21   57 1   
    47   22   24 1   
    48   22   31 1   
    49   22   58 1   
    50   22   59 1   
    51   23   25 1   
    52   23   31 1   
    53   23   60 1   
    54   23   61 1   
    55   25   29 1   
    56   26   28 1   
    57   27   28 1   
    58   28   30 1   
    59   28   62 1   
@<TRIPOS>SUBSTRUCTURE
     1 2CJ         1 TEMP              0 ****  ****    0 ROOT
