@<TRIPOS>MOLECULE
2CJ
   62    65     1     0     0
SMALL
bcc


@<TRIPOS>ATOM
      1 OAA         0.9840   -3.9240   -0.2000 o         1 2CJ     -0.862300
      2 OAB         2.2630   -2.5250   -4.3030 o         1 2CJ     -0.614100
      3 OAC        -0.8630   -2.7780   -0.6130 o         1 2CJ     -0.862300
      4 CAD        -3.9130   -7.0100    0.4450 ca        1 2CJ     -0.147000
      5 CAE         2.1610  -10.5310   -0.3680 ca        1 2CJ     -0.147000
      6 CAF        -3.1420   -5.8560    0.5950 ca        1 2CJ     -0.147750
      7 CAG        -3.3930   -8.1070   -0.2400 ca        1 2CJ     -0.147750
      8 CAH         2.1920   -9.4930    0.5620 ca        1 2CJ     -0.147750
      9 CAI         1.4600  -10.3660   -1.5620 ca        1 2CJ     -0.147750
     10 CAJ        -1.8510   -5.7960    0.0710 ca        1 2CJ     -0.115750
     11 CAK        -2.1030   -8.0530   -0.7680 ca        1 2CJ     -0.115750
     12 CAL         1.5270   -8.2960    0.3010 ca        1 2CJ     -0.115750
     13 CAM         0.7890   -9.1720   -1.8250 ca        1 2CJ     -0.115750
     14 CAN         0.1710    1.2580   -1.5930 c3        1 2CJ     -0.076900
     15 CAO         1.4620    1.3290   -2.3980 c3        1 2CJ     -0.076900
     16 CAP         1.7010   -5.2500   -4.1980 c3        1 2CJ      0.071500
     17 CAQ        -0.6220   -4.6890   -4.2060 c3        1 2CJ      0.071500
     18 CAR         1.5430   -5.9120   -2.8130 c3        1 2CJ      0.106300
     19 CAS        -0.8270   -5.3700   -2.8380 c3        1 2CJ      0.106300
     20 CAT        -0.4650   -0.0930   -1.8830 c3        1 2CJ     -0.078400
     21 CAU         1.6950   -0.0430   -3.0150 c3        1 2CJ     -0.078400
     22 CAV         1.2770   -1.8040   -1.2760 c3        1 2CJ     -0.181400
     23 CAW         0.0710   -1.9430   -3.4710 c3        1 2CJ     -0.150400
     24 CAX         0.4000   -2.8940   -0.6600 c         1 2CJ      0.898600
     25 CAY         1.0960   -2.8920   -4.0580 c         1 2CJ      0.660100
     26 CAZ        -1.3230   -6.9050   -0.6080 ca        1 2CJ     -0.064300
     27 CBA         0.8150   -8.1280   -0.8940 ca        1 2CJ     -0.064300
     28 CBB         0.0970   -6.8150   -1.1210 c3        1 2CJ      0.228100
     29 NBC         0.7220   -4.2020   -4.4360 n         1 2CJ     -0.442800
     30 NBD         0.1830   -6.3830   -2.5380 n3        1 2CJ     -0.704600
     31 CBE         0.6540   -1.0060   -2.4170 c3        1 2CJ     -0.012000
     32 HAF        -3.5510   -4.9820    1.1220 ha        1 2CJ      0.118000
     33 HAG        -3.9980   -9.0150   -0.3660 ha        1 2CJ      0.118000
     34 HAH         2.7460   -9.6150    1.5040 ha        1 2CJ      0.118000
     35 HAI         1.4370  -11.1800   -2.3010 ha        1 2CJ      0.118000
     36 HAJ        -1.2450   -4.8630    0.1640 ha        1 2CJ      0.160500
     37 HAK        -1.6950   -8.9200   -1.3110 ha        1 2CJ      0.160500
     38 HAL         1.5620   -7.4740    1.0340 ha        1 2CJ      0.160500
     39 HAM         0.2430   -9.0480   -2.7730 ha        1 2CJ      0.160500
     40 HAN        -0.5200    2.0930   -1.8670 hc        1 2CJ      0.024200
     41 HANA        0.3920    1.3510   -0.5000 hc        1 2CJ      0.024200
     42 HAO         2.3190    1.6140   -1.7370 hc        1 2CJ      0.024200
     43 HAOA        1.3880    2.1100   -3.1960 hc        1 2CJ      0.024200
     44 HAP         2.7390   -4.8220   -4.2700 h1        1 2CJ      0.050450
     45 HAPA        1.5740   -6.0220   -5.0070 h1        1 2CJ      0.050450
     46 HAQ        -0.8330   -5.4360   -5.0260 h1        1 2CJ      0.050450
     47 HAQA       -1.3690   -3.8560   -4.3080 h1        1 2CJ      0.050450
     48 HAR         1.8900   -5.1730   -2.0260 h1        1 2CJ      0.067950
     49 HARA        2.2150   -6.8130   -2.7760 h1        1 2CJ      0.067950
     50 HAS        -0.8690   -4.5670   -2.0370 h1        1 2CJ      0.067950
     51 HASA       -1.8230   -5.8930   -2.8630 h1        1 2CJ      0.067950
     52 HAT        -0.9290   -0.5520   -0.9720 hc        1 2CJ      0.052450
     53 HATA       -1.2700    0.0230   -2.6530 hc        1 2CJ      0.052450
     54 HAU         1.5770    0.0030   -4.1270 hc        1 2CJ      0.052450
     55 HAUA        2.7320   -0.4110   -2.8150 hc        1 2CJ      0.052450
     56 HAV         1.5580   -1.0950   -0.4550 hc        1 2CJ      0.042200
     57 HAVA        2.2160   -2.2920   -1.6480 hc        1 2CJ      0.042200
     58 HAW        -0.7580   -2.5030   -2.9530 hc        1 2CJ      0.075700
     59 HAWA       -0.3640   -1.3510   -4.3180 hc        1 2CJ      0.075700
     60 HBB         0.6140   -6.0260   -0.4690 h1        1 2CJ      0.122700
     61 HAD        -4.9280   -7.0520    0.8620 ha        1 2CJ      0.111000
     62 HAE         2.6880  -11.4720   -0.1630 ha        1 2CJ      0.111000
@<TRIPOS>BOND
     1    1   24 1   
     2    2   25 2   
     3    3   24 1   
     4    4    6 ar  
     5    4    7 ar  
     6    4   61 1   
     7    5    8 ar  
     8    5    9 ar  
     9    5   62 1   
    10    6   10 ar  
    11    6   32 1   
    12    7   11 ar  
    13    7   33 1   
    14    8   12 ar  
    15    8   34 1   
    16    9   13 ar  
    17    9   35 1   
    18   10   26 ar  
    19   10   36 1   
    20   11   26 ar  
    21   11   37 1   
    22   12   27 ar  
    23   12   38 1   
    24   13   27 ar  
    25   13   39 1   
    26   14   15 1   
    27   14   20 1   
    28   14   40 1   
    29   14   41 1   
    30   15   21 1   
    31   15   42 1   
    32   15   43 1   
    33   16   18 1   
    34   16   29 1   
    35   16   44 1   
    36   16   45 1   
    37   17   19 1   
    38   17   29 1   
    39   17   46 1   
    40   17   47 1   
    41   18   30 1   
    42   18   48 1   
    43   18   49 1   
    44   19   30 1   
    45   19   50 1   
    46   19   51 1   
    47   20   31 1   
    48   20   52 1   
    49   20   53 1   
    50   21   31 1   
    51   21   54 1   
    52   21   55 1   
    53   22   24 1   
    54   22   31 1   
    55   22   56 1   
    56   22   57 1   
    57   23   25 1   
    58   23   31 1   
    59   23   58 1   
    60   23   59 1   
    61   25   29 1   
    62   26   28 1   
    63   27   28 1   
    64   28   30 1   
    65   28   60 1   
@<TRIPOS>SUBSTRUCTURE
     1 2CJ         1 TEMP              0 ****  ****    0 ROOT
