@<TRIPOS>MOLECULE
2CJ
   62    65     1     0     0
SMALL
bcc


@<TRIPOS>ATOM
      1 OAA        -0.6840    0.3160    1.5540 o         1 2CJ     -0.862300
      2 OAB        -2.8190    2.1020   -2.0070 o         1 2CJ     -0.614100
      3 OAC        -1.5580   -1.5930    0.8590 o         1 2CJ     -0.862300
      4 CAD         3.2190   -3.9390    0.7950 ca        1 2CJ     -0.147000
      5 CAE         5.5560    2.7270    1.0020 ca        1 2CJ     -0.147000
      6 CAF         1.9860   -3.4450    1.2240 ca        1 2CJ     -0.147750
      7 CAG         4.1120   -3.0950    0.1370 ca        1 2CJ     -0.147750
      8 CAH         4.6640    2.3760    2.0140 ca        1 2CJ     -0.147750
      9 CAI         5.3480    2.2620   -0.2950 ca        1 2CJ     -0.147750
     10 CAJ         1.6450   -2.1110    1.0070 ca        1 2CJ     -0.115750
     11 CAK         3.7780   -1.7600   -0.0850 ca        1 2CJ     -0.115750
     12 CAL         3.5680    1.5620    1.7310 ca        1 2CJ     -0.115750
     13 CAM         4.2550    1.4440   -0.5810 ca        1 2CJ     -0.115750
     14 CAN        -5.8040   -1.1650    0.5320 c3        1 2CJ     -0.076900
     15 CAO        -6.1950    0.2250    0.0440 c3        1 2CJ     -0.076900
     16 CAP        -0.0500    2.0550   -2.2960 c3        1 2CJ      0.071500
     17 CAQ        -0.2200   -0.2830   -2.7620 c3        1 2CJ      0.071500
     18 CAR         0.8110    1.7500   -1.0520 c3        1 2CJ      0.106300
     19 CAS         0.6650   -0.6250   -1.5480 c3        1 2CJ      0.106300
     20 CAT        -4.4200   -1.4640   -0.0220 c3        1 2CJ     -0.078400
     21 CAU        -4.9760    0.8300   -0.6380 c3        1 2CJ     -0.078400
     22 CAV        -2.9500    0.4130    0.7840 c3        1 2CJ     -0.181400
     23 CAW        -2.9160   -0.2820   -1.6260 c3        1 2CJ     -0.150400
     24 CAX        -1.6570   -0.3480    1.0810 c         1 2CJ      0.898600
     25 CAY        -2.2360    1.0000   -2.0630 c         1 2CJ      0.660100
     26 CAZ         2.5510   -1.2590    0.3550 ca        1 2CJ     -0.064300
     27 CBA         3.3570    1.0850    0.4300 ca        1 2CJ     -0.064300
     28 CBB         2.1600    0.1920    0.1800 c3        1 2CJ      0.228100
     29 NBC        -0.9470    0.9640   -2.6410 n         1 2CJ     -0.442800
     30 NBD         1.5320    0.4770   -1.1320 n3        1 2CJ     -0.704600
     31 CBE        -3.7830   -0.1080   -0.3820 c3        1 2CJ     -0.012000
     32 HAF         1.2710   -4.1090    1.7310 ha        1 2CJ      0.118000
     33 HAG         5.0810   -3.4810   -0.2080 ha        1 2CJ      0.118000
     34 HAH         4.8210    2.7430    3.0380 ha        1 2CJ      0.118000
     35 HAI         6.0450    2.5400   -1.0970 ha        1 2CJ      0.118000
     36 HAJ         0.6470   -1.7230    1.3220 ha        1 2CJ      0.160500
     37 HAK         4.4840   -1.0960   -0.6070 ha        1 2CJ      0.160500
     38 HAL         2.8590    1.2940    2.5300 ha        1 2CJ      0.160500
     39 HAM         4.0940    1.0840   -1.6090 ha        1 2CJ      0.160500
     40 HAN        -5.7830   -1.1880    1.6510 hc        1 2CJ      0.024200
     41 HANA       -6.5440   -1.9320    0.1960 hc        1 2CJ      0.024200
     42 HAO        -7.0540    0.1650   -0.6700 hc        1 2CJ      0.024200
     43 HAOA       -6.5220    0.8620    0.9030 hc        1 2CJ      0.024200
     44 HAP        -0.6480    2.9860   -2.0950 h1        1 2CJ      0.050450
     45 HAPA        0.6150    2.2400   -3.1860 h1        1 2CJ      0.050450
     46 HAQ         0.4330   -0.1810   -3.6780 h1        1 2CJ      0.050450
     47 HAQA       -0.9250   -1.1380   -2.9450 h1        1 2CJ      0.050450
     48 HAR         1.5860    2.5600   -0.9570 h1        1 2CJ      0.067950
     49 HARA        0.1400    1.7870   -0.1390 h1        1 2CJ      0.067950
     50 HAS        -0.0030   -0.9770   -0.7000 h1        1 2CJ      0.067950
     51 HASA        1.3350   -1.4800   -1.8430 h1        1 2CJ      0.067950
     52 HAT        -3.7720   -2.0050    0.7140 hc        1 2CJ      0.052450
     53 HATA       -4.5070   -2.1050   -0.9360 hc        1 2CJ      0.052450
     54 HAU        -5.1530    0.9300   -1.7390 hc        1 2CJ      0.052450
     55 HAUA       -4.7580    1.8570   -0.2510 hc        1 2CJ      0.052450
     56 HAV        -3.5770    0.3860    1.7120 hc        1 2CJ      0.042200
     57 HAVA       -2.6770    1.4830    0.5820 hc        1 2CJ      0.042200
     58 HAW        -3.5390   -0.6420   -2.4860 hc        1 2CJ      0.075700
     59 HAWA       -2.1630   -1.0770   -1.3620 hc        1 2CJ      0.075700
     60 HBB         1.3940    0.4100    1.0060 h1        1 2CJ      0.122700
     61 HAD         3.4830   -4.9910    0.9710 ha        1 2CJ      0.111000
     62 HAE         6.4180    3.3700    1.2260 ha        1 2CJ      0.111000
@<TRIPOS>BOND
     1    1   24 1   
     2    2   25 2   
     3    3   24 1   
     4    4    6 ar  
     5    4    7 ar  
     6    4   61 1   
     7    5    8 ar  
     8    5    9 ar  
     9    5   62 1   
    10    6   10 ar  
    11    6   32 1   
    12    7   11 ar  
    13    7   33 1   
    14    8   12 ar  
    15    8   34 1   
    16    9   13 ar  
    17    9   35 1   
    18   10   26 ar  
    19   10   36 1   
    20   11   26 ar  
    21   11   37 1   
    22   12   27 ar  
    23   12   38 1   
    24   13   27 ar  
    25   13   39 1   
    26   14   15 1   
    27   14   20 1   
    28   14   40 1   
    29   14   41 1   
    30   15   21 1   
    31   15   42 1   
    32   15   43 1   
    33   16   18 1   
    34   16   29 1   
    35   16   44 1   
    36   16   45 1   
    37   17   19 1   
    38   17   29 1   
    39   17   46 1   
    40   17   47 1   
    41   18   30 1   
    42   18   48 1   
    43   18   49 1   
    44   19   30 1   
    45   19   50 1   
    46   19   51 1   
    47   20   31 1   
    48   20   52 1   
    49   20   53 1   
    50   21   31 1   
    51   21   54 1   
    52   21   55 1   
    53   22   24 1   
    54   22   31 1   
    55   22   56 1   
    56   22   57 1   
    57   23   25 1   
    58   23   31 1   
    59   23   58 1   
    60   23   59 1   
    61   25   29 1   
    62   26   28 1   
    63   27   28 1   
    64   28   30 1   
    65   28   60 1   
@<TRIPOS>SUBSTRUCTURE
     1 2CJ         1 TEMP              0 ****  ****    0 ROOT
