@<TRIPOS>MOLECULE
2CK
   21    22     1     0     0
SMALL
bcc


@<TRIPOS>ATOM
      1 CAE         0.0040    0.0100   -0.0230 c3        1 2CK      0.165800
      2 CAF         1.5320    0.0480    0.0130 c3        1 2CK     -0.035100
      3 CAI         2.0560    0.0030    1.4030 ca        1 2CK     -0.066300
      4 CAC         3.3780   -0.3920    1.6420 ca        1 2CK     -0.128000
      5 CAA         3.8840   -0.4120    2.9390 ca        1 2CK     -0.129000
      6 CAB         3.0720   -0.0380    4.0100 ca        1 2CK     -0.130000
      7 CAD         1.7550    0.3540    3.7820 ca        1 2CK     -0.128000
      8 CAJ         1.2400    0.3760    2.4810 ca        1 2CK     -0.078300
      9 CAG        -0.1870    0.7890    2.2810 c3        1 2CK      0.207100
     10 NAH        -0.6020    0.9460    0.9010 n3        1 2CK     -0.819200
     11 H1         -0.3410    0.2900   -1.0580 h1        1 2CK      0.029700
     12 H2         -0.3270   -1.0540    0.1700 h1        1 2CK      0.029700
     13 H3          1.9240   -0.8180   -0.5810 hc        1 2CK      0.057700
     14 H4          1.8970    0.9910   -0.4780 hc        1 2CK      0.057700
     15 H5          4.0170   -0.6850    0.7960 ha        1 2CK      0.131000
     16 H6          4.9230   -0.7220    3.1190 ha        1 2CK      0.130000
     17 H7          3.4710   -0.0520    5.0350 ha        1 2CK      0.131000
     18 H8          1.1140    0.6500    4.6250 ha        1 2CK      0.130000
     19 H9         -0.3450    1.7920    2.7760 h1        1 2CK      0.040200
     20 H10        -0.8320    0.0390    2.8330 h1        1 2CK      0.040200
     21 H11        -1.6020    0.8860    0.8420 hn        1 2CK      0.363800
@<TRIPOS>BOND
     1    1    2 1   
     2    1   10 1   
     3    1   11 1   
     4    1   12 1   
     5    2    3 1   
     6    2   13 1   
     7    2   14 1   
     8    3    4 ar  
     9    3    8 ar  
    10    4    5 ar  
    11    4   15 1   
    12    5    6 ar  
    13    5   16 1   
    14    6    7 ar  
    15    6   17 1   
    16    7    8 ar  
    17    7   18 1   
    18    8    9 1   
    19    9   10 1   
    20    9   19 1   
    21    9   20 1   
    22   10   21 1   
@<TRIPOS>SUBSTRUCTURE
     1 2CK         1 TEMP              0 ****  ****    0 ROOT
