@<TRIPOS>MOLECULE
2CK
   21    22     1     0     0
SMALL
bcc


@<TRIPOS>ATOM
      1 CAE         0.0060    0.0160   -0.0240 c3        1 2CK      0.165800
      2 CAF         1.5330    0.0530    0.0130 c3        1 2CK     -0.035100
      3 CAI         2.0570    0.0040    1.4030 ca        1 2CK     -0.066300
      4 CAC         3.3780   -0.3920    1.6420 ca        1 2CK     -0.128000
      5 CAA         3.8830   -0.4150    2.9390 ca        1 2CK     -0.129000
      6 CAB         3.0700   -0.0440    4.0110 ca        1 2CK     -0.130000
      7 CAD         1.7540    0.3490    3.7830 ca        1 2CK     -0.127000
      8 CAJ         1.2400    0.3740    2.4820 ca        1 2CK     -0.078300
      9 CAG        -0.1870    0.7880    2.2820 c3        1 2CK      0.207100
     10 NAH        -0.6010    0.9500    0.9010 n3        1 2CK     -0.819200
     11 H1         -0.3260   -1.0480    0.1650 h1        1 2CK      0.029700
     12 H2         -0.3390    0.2980   -1.0590 h1        1 2CK      0.029700
     13 H3          1.9250   -0.8120   -0.5830 hc        1 2CK      0.057700
     14 H4          1.8990    0.9960   -0.4760 hc        1 2CK      0.057700
     15 H5          4.0180   -0.6830    0.7960 ha        1 2CK      0.131000
     16 H6          4.9230   -0.7260    3.1190 ha        1 2CK      0.130000
     17 H7          3.4690   -0.0610    5.0360 ha        1 2CK      0.131000
     18 H8          1.1120    0.6430    4.6270 ha        1 2CK      0.130000
     19 H9         -0.8330    0.0370    2.8310 h1        1 2CK      0.040200
     20 H10        -0.3450    1.7900    2.7800 h1        1 2CK      0.040200
     21 H11        -1.6010    0.8900    0.8410 hn        1 2CK      0.363800
@<TRIPOS>BOND
     1    1    2 1   
     2    1   10 1   
     3    1   11 1   
     4    1   12 1   
     5    2    3 1   
     6    2   13 1   
     7    2   14 1   
     8    3    4 ar  
     9    3    8 ar  
    10    4    5 ar  
    11    4   15 1   
    12    5    6 ar  
    13    5   16 1   
    14    6    7 ar  
    15    6   17 1   
    16    7    8 ar  
    17    7   18 1   
    18    8    9 1   
    19    9   10 1   
    20    9   19 1   
    21    9   20 1   
    22   10   21 1   
@<TRIPOS>SUBSTRUCTURE
     1 2CK         1 TEMP              0 ****  ****    0 ROOT
