@<TRIPOS>MOLECULE
2CL
   17    17     1     0     0
SMALL
bcc


@<TRIPOS>ATOM
      1 C1          2.8890   -1.6530    2.0430 ca        1 2CL      0.042700
      2 C2          2.9170   -1.6280    0.6330 ca        1 2CL      0.019400
      3 C3          1.8930   -1.0420   -0.1160 ca        1 2CL     -0.131500
      4 C4          0.8100   -0.4520    0.5310 ca        1 2CL     -0.158000
      5 C5          0.7550   -0.4480    1.9210 ca        1 2CL     -0.131500
      6 C6          1.7840   -1.0340    2.6630 ca        1 2CL      0.019400
      7 C7          3.9650   -2.2970    2.8220 c3        1 2CL     -0.200100
      8 C8          3.7990   -3.8370    3.0100 c         1 2CL      0.930600
      9 CL1         4.2150   -2.3210   -0.2310 cl        1 2CL     -0.105900
     10 CL2         1.6490   -0.9640    4.3630 cl        1 2CL     -0.105900
     11 O1          2.6440   -4.3340    3.0420 o         1 2CL     -0.826800
     12 O2          4.8720   -4.4830    3.1560 o         1 2CL     -0.826800
     13 H3          1.9380   -1.0510   -1.2140 ha        1 2CL      0.127000
     14 H4         -0.0000    0.0020   -0.0540 ha        1 2CL      0.117000
     15 H5         -0.1020    0.0120    2.4350 ha        1 2CL      0.127000
     16 H71         4.0230   -1.8660    3.8540 hc        1 2CL      0.052700
     17 H72         4.9560   -2.1290    2.3270 hc        1 2CL      0.052700
@<TRIPOS>BOND
     1    1    2 ar  
     2    1    6 ar  
     3    1    7 1   
     4    2    3 ar  
     5    2    9 1   
     6    3    4 ar  
     7    3   13 1   
     8    4    5 ar  
     9    4   14 1   
    10    5    6 ar  
    11    5   15 1   
    12    6   10 1   
    13    7    8 1   
    14    7   16 1   
    15    7   17 1   
    16    8   11 1   
    17    8   12 1   
@<TRIPOS>SUBSTRUCTURE
     1 2CL         1 TEMP              0 ****  ****    0 ROOT
