@<TRIPOS>MOLECULE
2CL
   17    17     1     0     0
SMALL
bcc


@<TRIPOS>ATOM
      1 C1         -0.0410   -0.0030   -0.0080 ca        1 2CL      0.042700
      2 C2          1.3690   -0.0010    0.0070 ca        1 2CL      0.019400
      3 C3          2.0950    0.0020    1.2000 ca        1 2CL     -0.131500
      4 C4          1.4260   -0.0070    2.4210 ca        1 2CL     -0.158000
      5 C5          0.0340   -0.0220    2.4450 ca        1 2CL     -0.131500
      6 C6         -0.6840   -0.0270    1.2470 ca        1 2CL      0.019400
      7 C7         -0.7980    0.0180   -1.2750 c3        1 2CL     -0.200100
      8 C8         -1.0130    1.4410   -1.8790 c         1 2CL      0.930600
      9 CL1         2.2600    0.0000   -1.4470 cl        1 2CL     -0.105900
     10 CL2        -2.3870   -0.0690    1.3670 cl        1 2CL     -0.105900
     11 O1         -1.0860    2.4340   -1.1100 o         1 2CL     -0.826800
     12 O2         -1.1360    1.4830   -3.1340 o         1 2CL     -0.826800
     13 H3          3.1940    0.0180    1.1770 ha        1 2CL      0.127000
     14 H4          1.9930    0.0030    3.3610 ha        1 2CL      0.117000
     15 H5         -0.4980   -0.0230    3.4070 ha        1 2CL      0.127000
     16 H71        -0.2710   -0.5950   -2.0520 hc        1 2CL      0.052700
     17 H72        -1.8210   -0.4150   -1.1370 hc        1 2CL      0.052700
@<TRIPOS>BOND
     1    1    2 ar  
     2    1    6 ar  
     3    1    7 1   
     4    2    3 ar  
     5    2    9 1   
     6    3    4 ar  
     7    3   13 1   
     8    4    5 ar  
     9    4   14 1   
    10    5    6 ar  
    11    5   15 1   
    12    6   10 1   
    13    7    8 1   
    14    7   16 1   
    15    7   17 1   
    16    8   11 1   
    17    8   12 1   
@<TRIPOS>SUBSTRUCTURE
     1 2CL         1 TEMP              0 ****  ****    0 ROOT
