@<TRIPOS>MOLECULE
2CL
   17    14     1     0     0
SMALL
bcc


@<TRIPOS>ATOM
      1 C1         -0.1490   -0.2420   -0.2590 c1        1 2CL      0.076900
      2 C2          1.2360   -0.2840   -0.2970 c1        1 2CL      0.035900
      3 C3          1.9610   -0.3060    0.8830 c1        1 2CL     -0.073500
      4 C4          1.3020   -0.2850    2.1020 c1        1 2CL     -0.087500
      5 C5         -0.0830   -0.2420    2.1410 c1        1 2CL     -0.087500
      6 C6         -0.8090   -0.2210    0.9600 c1        1 2CL      0.025900
      7 C7         -0.9420   -0.2640   -1.5480 c3        1 2CL     -0.234300
      8 C8         -1.2570    1.1540   -1.9710 c         1 2CL      0.930600
      9 CL1         2.0650   -0.3060   -1.8310 cl        1 2CL     -0.120900
     10 CL2        -2.5500   -0.1580    1.0080 cl        1 2CL     -0.113900
     11 O1         -2.4380    1.5840   -1.9010 o         1 2CL     -0.826800
     12 O2         -0.3430    1.8930   -2.4220 o         1 2CL     -0.826800
     13 H3          2.9360   -0.3360    0.8560 ha        1 2CL      0.069500
     14 H4          1.8130   -0.3000    2.9340 ha        1 2CL      0.064500
     15 H5         -0.5470   -0.2270    2.9990 ha        1 2CL      0.064500
     16 H71        -1.7770   -0.7560   -1.4080 hc        1 2CL      0.052700
     17 H72        -0.4180   -0.7040   -2.2460 hc        1 2CL      0.052700
@<TRIPOS>BOND
     1    1    6 3   
     2    1    7 1   
     3    2    3 3   
     4    2    9 1   
     5    3   13 1   
     6    4    5 3   
     7    4   14 1   
     8    5   15 1   
     9    6   10 1   
    10    7    8 1   
    11    7   16 1   
    12    7   17 1   
    13    8   11 1   
    14    8   12 1   
@<TRIPOS>SUBSTRUCTURE
     1 2CL         1 TEMP              0 ****  ****    0 ROOT
