@<TRIPOS>MOLECULE
2CM
   17    17     1     0     0
SMALL
bcc


@<TRIPOS>ATOM
      1 C1         -0.0310    0.0720   -0.0440 ca        1 2CM      0.158600
      2 C2          1.3890   -0.0310   -0.0230 ca        1 2CM     -0.133300
      3 C3         -0.7100    0.1240    1.2000 ca        1 2CM     -0.049600
      4 N4         -0.7200    0.1970   -1.2500 nv        1 2CM     -0.820200
      5 C5          2.0630   -0.0610    1.1970 ca        1 2CM     -0.090000
      6 C6          2.1580   -0.0980   -1.2880 c3        1 2CM     -0.048800
      7 C7         -0.0130    0.0960    2.4070 ca        1 2CM     -0.087000
      8 Cl8        -2.4130    0.2250    1.2480 cl        1 2CM     -0.107400
      9 C9          1.3750    0.0030    2.4070 ca        1 2CM     -0.166000
     10 HN41       -0.2600   -0.2020   -2.0370 hn        1 2CM      0.400300
     11 HN42       -1.6940   -0.0070   -1.2060 hn        1 2CM      0.400300
     12 HC5         3.1620   -0.1360    1.2030 ha        1 2CM      0.133000
     13 HC61        1.9760    0.8160   -1.9080 hc        1 2CM      0.043033
     14 HC62        3.2550   -0.1680   -1.0870 hc        1 2CM      0.043033
     15 HC63        1.8590   -0.9960   -1.8860 hc        1 2CM      0.043033
     16 HC7        -0.5640    0.1460    3.3590 ha        1 2CM      0.145000
     17 HC9         1.9250   -0.0190    3.3580 ha        1 2CM      0.137000
@<TRIPOS>BOND
     1    1    2 ar  
     2    1    3 ar  
     3    1    4 1   
     4    2    5 ar  
     5    2    6 1   
     6    3    7 ar  
     7    3    8 1   
     8    4   10 1   
     9    4   11 1   
    10    5    9 ar  
    11    5   12 1   
    12    6   13 1   
    13    6   14 1   
    14    6   15 1   
    15    7    9 ar  
    16    7   16 1   
    17    9   17 1   
@<TRIPOS>SUBSTRUCTURE
     1 2CM         1 TEMP              0 ****  ****    0 ROOT
