@<TRIPOS>MOLECULE
2CM
   18    18     1     0     0
SMALL
bcc


@<TRIPOS>ATOM
      1 C1          0.0030    0.0770   -0.0040 ca        1 2CM     -0.087400
      2 C2          1.4130    0.0190   -0.0180 ca        1 2CM     -0.024300
      3 C3         -0.7080    0.0800    1.2170 ca        1 2CM      0.034400
      4 N4         -0.7230    0.1340   -1.2700 n4        1 2CM     -0.699000
      5 C5          2.0880   -0.0350    1.2060 ca        1 2CM     -0.105000
      6 C6          2.1690    0.0170   -1.2910 c3        1 2CM     -0.091800
      7 C7         -0.0070    0.0240    2.4220 ca        1 2CM     -0.097000
      8 CL8        -2.4010    0.1490    1.2250 cl        1 2CM     -0.033400
      9 C9          1.3880   -0.0330    2.4110 ca        1 2CM     -0.054000
     10 HN41       -0.5220   -0.7130   -1.8160 hn        1 2CM      0.466800
     11 HN42       -0.4120    0.9560   -1.8030 hn        1 2CM      0.466800
     12 HC5         3.1910   -0.0810    1.2120 ha        1 2CM      0.177000
     13 HC61        3.2720   -0.0410   -1.1010 hc        1 2CM      0.071367
     14 HC62        1.9770    0.9540   -1.8730 hc        1 2CM      0.071367
     15 HC63        1.8910   -0.8670   -1.9210 hc        1 2CM      0.071367
     16 HC7        -0.5570    0.0260    3.3790 ha        1 2CM      0.188000
     17 HC9         1.9380   -0.0770    3.3680 ha        1 2CM      0.180000
     18 H43        -1.7370    0.1990   -1.0970 hn        1 2CM      0.466800
@<TRIPOS>BOND
     1    1    2 ar  
     2    1    3 ar  
     3    1    4 1   
     4    2    5 ar  
     5    2    6 1   
     6    3    7 ar  
     7    3    8 1   
     8    4   10 1   
     9    4   11 1   
    10    4   18 1   
    11    5    9 ar  
    12    5   12 1   
    13    6   13 1   
    14    6   14 1   
    15    6   15 1   
    16    7    9 ar  
    17    7   16 1   
    18    9   17 1   
@<TRIPOS>SUBSTRUCTURE
     1 2CM         1 TEMP              0 ****  ****    0 ROOT
