@<TRIPOS>MOLECULE
2CM
   17    17     1     0     0
SMALL
bcc


@<TRIPOS>ATOM
      1 C1         -0.0320    0.0680   -0.0420 ca        1 2CM      0.158600
      2 C2          1.3880   -0.0360   -0.0250 ca        1 2CM     -0.133300
      3 C3         -0.7060    0.1360    1.2040 ca        1 2CM     -0.049600
      4 N4         -0.7250    0.1810   -1.2460 nh        1 2CM     -0.820200
      5 C5          2.0670   -0.0530    1.1930 ca        1 2CM     -0.090000
      6 C6          2.1510   -0.1180   -1.2920 c3        1 2CM     -0.048800
      7 C7         -0.0050    0.1200    2.4090 ca        1 2CM     -0.087000
      8 CL8        -2.4090    0.2390    1.2570 cl        1 2CM     -0.107400
      9 C9          1.3830    0.0260    2.4040 ca        1 2CM     -0.166000
     10 HN41       -1.7000   -0.0210   -1.1970 hn        1 2CM      0.400300
     11 HN42       -0.2690   -0.2280   -2.0310 hn        1 2CM      0.400300
     12 HC5         3.1650   -0.1300    1.1950 ha        1 2CM      0.133000
     13 HC61        1.8500   -1.0230   -1.8790 hc        1 2CM      0.043033
     14 HC62        1.9680    0.7890   -1.9220 hc        1 2CM      0.043033
     15 HC63        3.2490   -0.1870   -1.0950 hc        1 2CM      0.043033
     16 HC7        -0.5520    0.1820    3.3620 ha        1 2CM      0.145000
     17 HC9         1.9370    0.0140    3.3530 ha        1 2CM      0.137000
@<TRIPOS>BOND
     1    1    2 ar  
     2    1    3 ar  
     3    1    4 1   
     4    2    5 ar  
     5    2    6 1   
     6    3    7 ar  
     7    3    8 1   
     8    4   10 1   
     9    4   11 1   
    10    5    9 ar  
    11    5   12 1   
    12    6   13 1   
    13    6   14 1   
    14    6   15 1   
    15    7    9 ar  
    16    7   16 1   
    17    9   17 1   
@<TRIPOS>SUBSTRUCTURE
     1 2CM         1 TEMP              0 ****  ****    0 ROOT
