@<TRIPOS>MOLECULE
2CM
   17    17     1     0     0
SMALL
bcc


@<TRIPOS>ATOM
      1 C1          0.2560   -0.6760    0.0740 ca        1 2CM      0.158600
      2 C2          1.6090   -0.2400    0.0010 ca        1 2CM     -0.133300
      3 C3         -0.7600    0.3140    0.0560 ca        1 2CM     -0.049600
      4 N4         -0.0520   -2.0250    0.2370 nh        1 2CM     -0.820200
      5 C5          1.8960    1.1230   -0.0680 ca        1 2CM     -0.090000
      6 C6          2.7180   -1.2240    0.0070 c3        1 2CM     -0.048800
      7 C7         -0.4480    1.6710   -0.0100 ca        1 2CM     -0.087000
      8 CL8        -2.4040   -0.1400    0.1180 cl        1 2CM     -0.107400
      9 C9          0.8810    2.0770   -0.0730 ca        1 2CM     -0.166000
     10 HN41       -0.9890   -2.2790    0.0100 hn        1 2CM      0.400300
     11 HN42        0.6320   -2.6560   -0.1170 hn        1 2CM      0.400300
     12 HC5         2.9460    1.4490   -0.1200 ha        1 2CM      0.133000
     13 HC61        2.6960   -1.8370    0.9430 hc        1 2CM      0.043033
     14 HC62        2.6390   -1.9150   -0.8700 hc        1 2CM      0.043033
     15 HC63        3.7090   -0.7110   -0.0480 hc        1 2CM      0.043033
     16 HC7        -1.2560    2.4190   -0.0150 ha        1 2CM      0.145000
     17 HC9         1.1270    3.1460   -0.1250 ha        1 2CM      0.137000
@<TRIPOS>BOND
     1    1    2 ar  
     2    1    3 ar  
     3    1    4 1   
     4    2    5 ar  
     5    2    6 1   
     6    3    7 ar  
     7    3    8 1   
     8    4   10 1   
     9    4   11 1   
    10    5    9 ar  
    11    5   12 1   
    12    6   13 1   
    13    6   14 1   
    14    6   15 1   
    15    7    9 ar  
    16    7   16 1   
    17    9   17 1   
@<TRIPOS>SUBSTRUCTURE
     1 2CM         1 TEMP              0 ****  ****    0 ROOT
