@<TRIPOS>MOLECULE
2CM
   17    14     1     0     0
SMALL
bcc


@<TRIPOS>ATOM
      1 C1         -0.7410   -0.0060   -0.3270 c1        1 2CM      0.132800
      2 C2          0.6450   -0.0060   -0.3270 c1        1 2CM     -0.099100
      3 C3         -1.4340   -0.0060    0.8740 c1        1 2CM     -0.038100
      4 N4         -1.4510   -0.0120   -1.5560 n3        1 2CM     -0.794400
      5 C5          1.3380   -0.0060    0.8740 c1        1 2CM     -0.032500
      6 C6          1.4010    0.0190   -1.6370 c3        1 2CM     -0.083000
      7 C7         -0.7410   -0.0060    2.0740 c1        1 2CM     -0.069000
      8 CL8        -3.1780   -0.0050    0.8730 cl        1 2CM     -0.118900
      9 C9          0.6450   -0.0060    2.0740 c1        1 2CM     -0.069000
     10 HN41       -1.7920   -0.7930   -1.8800 hn        1 2CM      0.400300
     11 HN42       -1.6020    0.7710   -1.9980 hn        1 2CM      0.400300
     12 HC5         2.3140   -0.0060    0.8740 ha        1 2CM      0.075500
     13 HC61        1.0340    0.7170   -2.2110 hc        1 2CM      0.043033
     14 HC62        1.3130   -0.8470   -2.0800 hc        1 2CM      0.043033
     15 HC63        2.3450    0.2010   -1.4650 hc        1 2CM      0.043033
     16 HC7        -1.2290   -0.0060    2.9190 ha        1 2CM      0.083500
     17 HC9         1.1330   -0.0060    2.9190 ha        1 2CM      0.083500
@<TRIPOS>BOND
     1    1    3 3   
     2    1    4 1   
     3    2    5 3   
     4    2    6 1   
     5    3    8 1   
     6    4   10 1   
     7    4   11 1   
     8    5   12 1   
     9    6   13 1   
    10    6   14 1   
    11    6   15 1   
    12    7    9 3   
    13    7   16 1   
    14    9   17 1   
@<TRIPOS>SUBSTRUCTURE
     1 2CM         1 TEMP              0 ****  ****    0 ROOT
