@<TRIPOS>MOLECULE
2CN
   53    55     1     0     0
SMALL
bcc


@<TRIPOS>ATOM
      1 CAA        12.8290    2.7220   -0.0740 c3        1 2CN     -0.092100
      2 OAB        -3.4600    1.5210    3.4450 o         1 2CN     -0.467000
      3 OAC        -1.8770    0.3250    2.4190 os        1 2CN     -0.375900
      4 CAE         1.7040   -3.6990    0.5210 ca        1 2CN     -0.100000
      5 CAF         0.4450   -3.1910    0.2310 ca        1 2CN     -0.172000
      6 CAG        -5.0530    0.3140   -1.2810 ca        1 2CN     -0.080000
      7 CAH         2.8580   -3.0210    0.1260 ca        1 2CN     -0.232000
      8 CAI        -3.7840   -0.2080   -1.0550 ca        1 2CN     -0.180000
      9 CAJ         1.4540   -1.2840   -0.8610 ca        1 2CN     -0.171000
     10 CAK        -5.0810    1.2640    0.9470 ca        1 2CN     -0.030000
     11 CAL        11.9050    1.5960    0.3110 c3        1 2CN     -0.080400
     12 CAM        10.5360    1.7630   -0.3110 c3        1 2CN     -0.079400
     13 CAN         9.6110    0.6300    0.0780 c3        1 2CN     -0.079400
     14 CAO         8.2420    0.7980   -0.5450 c3        1 2CN     -0.078400
     15 CAP         7.3170   -0.3350   -0.1550 c3        1 2CN     -0.077400
     16 CAQ         5.9510   -0.1620   -0.7810 c3        1 2CN     -0.087400
     17 CAR         5.0350   -1.3060   -0.3770 c3        1 2CN      0.133400
     18 OAT         3.7930   -1.0750   -1.0460 os        1 2CN     -0.341900
     19 SAU        -1.6320   -0.5230    0.6840 s4        1 2CN     -0.028500
     20 CAW        -5.7060    1.0490   -0.2870 ca        1 2CN     -0.091900
     21 CAX         0.3030   -1.9750   -0.4640 ca        1 2CN      0.040700
     22 CAY         2.7200   -1.8120   -0.5640 ca        1 2CN      0.119100
     23 CAZ        -3.1370   -0.0060    0.1720 ca        1 2CN     -0.234000
     24 CBA        -3.8170    0.7430    1.1700 ca        1 2CN     -0.174000
     25 HAA        13.8330    2.5800    0.3960 hc        1 2CN      0.030700
     26 HAAA       12.9610    2.7620   -1.1820 hc        1 2CN      0.030700
     27 HAAB       12.4170    3.7030    0.2650 hc        1 2CN      0.030700
     28 HAE         1.7990   -4.6470    1.0720 ha        1 2CN      0.114000
     29 HAF        -0.4570   -3.7290    0.5570 ha        1 2CN      0.133000
     30 HAG        -5.5400    0.1420   -2.2520 ha        1 2CN      0.119000
     31 HAH         3.8480   -3.4330    0.3580 ha        1 2CN      0.119000
     32 HAI        -3.2880   -0.7830   -1.8500 ha        1 2CN      0.126000
     33 HAJ         1.3760   -0.3280   -1.3980 ha        1 2CN      0.145000
     34 HAK        -5.5690    1.8390    1.7510 ha        1 2CN      0.153000
     35 HAL        12.3470    0.6170   -0.0150 hc        1 2CN      0.037700
     36 HALA       11.8050    1.5560    1.4280 hc        1 2CN      0.037700
     37 HAM        10.0910    2.7400    0.0150 hc        1 2CN      0.039700
     38 HAMA       10.6330    1.8020   -1.4280 hc        1 2CN      0.039700
     39 HAN        10.0550   -0.3480   -0.2480 hc        1 2CN      0.038200
     40 HANA        9.5130    0.5910    1.1950 hc        1 2CN      0.038200
     41 HAO         7.7970    1.7750   -0.2180 hc        1 2CN      0.041700
     42 HAOA        8.3390    0.8370   -1.6620 hc        1 2CN      0.041700
     43 HAP         7.7620   -1.3120   -0.4820 hc        1 2CN      0.038700
     44 HAPA        7.2190   -0.3720    0.9620 hc        1 2CN      0.038700
     45 HAQ         5.4940    0.8090   -0.4560 hc        1 2CN      0.055200
     46 HAQA        6.0360   -0.1310   -1.8980 hc        1 2CN      0.055200
     47 HAR         5.4540   -2.2910   -0.7140 h1        1 2CN      0.034200
     48 HARA        4.8830   -1.3270    0.7340 h1        1 2CN      0.034200
     49 HAS        -1.7440   -2.2680   -0.9900 h1        1 2CN      0.045200
     50 HASA       -0.9990   -0.7590   -1.6450 h1        1 2CN      0.045200
     51 CAV        -3.0470    0.9020    2.4420 c2        1 2CN      0.442100
     52 CAS        -1.0300   -1.4420   -0.7640 c3        1 2CN      0.010200
     53 BRAD       -7.4200    1.7450   -0.6130 br        1 2CN     -0.154100
@<TRIPOS>BOND
     1    1   11 1   
     2    1   25 1   
     3    1   26 1   
     4    1   27 1   
     5    2   51 1   
     6    3   19 1   
     7    3   51 1   
     8    4    5 ar  
     9    4    7 ar  
    10    4   28 1   
    11    5   21 ar  
    12    5   29 1   
    13    6    8 ar  
    14    6   20 ar  
    15    6   30 1   
    16    7   22 ar  
    17    7   31 1   
    18    8   23 ar  
    19    8   32 1   
    20    9   21 ar  
    21    9   22 ar  
    22    9   33 1   
    23   10   20 ar  
    24   10   24 ar  
    25   10   34 1   
    26   11   12 1   
    27   11   35 1   
    28   11   36 1   
    29   12   13 1   
    30   12   37 1   
    31   12   38 1   
    32   13   14 1   
    33   13   39 1   
    34   13   40 1   
    35   14   15 1   
    36   14   41 1   
    37   14   42 1   
    38   15   16 1   
    39   15   43 1   
    40   15   44 1   
    41   16   17 1   
    42   16   45 1   
    43   16   46 1   
    44   17   18 1   
    45   17   47 1   
    46   17   48 1   
    47   18   22 1   
    48   19   23 2   
    49   19   52 1   
    50   20   53 1   
    51   21   52 1   
    52   23   24 ar  
    53   24   51 2   
    54   49   52 1   
    55   50   52 1   
@<TRIPOS>SUBSTRUCTURE
     1 2CN         1 TEMP              0 ****  ****    0 ROOT
