@<TRIPOS>MOLECULE
2CN
   53    51     1     0     0
SMALL
bcc


@<TRIPOS>ATOM
      1 CAA         5.3480    0.8250    5.7800 c1        1 2CN     -0.305000
      2 OAB        11.5650    3.1990   12.0960 o         1 2CN     -0.305000
      3 OAC        12.1270    1.8530   10.4580 os        1 2CN     -0.506000
      4 CAE        14.2360   -0.3960    6.2570 c1        1 2CN     -0.217000
      5 CAF        13.0750   -0.4070    6.5540 c1        1 2CN     -0.119000
      6 CAG         7.8540    2.2410    8.5690 c1        1 2CN     -0.204000
      7 CAH        11.7540   -0.8350    3.8170 c2        1 2CN     -0.230000
      8 CAI         9.1640    2.2300    7.9030 c3        1 2CN     -0.065000
      9 CAJ        10.6870   -0.6830    6.1100 c2        1 2CN     -0.123000
     10 CAK         8.8230    3.0800   10.6530 c1        1 2CN     -0.132000
     11 CAL         6.0150    1.2760    6.6700 c1        1 2CN     -0.305000
     12 CAM         2.2380   -0.8440    4.5280 c3        1 2CN     -0.274000
     13 CAN         4.5250    0.4680    1.7840 c3        1 2CN     -0.216000
     14 CAO         5.4480   -0.7080    1.9760 c3        1 2CN     -0.156000
     15 CAP         6.7880   -0.2710    2.5300 c3        1 2CN     -0.147000
     16 CAQ         7.7160   -1.4590    2.7020 c3        1 2CN     -0.240000
     17 CAR         9.0890   -0.9660    3.0270 c1        1 2CN     -0.003000
     18 OAT         9.4530   -1.3580    4.2420 os        1 2CN     -0.156000
     19 SAU        11.6690    1.5580    8.7770 s4        1 2CN      1.371000
     20 CAW         7.7620    2.6370    9.8820 c2        1 2CN     -0.325000
     21 CAX        11.7200   -0.4240    6.9450 c2        1 2CN      0.045000
     22 CAY        10.7370   -0.9280    4.6840 c2        1 2CN      0.061000
     23 CAZ        10.3490    2.3320    8.7850 c2        1 2CN     -0.866000
     24 CBA        10.1540    3.1780   10.0220 c3        1 2CN     -0.063000
     25 HAA         6.6630    1.6960    7.5030 ha        1 2CN      0.255000
     26 HAAA        4.7520    0.4240    5.0020 ha        1 2CN      0.255000
     27 HAAB        1.2960   -0.2760    4.3650 hc        1 2CN      0.068250
     28 HAE        11.6090   -1.0220    2.7450 ha        1 2CN      0.137500
     29 HAF        12.7610   -0.5430    4.1360 ha        1 2CN      0.137500
     30 HAG         9.1630    3.0960    7.1780 hc        1 2CN      0.092000
     31 HAH        15.2620   -0.3850    5.9950 ha        1 2CN      0.220000
     32 HAI         9.2330    1.2900    7.2850 hc        1 2CN      0.092000
     33 HAJ         9.6600   -0.7100    6.5300 ha        1 2CN      0.166000
     34 HAK        10.2900    4.2740    9.7770 hc        1 2CN      0.145000
     35 HAL         3.0540    1.8250    4.5850 ha        1 2CN      0.000500
     36 HALA        2.0130   -1.9310    4.5850 hc        1 2CN      0.068250
     37 HAM         2.9370   -0.6490    3.6830 hc        1 2CN      0.068250
     38 HAMA        2.5660    1.9000    4.1220 ha        1 2CN      0.000500
     39 HAN         3.5410    0.1260    1.3830 hc        1 2CN      0.074000
     40 HANA        2.7120   -0.5090    5.4780 hc        1 2CN      0.068250
     41 HAO         4.9760   -1.4430    2.6820 hc        1 2CN      0.072500
     42 HAOA        4.9650    1.2020    1.0680 hc        1 2CN      0.074000
     43 HAP         4.3470    0.9910    2.7580 hc        1 2CN      0.074000
     44 HAPA        5.5980   -1.2360    0.9980 hc        1 2CN      0.072500
     45 HAQ         7.8060   -2.0210    1.7330 hc        1 2CN      0.093500
     46 HAQA        7.2570    0.4780    1.8400 hc        1 2CN      0.102000
     47 HAR         6.6350    0.2320    3.5240 hc        1 2CN      0.102000
     48 HARA        7.2890   -2.1600    3.4670 hc        1 2CN      0.093500
     49 HAS        10.4500   -0.5140    8.6710 h1        1 2CN      0.135500
     50 HASA       12.2090   -0.6960    9.0160 h1        1 2CN      0.135500
     51 CAV        11.2710    2.7870   10.9780 c2        1 2CN      0.319000
     52 CAS        11.4660   -0.1490    8.3790 c3        1 2CN     -0.598000
     53 BrAD        6.0570    2.6030   10.7060 br        1 2CN     -0.044000
@<TRIPOS>BOND
     1    1   11 1   
     2    1   26 1   
     3    2   51 1   
     4    3   19 1   
     5    3   51 1   
     6    4    5 1   
     7    4   31 1   
     8    5   21 1   
     9    6    8 1   
    10    6   20 1   
    11    7   22 1   
    12    7   28 1   
    13    7   29 1   
    14    8   23 1   
    15    8   30 1   
    16    8   32 1   
    17    9   21 1   
    18    9   22 1   
    19    9   33 1   
    20   10   20 1   
    21   10   24 1   
    22   11   25 1   
    23   12   27 1   
    24   12   36 1   
    25   12   37 1   
    26   12   40 1   
    27   13   14 1   
    28   13   39 1   
    29   13   42 1   
    30   13   43 1   
    31   14   15 1   
    32   14   41 1   
    33   14   44 1   
    34   15   16 1   
    35   15   46 1   
    36   15   47 1   
    37   16   17 1   
    38   16   45 1   
    39   16   48 1   
    40   17   18 1   
    41   18   22 1   
    42   19   23 1   
    43   19   52 1   
    44   20   53 1   
    45   21   52 1   
    46   23   24 1   
    47   24   34 1   
    48   24   51 1   
    49   35   38 1   
    50   49   52 1   
    51   50   52 1   
@<TRIPOS>SUBSTRUCTURE
     1 2CN         1 TEMP              0 ****  ****    0 ROOT
