@<TRIPOS>MOLECULE
2CN
   53    49     1     0     0
SMALL
bcc


@<TRIPOS>ATOM
      1 CAA        -8.4480   -1.2280   -5.6290 c3        1 2CN     -0.210000
      2 OAB         3.9590    3.7940    6.1390 o         1 2CN     -0.551000
      3 OAC         5.8760    4.0260    5.1060 o         1 2CN     -0.551000
      4 BRAD        7.3500    0.0220    9.0920 br        1 2CN     -0.012000
      5 CAE         3.6170    0.1730   -0.8510 c1        1 2CN     -0.127500
      6 CAF         3.9480    0.1030    0.4950 c1        1 2CN     -0.127500
      7 CAG         6.4110   -0.6800    6.4680 c1        1 2CN     -0.123000
      8 CAH         2.2820    0.2190   -1.2370 c1        1 2CN     -0.215000
      9 CAI         5.7760   -0.4600    5.2700 c1        1 2CN     -0.144000
     10 CAJ         1.6070    0.1240    1.0790 c1        1 2CN     -0.139000
     11 CAK         5.9940    1.5880    7.1340 c1        1 2CN     -0.073000
     12 CAL        -6.8890   -1.1730   -5.6990 c3        1 2CN     -0.159000
     13 CAM        -6.3420   -0.7330   -4.3550 c3        1 2CN     -0.158000
     14 CAN        -4.8130   -0.8390   -4.3590 c3        1 2CN     -0.158000
     15 CAO        -4.2680   -0.4130   -2.9730 c3        1 2CN     -0.157000
     16 CAP        -2.7660   -0.2970   -3.0300 c3        1 2CN     -0.156000
     17 CAQ        -2.2010   -0.1530   -1.5900 c3        1 2CN     -0.165000
     18 CAR        -0.6470   -0.1050   -1.6470 c3        1 2CN     -0.018000
     19 CAS         3.2970   -0.0430    2.9500 c3        1 2CN     -0.279000
     20 OAT        -0.1310    0.2620   -0.3630 os        1 2CN     -0.216000
     21 SAU         4.5840    1.1390    3.3450 ss        1 2CN      0.170000
     22 CAV         5.0610    3.3030    5.7310 c2        1 2CN      0.350000
     23 CAW         6.5180    0.3600    7.4080 c1        1 2CN     -0.183000
     24 CAX         2.9350    0.0780    1.4650 c1        1 2CN     -0.006000
     25 CAY         1.2770    0.1950   -0.2740 c1        1 2CN      0.067000
     26 CAZ         5.2380    0.7960    4.9860 c2        1 2CN     -0.184000
     27 CBA         5.3440    1.8140    5.9100 c2        1 2CN     -0.086000
     28 HAA        -8.8090   -0.3000   -5.4650 hc        1 2CN      0.070333
     29 HAAA       -8.7360   -1.8480   -4.8620 hc        1 2CN      0.070333
     30 HAAB       -8.7990   -1.5680   -6.4680 hc        1 2CN      0.070333
     31 HAE         4.2830    0.1900   -1.4900 ha        1 2CN      0.132500
     32 HAF         4.9000    0.0370    0.7690 ha        1 2CN      0.132500
     33 HAG         6.7300   -1.5410    6.6790 ha        1 2CN      0.122000
     34 HAH         2.0520    0.2680   -2.1700 ha        1 2CN      0.123000
     35 HAI         5.8170   -1.1500    4.5620 ha        1 2CN      0.125000
     36 HAJ         0.9200    0.1070    1.7360 ha        1 2CN      0.158000
     37 HAK         6.1820    2.3510    7.7420 ha        1 2CN      0.150000
     38 HAL        -6.6160   -0.5350   -6.3870 hc        1 2CN      0.076500
     39 HALA       -6.5310   -2.0770   -5.9250 hc        1 2CN      0.076500
     40 HAM        -6.7070   -1.3120   -3.6480 hc        1 2CN      0.079500
     41 HAMA       -6.6080    0.2080   -4.1830 hc        1 2CN      0.079500
     42 HAN        -4.4330   -0.2330   -5.0730 hc        1 2CN      0.077500
     43 HANA       -4.5570   -1.7390   -4.5390 hc        1 2CN      0.077500
     44 HAO        -4.6550    0.4600   -2.7230 hc        1 2CN      0.081500
     45 HAOA       -4.5090   -1.0600   -2.3280 hc        1 2CN      0.081500
     46 HAP        -2.5250    0.4750   -3.5460 hc        1 2CN      0.077500
     47 HAPA       -2.3920   -1.1000   -3.4480 hc        1 2CN      0.077500
     48 HAQ        -2.4880   -0.9260   -1.0440 hc        1 2CN      0.096500
     49 HAQA       -2.5470    0.6930   -1.1790 hc        1 2CN      0.096500
     50 HAR        -0.3660    0.5550   -2.3130 h1        1 2CN      0.072500
     51 HARA       -0.2960   -1.0050   -1.9010 h1        1 2CN      0.072500
     52 HAS         2.5030    0.1410    3.4950 h1        1 2CN      0.167500
     53 HASA        3.6210   -0.9630    3.1390 h1        1 2CN      0.167500
@<TRIPOS>BOND
     1    1   12 1   
     2    1   28 1   
     3    1   29 1   
     4    1   30 1   
     5    2   22 1   
     6    3   22 1   
     7    4   23 1   
     8    5    6 1   
     9    5   31 1   
    10    6   32 1   
    11    7   23 1   
    12    7   33 1   
    13    8   25 1   
    14    8   34 1   
    15    9   26 1   
    16    9   35 1   
    17   10   24 1   
    18   10   36 1   
    19   11   27 1   
    20   11   37 1   
    21   12   13 1   
    22   12   38 1   
    23   12   39 1   
    24   13   14 1   
    25   13   40 1   
    26   13   41 1   
    27   14   15 1   
    28   14   42 1   
    29   14   43 1   
    30   15   16 1   
    31   15   44 1   
    32   15   45 1   
    33   16   17 1   
    34   16   46 1   
    35   16   47 1   
    36   17   18 1   
    37   17   48 1   
    38   17   49 1   
    39   18   20 1   
    40   18   50 1   
    41   18   51 1   
    42   19   21 1   
    43   19   24 1   
    44   19   52 1   
    45   19   53 1   
    46   20   25 1   
    47   21   26 1   
    48   22   27 1   
    49   26   27 1   
@<TRIPOS>SUBSTRUCTURE
     1 2CN         1 TEMP              0 ****  ****    0 ROOT
