@<TRIPOS>MOLECULE
2CO
   15    14     1     0     0
SMALL
bcc


@<TRIPOS>ATOM
      1 N           2.7420   -1.0540    0.1620 n3        1 2CO     -0.896800
      2 CA          1.4830   -1.1250   -0.5620 c3        1 2CO      0.021500
      3 C           1.6070   -1.0550   -2.1230 c         1 2CO      0.892600
      4 O           2.7590   -1.1420   -2.6320 o         1 2CO     -0.838800
      5 CB          0.4390   -0.1240   -0.0870 c3        1 2CO     -0.012300
      6 SG          0.9300    1.5720   -0.0500 ss        1 2CO     -0.085300
      7 OD          1.3530    1.8450    1.6120 os        1 2CO     -0.146800
      8 OE          2.5540    1.5330    1.8990 oh        1 2CO     -0.380000
      9 OXT         0.5340   -0.9540   -2.7810 o         1 2CO     -0.838800
     10 H           2.9780   -0.0900    0.3230 hn        1 2CO      0.339300
     11 H2          3.4560   -1.4350   -0.4410 hn        1 2CO      0.339300
     12 HA          1.0620   -2.1550   -0.3490 h1        1 2CO      0.048700
     13 HB2         0.0590   -0.4000    0.9250 h1        1 2CO      0.086200
     14 HB3        -0.4060   -0.1540   -0.8300 h1        1 2CO      0.086200
     15 HE          3.1480    2.2790    1.6490 ho        1 2CO      0.386000
@<TRIPOS>BOND
     1    1    2 1   
     2    1   10 1   
     3    1   11 1   
     4    2    3 1   
     5    2    5 1   
     6    2   12 1   
     7    3    4 1   
     8    3    9 1   
     9    5    6 1   
    10    5   13 1   
    11    5   14 1   
    12    6    7 1   
    13    7    8 1   
    14    8   15 1   
@<TRIPOS>SUBSTRUCTURE
     1 2CO         1 TEMP              0 ****  ****    0 ROOT
