@<TRIPOS>MOLECULE
2CQ
   21    21     1     0     0
SMALL
bcc


@<TRIPOS>ATOM
      1 NAB        -0.0690   -0.0020    0.0790 n4        1 2CQ     -0.716000
      2 CAH         1.3930   -0.0020    0.0060 ca        1 2CQ     -0.046400
      3 CAE         2.1110    0.0000    1.2100 ca        1 2CQ     -0.071000
      4 CAG         3.5160    0.0000    1.2320 ca        1 2CQ      0.034700
      5 CAA         4.2310    0.0030    2.5250 c3        1 2CQ     -0.103800
      6 CAJ         4.2130   -0.0010    0.0080 ca        1 2CQ      0.053400
      7 CL          5.8860   -0.0010   -0.0380 cl        1 2CQ      0.085600
      8 CAF         3.5050   -0.0040   -1.2060 ca        1 2CQ     -0.068000
      9 CAI         2.1050   -0.0040   -1.2270 ca        1 2CQ     -0.048400
     10 NAC         1.4400   -0.0060   -2.5300 n4        1 2CQ     -0.715000
     11 H1         -0.4590   -0.8460   -0.3600 hn        1 2CQ      0.480133
     12 H2         -0.4590    0.8400   -0.3630 hn        1 2CQ      0.480133
     13 H3          1.5850    0.0020    2.1860 ha        1 2CQ      0.195000
     14 H4          4.8910    0.9090    2.6020 hc        1 2CQ      0.105033
     15 H5          3.5280    0.0040    3.3950 hc        1 2CQ      0.105033
     16 H6          4.8910   -0.9030    2.6050 hc        1 2CQ      0.105033
     17 H7          4.0910   -0.0050   -2.1500 ha        1 2CQ      0.202000
     18 H8          0.8630    0.8360   -2.6500 hn        1 2CQ      0.480133
     19 H9          0.8630   -0.8490   -2.6470 hn        1 2CQ      0.480133
     20 HAB3       -0.3620   -0.0010    1.0730 hn        1 2CQ      0.480133
     21 HAC3        2.1560   -0.0070   -3.2800 hn        1 2CQ      0.480133
@<TRIPOS>BOND
     1    1    2 1   
     2    1   11 1   
     3    1   12 1   
     4    1   20 1   
     5    2    3 ar  
     6    2    9 ar  
     7    3    4 ar  
     8    3   13 1   
     9    4    5 1   
    10    4    6 ar  
    11    5   14 1   
    12    5   15 1   
    13    5   16 1   
    14    6    7 1   
    15    6    8 ar  
    16    8    9 ar  
    17    8   17 1   
    18    9   10 1   
    19   10   18 1   
    20   10   19 1   
    21   10   21 1   
@<TRIPOS>SUBSTRUCTURE
     1 2CQ         1 TEMP              0 ****  ****    0 ROOT
