@<TRIPOS>MOLECULE
2CQ
   19    19     1     0     0
SMALL
bcc


@<TRIPOS>ATOM
      1 NAB        -0.0460    0.1840   -0.0530 nv        1 2CQ     -0.804200
      2 CAH         1.3590    0.1070   -0.0450 ca        1 2CQ      0.092600
      3 CAE         2.0720    0.2040    1.1640 ca        1 2CQ     -0.159000
      4 CAG         3.4590    0.0550    1.2240 ca        1 2CQ     -0.066300
      5 CAA         4.1610    0.1630    2.5240 c3        1 2CQ     -0.050800
      6 CAJ         4.1560   -0.1910    0.0350 ca        1 2CQ      0.012400
      7 Cl          5.8510   -0.3690    0.0420 cl        1 2CQ     -0.102400
      8 CAF         3.4830   -0.3010   -1.1800 ca        1 2CQ     -0.155000
      9 CAI         2.0850   -0.1600   -1.2530 ca        1 2CQ      0.084600
     10 NAC         1.4260   -0.1940   -2.4970 nv        1 2CQ     -0.802200
     11 H1         -0.4070    0.7170   -0.8170 hn        1 2CQ      0.382300
     12 H2         -0.4190    0.5010    0.8180 hn        1 2CQ      0.382300
     13 H3          1.5260    0.4010    2.1010 ha        1 2CQ      0.134000
     14 H4          4.9060    0.9980    2.4940 hc        1 2CQ      0.048700
     15 H5          4.7110   -0.7860    2.7470 hc        1 2CQ      0.048700
     16 H6          3.4430    0.3590    3.3580 hc        1 2CQ      0.048700
     17 H7          4.0610   -0.5000   -2.0980 ha        1 2CQ      0.144000
     18 H8          0.5860   -0.7360   -2.4770 hn        1 2CQ      0.380800
     19 H9          2.0270   -0.4890   -3.2400 hn        1 2CQ      0.380800
@<TRIPOS>BOND
     1    1    2 1   
     2    1   11 1   
     3    1   12 1   
     4    2    3 ar  
     5    2    9 ar  
     6    3    4 ar  
     7    3   13 1   
     8    4    5 1   
     9    4    6 ar  
    10    5   14 1   
    11    5   15 1   
    12    5   16 1   
    13    6    7 1   
    14    6    8 ar  
    15    8    9 ar  
    16    8   17 1   
    17    9   10 1   
    18   10   18 1   
    19   10   19 1   
@<TRIPOS>SUBSTRUCTURE
     1 2CQ         1 TEMP              0 ****  ****    0 ROOT
