@<TRIPOS>MOLECULE
2CQ
   19    19     1     0     0
SMALL
bcc


@<TRIPOS>ATOM
      1 NAB        -0.0500    0.1910    0.0160 nh        1 2CQ     -0.804200
      2 CAH         1.3550    0.1110   -0.0130 ca        1 2CQ      0.092600
      3 CAE         2.1000    0.2030    1.1770 ca        1 2CQ     -0.159000
      4 CAG         3.4870    0.0510    1.2000 ca        1 2CQ     -0.066300
      5 CAA         4.2240    0.1540    2.4810 c3        1 2CQ     -0.050800
      6 CAJ         4.1520   -0.1950   -0.0080 ca        1 2CQ      0.012400
      7 CL          5.8450   -0.3770   -0.0460 cl        1 2CQ     -0.102400
      8 CAF         3.4460   -0.3020   -1.2050 ca        1 2CQ     -0.155000
      9 CAI         2.0480   -0.1560   -1.2400 ca        1 2CQ      0.084600
     10 NAC         1.3560   -0.1860   -2.4670 nh        1 2CQ     -0.802200
     11 H1         -0.4290    0.7270   -0.7370 hn        1 2CQ      0.382300
     12 H2         -0.3990    0.5080    0.8970 hn        1 2CQ      0.382300
     13 H3          1.5790    0.4000    2.1280 ha        1 2CQ      0.134000
     14 H4          4.7780   -0.7960    2.6870 hc        1 2CQ      0.048700
     15 H5          3.5290    0.3500    3.3340 hc        1 2CQ      0.048700
     16 H6          4.9690    0.9880    2.4330 hc        1 2CQ      0.048700
     17 H7          3.9990   -0.5000   -2.1380 ha        1 2CQ      0.144000
     18 H8          0.5150   -0.7250   -2.4250 hn        1 2CQ      0.380800
     19 H9          1.9350   -0.4810   -3.2250 hn        1 2CQ      0.380800
@<TRIPOS>BOND
     1    1    2 1   
     2    1   11 1   
     3    1   12 1   
     4    2    3 ar  
     5    2    9 ar  
     6    3    4 ar  
     7    3   13 1   
     8    4    5 1   
     9    4    6 ar  
    10    5   14 1   
    11    5   15 1   
    12    5   16 1   
    13    6    7 1   
    14    6    8 ar  
    15    8    9 ar  
    16    8   17 1   
    17    9   10 1   
    18   10   18 1   
    19   10   19 1   
@<TRIPOS>SUBSTRUCTURE
     1 2CQ         1 TEMP              0 ****  ****    0 ROOT
