@<TRIPOS>MOLECULE
2CS
   75    79     1     0     0
SMALL
bcc


@<TRIPOS>ATOM
      1 C1         -4.7620   -0.6880   -1.5880 c3        1 2CS     -0.074600
      2 C2         -4.2750    0.7380   -1.4290 c3        1 2CS     -0.181000
      3 C3         -5.4770    1.6690   -1.8490 c         1 2CS      0.925600
      4 O4         -5.9700    2.4340   -0.9760 o         1 2CS     -0.830800
      5 O5         -5.8830    1.5750   -3.0380 o         1 2CS     -0.830800
      6 C7         -3.9100    1.0630    0.0170 c3        1 2CS     -0.043200
      7 C8         -2.5490    0.6860    0.4770 cc        1 2CS      0.094700
      8 C11        -2.6050   -2.9720    0.5690 ca        1 2CS     -0.096300
      9 C12        -2.7900   -4.1720    1.2660 ca        1 2CS     -0.106500
     10 C13        -2.4150   -5.3870    0.6980 ca        1 2CS     -0.127500
     11 C14        -2.0350   -2.9990   -0.7080 ca        1 2CS     -0.106500
     12 C15        -1.6520   -4.2100   -1.2840 ca        1 2CS     -0.127500
     13 C16        -1.8440   -5.4000   -0.5780 ca        1 2CS      0.016400
     14 C19        -0.0860   -1.4780    2.1010 ca        1 2CS     -0.114000
     15 C20         1.2240   -1.1480    2.4230 ca        1 2CS     -0.173000
     16 C21        -0.3560    0.8000    1.1640 ca        1 2CS     -0.028800
     17 C22         0.9630    1.1100    1.4890 ca        1 2CS     -0.116000
     18 C27         4.0580    0.8730   -0.1170 ca        1 2CS     -0.225300
     19 C30         6.7990    0.5220   -0.2570 ca        1 2CS      0.398600
     20 C31         8.2200    0.3530   -0.3540 ca        1 2CS     -0.167300
     21 C32         8.9010    0.8320   -1.4440 ca        1 2CS     -0.131000
     22 C33         8.2230    1.4990   -2.4920 ca        1 2CS     -0.137000
     23 C34         6.8630    1.6780   -2.4300 ca        1 2CS     -0.107000
     24 C28         4.7140    1.3630   -1.2150 ca        1 2CS     -0.086000
     25 C29         6.1250    1.1980   -1.3200 ca        1 2CS     -0.148300
     26 N35         6.1290    0.0350    0.8470 nb        1 2CS     -0.672000
     27 C26         4.8110    0.2040    0.9070 ca        1 2CS      0.407600
     28 C25         4.0680   -0.3680    2.0960 c3        1 2CS      0.075100
     29 C23         1.7360    0.1270    2.1100 ca        1 2CS      0.059100
     30 C18        -0.8770   -0.5120    1.4690 ca        1 2CS     -0.072200
     31 C36        -1.4250    1.5450    0.5310 cd        1 2CS     -0.139600
     32 S37        -1.2930    3.0650   -0.1420 ss        1 2CS     -0.200700
     33 C38        -1.5880    4.2620    1.1760 c3        1 2CS      0.009100
     34 C41        -1.5020    5.5820    0.4350 c3        1 2CS     -0.084767
     35 C39        -2.9600    4.0880    1.7860 c3        1 2CS     -0.084767
     36 C40        -0.5200    4.1770    2.2420 c3        1 2CS     -0.084767
     37 C6         -3.1150    0.9990   -2.3650 c3        1 2CS     -0.074600
     38 N9         -2.2140   -0.5580    1.0340 na        1 2CS     -0.076400
     39 CL17       -1.3790   -6.8830   -1.2770 cl        1 2CS     -0.112400
     40 H11        -5.5860   -0.9060   -0.8660 hc        1 2CS      0.025200
     41 H12A       -5.1640   -0.8160   -2.6240 hc        1 2CS      0.025200
     42 H13A       -3.9380   -1.4260   -1.4300 hc        1 2CS      0.025200
     43 H71        -3.9900    2.1880    0.1270 hc        1 2CS      0.083700
     44 H72        -4.6890    0.6190    0.6930 hc        1 2CS      0.083700
     45 H101       -4.0880   -1.4360    0.7570 h1        1 2CS      0.076200
     46 H102       -3.2130   -1.8640    2.3110 h1        1 2CS      0.076200
     47 H12        -3.2390   -4.1610    2.2710 ha        1 2CS      0.150000
     48 H13        -2.5680   -6.3260    1.2500 ha        1 2CS      0.144500
     49 H14        -1.8850   -2.0600   -1.2700 ha        1 2CS      0.150000
     50 H15        -1.2060   -4.2220   -2.2890 ha        1 2CS      0.144500
     51 H19        -0.4900   -2.4730    2.3330 ha        1 2CS      0.134000
     52 H20         1.8640   -1.8810    2.9320 ha        1 2CS      0.128000
     53 H22         1.3730    2.1090    1.2810 ha        1 2CS      0.155000
     54 H32         9.9910    0.7020   -1.5160 ha        1 2CS      0.128000
     55 H33         8.8000    1.8710   -3.3510 ha        1 2CS      0.128000
     56 H34         6.3230    2.1960   -3.2380 ha        1 2CS      0.134000
     57 H28         4.1730    1.8810   -2.0210 ha        1 2CS      0.144000
     58 H251        3.6920   -1.3880    1.8210 h1        1 2CS      0.069700
     59 H252        4.7390   -0.4380    2.9970 h1        1 2CS      0.069700
     60 H411       -2.2870    5.6330   -0.3590 hc        1 2CS      0.041033
     61 H412       -1.6590    6.4280    1.1470 hc        1 2CS      0.041033
     62 H413       -0.4980    5.7000   -0.0410 hc        1 2CS      0.041033
     63 H391       -3.0540    3.0730    2.2440 hc        1 2CS      0.041033
     64 H392       -3.1300    4.8530    2.5820 hc        1 2CS      0.041033
     65 H393       -3.7550    4.2010    1.0060 hc        1 2CS      0.041033
     66 H401        0.4880    4.3820    1.8050 hc        1 2CS      0.041033
     67 H402       -0.7150    4.9240    3.0490 hc        1 2CS      0.041033
     68 H403       -0.5070    3.1560    2.6960 hc        1 2CS      0.041033
     69 H61        -3.4900    1.0250   -3.4180 hc        1 2CS      0.025200
     70 H62        -2.6390    1.9830   -2.1250 hc        1 2CS      0.025200
     71 H63        -2.3390    0.1990   -2.2750 hc        1 2CS      0.025200
     72 C10        -3.0770   -1.6910    1.2010 c3        1 2CS      0.079600
     73 O24         3.0170    0.4980    2.5170 os        1 2CS     -0.336900
     74 H27         2.9690    0.9820    0.0090 ha        1 2CS      0.171000
     75 H31         8.7510   -0.1650    0.4590 ha        1 2CS      0.144000
@<TRIPOS>BOND
     1    1    2 1   
     2    1   40 1   
     3    1   41 1   
     4    1   42 1   
     5    2    3 1   
     6    2    6 1   
     7    2   37 1   
     8    3    4 1   
     9    3    5 1   
    10    6    7 1   
    11    6   43 1   
    12    6   44 1   
    13    7   31 2   
    14    7   38 1   
    15    8    9 ar  
    16    8   11 ar  
    17    8   72 1   
    18    9   10 ar  
    19    9   47 1   
    20   10   13 ar  
    21   10   48 1   
    22   11   12 ar  
    23   11   49 1   
    24   12   13 ar  
    25   12   50 1   
    26   13   39 1   
    27   14   15 ar  
    28   14   30 ar  
    29   14   51 1   
    30   15   29 ar  
    31   15   52 1   
    32   16   17 ar  
    33   16   30 ar  
    34   16   31 1   
    35   17   29 ar  
    36   17   53 1   
    37   18   24 ar  
    38   18   27 ar  
    39   18   74 1   
    40   19   20 ar  
    41   19   25 ar  
    42   19   26 ar  
    43   20   21 ar  
    44   20   75 1   
    45   21   22 ar  
    46   21   54 1   
    47   22   23 ar  
    48   22   55 1   
    49   23   25 ar  
    50   23   56 1   
    51   24   25 ar  
    52   24   57 1   
    53   26   27 ar  
    54   27   28 1   
    55   28   58 1   
    56   28   59 1   
    57   28   73 1   
    58   29   73 1   
    59   30   38 1   
    60   31   32 1   
    61   32   33 1   
    62   33   34 1   
    63   33   35 1   
    64   33   36 1   
    65   34   60 1   
    66   34   61 1   
    67   34   62 1   
    68   35   63 1   
    69   35   64 1   
    70   35   65 1   
    71   36   66 1   
    72   36   67 1   
    73   36   68 1   
    74   37   69 1   
    75   37   70 1   
    76   37   71 1   
    77   38   72 1   
    78   45   72 1   
    79   46   72 1   
@<TRIPOS>SUBSTRUCTURE
     1 2CS         1 TEMP              0 ****  ****    0 ROOT
