@<TRIPOS>MOLECULE
2CS
   75    73     1     0     0
SMALL
bcc


@<TRIPOS>ATOM
      1 C1         -0.1980    1.2640    3.1060 c2        1 2CS     -0.239000
      2 C2          0.6730    1.3360    2.0970 c2        1 2CS     -0.130000
      3 C3          0.3970    0.6660    0.7750 c2        1 2CS      0.356000
      4 O4          1.3640    0.4140   -0.0100 o         1 2CS     -0.596500
      5 O5         -0.7940    0.3560    0.4620 o         1 2CS     -0.596500
      6 C7          2.4790   -1.9220   -2.0670 c3        1 2CS     -0.190000
      7 C8          1.7000   -1.8440   -3.3150 c2        1 2CS     -0.043000
      8 C11        -1.6380   -1.3750   -1.8670 c2        1 2CS     -0.097000
      9 C12        -3.4190   -0.5290    1.7630 c3        1 2CS     -0.144000
     10 C13        -4.7450   -0.0620    1.9960 c1        1 2CS     -0.080000
     11 C14        -2.5310   -2.2080   -2.5530 c1        1 2CS     -0.114000
     12 C15        -3.3250   -2.9310   -3.0860 c1        1 2CS     -0.241000
     13 C16        -5.8590    0.3300    2.1920 c1        1 2CS     -0.274000
     14 C19        -1.3460   -1.0720   -5.2250 c2        1 2CS     -0.112000
     15 C20        -1.5320   -1.2080   -6.5520 c2        1 2CS     -0.158000
     16 C21         1.0180   -1.9070   -5.5110 c2        1 2CS     -0.193000
     17 C22         0.8840   -1.9760   -6.8810 c1        1 2CS     -0.140000
     18 C27         2.5230   -0.8130   -9.9060 c2        1 2CS     -0.199000
     19 C30         3.7350   -0.1090  -12.3640 c2        1 2CS     -0.051000
     20 C31         4.2960    0.2350  -13.5420 c2        1 2CS     -0.227000
     21 C32         2.1470    2.1710  -17.6970 c1        1 2CS      0.390500
     22 C33         2.8260    2.4910  -16.6510 c1        1 2CS     -0.782000
     23 C34         3.5040    2.8020  -15.6000 c1        1 2CS      0.390500
     24 C28         2.4980    0.4840  -10.2520 c2        1 2CS     -0.135000
     25 C29         3.1110    0.9710  -11.5140 c3        1 2CS     -0.134000
     26 N35         3.7360   -1.4600  -11.9370 n2        1 2CS     -0.161000
     27 C26         3.1770   -1.7610  -10.8080 c2        1 2CS     -0.024000
     28 C25        -1.0240   -1.8010   -9.6860 c1        1 2CS     -0.081000
     29 C23        -0.4990   -1.8700   -7.4070 c3        1 2CS      0.017000
     30 C18        -0.0820   -1.4800   -4.6570 c2        1 2CS      0.036000
     31 C36         2.1390   -2.1410   -4.6200 c2        1 2CS     -0.231000
     32 S37         3.6730   -2.7640   -4.8360 ss        1 2CS      0.232000
     33 C38         4.3290   -2.3880   -6.4720 c3        1 2CS     -0.143000
     34 C41         5.8080   -2.6570   -6.2680 c3        1 2CS     -0.214333
     35 C39         3.7590   -3.3260   -7.5100 c3        1 2CS     -0.214333
     36 C40         4.0930   -0.9490   -6.8620 c3        1 2CS     -0.214333
     37 C6          1.9620    2.0560    2.1950 c3        1 2CS     -0.171000
     38 N9          0.3350   -1.4540   -3.3530 na        1 2CS     -0.023000
     39 CL17       -7.3460    0.8600    2.4520 cl        1 2CS      0.127000
     40 H11        -2.0030   -0.9380   -0.9050 ha        1 2CS      0.213000
     41 H12A       -0.0200    1.7270    4.0840 ha        1 2CS      0.097000
     42 H13A       -1.1530    0.7310    2.9940 ha        1 2CS      0.097000
     43 H71         3.5690   -1.9410   -2.3240 hc        1 2CS      0.116333
     44 H72         2.2260   -2.8580   -1.5080 hc        1 2CS      0.116333
     45 H101        0.2300   -0.4110   -1.4920 h4        1 2CS      0.268000
     46 H102        2.2750   -1.0450   -1.3910 hc        1 2CS      0.116333
     47 H12        -2.7600    0.2840    1.3390 hc        1 2CS      0.122000
     48 H13        -2.9540   -0.8840    2.7190 hc        1 2CS      0.122000
     49 H14        -3.4220   -1.3780    1.0320 hc        1 2CS      0.122000
     50 H15        -4.0210   -3.5710   -3.5610 ha        1 2CS      0.215000
     51 H19        -2.1150   -0.6530   -4.5570 ha        1 2CS      0.156000
     52 H20        -2.4550   -0.8820   -7.0500 ha        1 2CS      0.136000
     53 H22        -0.8340   -2.9430   -7.5910 h1        1 2CS      0.160000
     54 H32         4.2990    1.2800  -13.8820 ha        1 2CS      0.118500
     55 H33         2.3250    1.5010  -12.1190 hc        1 2CS      0.100500
     56 H34         3.9000    1.7330  -11.2630 hc        1 2CS      0.100500
     57 H28         2.0240    1.2490   -9.6190 ha        1 2CS      0.135000
     58 H251        3.1990   -2.8260  -10.5010 h4        1 2CS      0.159000
     59 H252       -0.9110   -1.1540  -10.5970 ha        1 2CS      0.026000
     60 H411        6.2410   -1.9390   -5.5300 hc        1 2CS      0.086556
     61 H412        6.3480   -2.5390   -7.2390 hc        1 2CS      0.086556
     62 H413        5.9690   -3.6980   -5.8960 hc        1 2CS      0.086556
     63 H391        3.8980   -4.3890   -7.1970 hc        1 2CS      0.086556
     64 H392        4.2760   -3.1730   -8.4900 hc        1 2CS      0.086556
     65 H393        2.6630   -3.1220   -7.6490 hc        1 2CS      0.086556
     66 H401        4.5360   -0.7470   -7.8680 hc        1 2CS      0.086556
     67 H402        2.9930   -0.7450   -6.9160 hc        1 2CS      0.086556
     68 H403        4.5570   -0.2560   -6.1190 hc        1 2CS      0.086556
     69 H61         1.9070    3.0060    1.6060 hc        1 2CS      0.071000
     70 H62         2.2220    2.3080    3.2520 hc        1 2CS      0.071000
     71 H63         2.7770    1.4270    1.7540 hc        1 2CS      0.071000
     72 C10        -0.3740   -1.0510   -2.2050 c2        1 2CS     -0.050000
     73 O24        -0.4560   -1.1690   -8.6910 os        1 2CS     -0.147000
     74 H27         2.0750   -1.2060   -8.9720 ha        1 2CS      0.196000
     75 H31         4.7740   -0.4890  -14.2120 ha        1 2CS      0.118500
@<TRIPOS>BOND
     1    1    2 1   
     2    1   41 1   
     3    1   42 1   
     4    2    3 1   
     5    2   37 1   
     6    3    4 1   
     7    3    5 1   
     8    6    7 1   
     9    6   43 1   
    10    6   44 1   
    11    6   46 1   
    12    7   31 1   
    13    7   38 1   
    14    8   11 1   
    15    8   40 1   
    16    8   72 1   
    17    9   10 1   
    18    9   47 1   
    19    9   48 1   
    20    9   49 1   
    21   10   13 1   
    22   11   12 1   
    23   12   50 1   
    24   13   39 1   
    25   14   15 1   
    26   14   30 1   
    27   14   51 1   
    28   15   29 1   
    29   15   52 1   
    30   16   17 1   
    31   16   30 1   
    32   16   31 1   
    33   17   29 1   
    34   18   24 1   
    35   18   27 1   
    36   18   74 1   
    37   19   20 1   
    38   19   25 1   
    39   19   26 1   
    40   20   54 1   
    41   20   75 1   
    42   21   22 1   
    43   22   23 1   
    44   24   25 1   
    45   24   57 1   
    46   25   55 1   
    47   25   56 1   
    48   26   27 1   
    49   27   58 1   
    50   28   59 1   
    51   28   73 1   
    52   29   53 1   
    53   29   73 1   
    54   30   38 1   
    55   31   32 1   
    56   32   33 1   
    57   33   34 1   
    58   33   35 1   
    59   33   36 1   
    60   34   60 1   
    61   34   61 1   
    62   34   62 1   
    63   35   63 1   
    64   35   64 1   
    65   35   65 1   
    66   36   66 1   
    67   36   67 1   
    68   36   68 1   
    69   37   69 1   
    70   37   70 1   
    71   37   71 1   
    72   38   72 1   
    73   45   72 1   
@<TRIPOS>SUBSTRUCTURE
     1 2CS         1 TEMP              0 ****  ****    0 ROOT
