@<TRIPOS>MOLECULE
2CS
   75    73     1     0     0
SMALL
bcc


@<TRIPOS>ATOM
      1 C1          0.7310   -0.0450   -0.7180 c3        1 2CS     -0.190500
      2 C2          1.3050   -1.4300   -0.9400 c3        1 2CS     -0.116000
      3 C3          0.8530   -2.3260    0.2580 c2        1 2CS      0.338000
      4 O4          0.1460   -3.3500    0.0290 o         1 2CS     -0.575500
      5 O5          1.2100   -1.9780    1.4190 o         1 2CS     -0.575500
      6 C7          0.8120   -2.0500   -2.2470 c3        1 2CS     -0.114000
      7 C8          0.6170   -1.1030   -3.3680 c2        1 2CS      0.003000
      8 C11        -2.7630   -0.8470   -2.2700 c1        1 2CS      0.010000
      9 C12        -1.2060   -3.3430    2.7960 c3        1 2CS     -0.171000
     10 C13        -2.4840   -2.9320    3.2700 c1        1 2CS     -0.046000
     11 C14        -3.8700   -1.0380   -1.5200 c1        1 2CS     -0.052000
     12 C15        -4.8380   -1.2200   -0.8360 c1        1 2CS     -0.151000
     13 C16        -3.5610   -2.5890    3.6670 c1        1 2CS     -0.313000
     14 C19        -1.5220    1.1150   -5.4160 c2        1 2CS     -0.115000
     15 C20        -1.1600    1.8210   -6.5050 c2        1 2CS     -0.153000
     16 C21         0.8280    0.2050   -5.2580 c2        1 2CS     -0.178000
     17 C22         1.2490    0.9530   -6.3420 c1        1 2CS     -0.102000
     18 C27         3.1390    0.0010   -9.9910 c2        1 2CS     -0.217000
     19 C30         3.1220   -0.2250  -12.8070 c2        1 2CS     -0.054000
     20 C31         3.1130   -0.3180  -14.1540 c2        1 2CS     -0.226000
     21 C32         0.6500    0.4940  -16.3440 c1        1 2CS      0.390500
     22 C33        -0.0450   -0.4780  -16.8260 c1        1 2CS     -0.783000
     23 C34        -0.7370   -1.4550  -17.3000 c1        1 2CS      0.390500
     24 C28         2.3430    0.8490  -10.6640 c2        1 2CS     -0.127000
     25 C29         2.2550    0.8180  -12.1450 c3        1 2CS     -0.135000
     26 N35         3.9320   -1.0930  -12.0340 n2        1 2CS     -0.160000
     27 C26         3.9250   -0.9730  -10.7440 c2        1 2CS     -0.025000
     28 C25         0.9820    3.1860   -8.7090 c1        1 2CS     -0.089000
     29 C23         0.1950    1.6570   -7.1150 c3        1 2CS      0.009000
     30 C18        -0.5340    0.2780   -4.7810 c2        1 2CS      0.029000
     31 C36         1.5400   -0.6700   -4.3430 c2        1 2CS     -0.244000
     32 S37         3.1380   -1.1280   -4.2320 ss        1 2CS      0.297000
     33 C38         3.9160   -1.2260   -5.8520 c3        1 2CS     -0.170000
     34 C41         5.1140   -2.1050   -5.5420 c3        1 2CS     -0.212000
     35 C39         3.0330   -1.8780   -6.8890 c3        1 2CS     -0.212000
     36 C40         4.3720    0.1370   -6.3220 c3        1 2CS     -0.212000
     37 C6          2.8220   -1.3670   -0.9290 c3        1 2CS     -0.190500
     38 N9         -0.6490   -0.5040   -3.6480 na        1 2CS      0.037000
     39 Cl17       -5.0000   -2.1250    4.1970 cl        1 2CS      0.108000
     40 H11        -0.3830   -0.0680   -0.8000 hc        1 2CS      0.067000
     41 H12A        1.1330    0.6810   -1.4650 hc        1 2CS      0.067000
     42 H13A        1.0020    0.3030    0.3100 hc        1 2CS      0.067000
     43 H71         1.5610   -2.8190   -2.5890 hc        1 2CS      0.126000
     44 H72        -0.1500   -2.5990   -2.0280 hc        1 2CS      0.126000
     45 H101        1.3460   -4.8170    2.3490 ha        1 2CS     -0.001500
     46 H102        1.1570   -4.2820    1.9730 ha        1 2CS     -0.001500
     47 H12        -0.8120   -4.1880    3.4170 hc        1 2CS      0.137000
     48 H13        -1.2440   -3.6750    1.7190 hc        1 2CS      0.137000
     49 H14        -0.4570   -2.5010    2.8190 hc        1 2CS      0.137000
     50 H15        -5.6810   -1.3860   -0.2160 ha        1 2CS      0.230000
     51 H19        -2.5310    1.1710   -4.9810 ha        1 2CS      0.145000
     52 H20        -1.8500    2.5160   -7.0040 ha        1 2CS      0.136000
     53 H22         0.0830    1.0530   -8.0740 h1        1 2CS      0.159000
     54 H32         2.4870    0.3490  -14.7620 ha        1 2CS      0.119000
     55 H33         1.1830    0.6390  -12.4380 hc        1 2CS      0.103000
     56 H34         2.5380    1.8320  -12.5440 hc        1 2CS      0.103000
     57 H28         1.7210    1.6080  -10.1490 ha        1 2CS      0.176000
     58 H251        4.5670   -1.6700  -10.1710 h4        1 2CS      0.151000
     59 H252        1.3590    4.2370   -8.8070 ha        1 2CS      0.036000
     60 H411        5.6950   -1.6850   -4.6830 hc        1 2CS      0.085222
     61 H412        5.7880   -2.1550   -6.4320 hc        1 2CS      0.085222
     62 H413        4.7880   -3.1410   -5.2820 hc        1 2CS      0.085222
     63 H391        2.6810   -2.8770   -6.5380 hc        1 2CS      0.085222
     64 H392        3.6000   -2.0160   -7.8430 hc        1 2CS      0.085222
     65 H393        2.1440   -1.2300   -7.0960 hc        1 2CS      0.085222
     66 H401        4.9620    0.0400   -7.2660 hc        1 2CS      0.085222
     67 H402        3.4820    0.7940   -6.5170 hc        1 2CS      0.085222
     68 H403        5.0170    0.6190   -5.5490 hc        1 2CS      0.085222
     69 H61         3.2520   -2.3960   -0.9830 hc        1 2CS      0.067000
     70 H62         3.2020   -0.7730   -1.7990 hc        1 2CS      0.067000
     71 H63         3.1660   -0.8910    0.0210 hc        1 2CS      0.067000
     72 C10        -1.7690   -0.6780   -2.9240 c1        1 2CS     -0.044000
     73 O24         0.6830    2.9960   -7.4530 os        1 2CS     -0.132000
     74 H27         3.2250    0.0020   -8.8920 ha        1 2CS      0.164000
     75 H31         3.7180   -1.0460  -14.7070 ha        1 2CS      0.119000
@<TRIPOS>BOND
     1    1    2 1   
     2    1   40 1   
     3    1   41 1   
     4    1   42 1   
     5    2    3 1   
     6    2    6 1   
     7    2   37 1   
     8    3    4 1   
     9    3    5 1   
    10    6    7 1   
    11    6   43 1   
    12    6   44 1   
    13    7   31 1   
    14    7   38 1   
    15    8   11 1   
    16    8   72 1   
    17    9   10 1   
    18    9   47 1   
    19    9   48 1   
    20    9   49 1   
    21   10   13 1   
    22   11   12 1   
    23   12   50 1   
    24   13   39 1   
    25   14   15 1   
    26   14   30 1   
    27   14   51 1   
    28   15   29 1   
    29   15   52 1   
    30   16   17 1   
    31   16   30 1   
    32   16   31 1   
    33   17   29 1   
    34   18   24 1   
    35   18   27 1   
    36   18   74 1   
    37   19   20 1   
    38   19   25 1   
    39   19   26 1   
    40   20   54 1   
    41   20   75 1   
    42   21   22 1   
    43   22   23 1   
    44   24   25 1   
    45   24   57 1   
    46   25   55 1   
    47   25   56 1   
    48   26   27 1   
    49   27   58 1   
    50   28   59 1   
    51   28   73 1   
    52   29   53 1   
    53   29   73 1   
    54   30   38 1   
    55   31   32 1   
    56   32   33 1   
    57   33   34 1   
    58   33   35 1   
    59   33   36 1   
    60   34   60 1   
    61   34   61 1   
    62   34   62 1   
    63   35   63 1   
    64   35   64 1   
    65   35   65 1   
    66   36   66 1   
    67   36   67 1   
    68   36   68 1   
    69   37   69 1   
    70   37   70 1   
    71   37   71 1   
    72   38   72 1   
    73   45   46 1   
@<TRIPOS>SUBSTRUCTURE
     1 2CS         1 TEMP              0 ****  ****    0 ROOT
