@<TRIPOS>MOLECULE
2CS
   75    66     1     0     0
SMALL
bcc


@<TRIPOS>ATOM
      1 C1         -1.4310   -4.6370   -1.4060 c3        1 2CS     -0.183500
      2 C2          0.0250   -4.4240   -0.9640 c3        1 2CS     -0.147000
      3 C3          0.0760   -4.2500    0.5530 c2        1 2CS      0.335000
      4 O4          1.0500   -4.7110    1.2090 o         1 2CS     -0.570000
      5 O5         -0.8640   -3.6540    1.1520 o         1 2CS     -0.570000
      6 C7          0.5880   -3.1650   -1.6440 c3        1 2CS     -0.021000
      7 C8          1.4960   -2.3620   -0.6110 c2        1 2CS      0.106000
      8 C10         1.7250   -2.6980   -1.5580 c3        1 2CS     -0.121000
      9 C11         2.2760   -2.1050   -2.8550 c2        1 2CS     -0.061000
     10 C12         3.5650   -2.4210   -3.2710 c2        1 2CS     -0.109000
     11 C13         4.0990   -1.8120   -4.3970 c1        1 2CS     -0.137000
     12 C14         1.5240   -1.1800   -3.5680 c1        1 2CS     -0.120000
     13 C15         2.0590   -0.5720   -4.6950 c1        1 2CS     -0.141000
     14 C16         3.3470   -0.8880   -5.1100 c1        1 2CS     -0.068000
     15 C19        -1.5990   -0.5560   -0.9510 c1        1 2CS     -0.107500
     16 C20        -2.1130    0.4050   -0.0940 c1        1 2CS     -0.157000
     17 C21         0.4550   -0.5950    0.2890 c1        1 2CS     -0.021500
     18 C22        -0.0650    0.3790    1.1580 c1        1 2CS     -0.107500
     19 C27        -2.5570    5.0720    1.0520 c1        1 2CS     -0.150000
     20 C30        -5.0050    5.1210    2.3270 c1        1 2CS      0.006000
     21 C31        -6.2570    5.1490    2.9760 c1        1 2CS     -0.119500
     22 C32        -7.0830    6.2610    2.8480 c1        1 2CS     -0.119500
     23 C33        -6.6730    7.3510    2.0750 c1        1 2CS     -0.119500
     24 C34        -5.4370    7.3240    1.4340 c1        1 2CS     -0.119500
     25 C28        -3.3690    6.1680    0.9250 c1        1 2CS     -0.096000
     26 C29        -4.6000    6.1970    1.5640 c1        1 2CS     -0.084000
     27 N35        -4.1830    4.0130    2.4550 n1        1 2CS     -0.143000
     28 C26        -2.9680    3.9860    1.8240 c1        1 2CS      0.008000
     29 C25        -2.6890    2.5080    2.0070 c3        1 2CS      0.018000
     30 O24        -1.4370    2.1910    1.4360 os        1 2CS     -0.239000
     31 C23        -1.3470    0.8730    0.9590 c1        1 2CS      0.004000
     32 C18        -0.3000   -1.0560   -0.7490 c1        1 2CS     -0.021500
     33 C36         1.5720   -1.3950    0.3880 c1        1 2CS     -0.401000
     34 S37         2.3230    0.0780    1.0980 s         1 2CS      0.185000
     35 C38         3.8850   -0.3620    1.8890 c3        1 2CS     -0.167000
     36 C41         3.7260   -1.6900    2.6320 c3        1 2CS     -0.201000
     37 C39         4.9770   -0.5010    0.8220 c3        1 2CS     -0.201000
     38 C40         4.2800    0.7400    2.8880 c3        1 2CS     -0.201000
     39 C6          0.8700   -5.6460   -1.3690 c3        1 2CS     -0.183500
     40 N9          0.3560   -2.1580   -1.3050 n2        1 2CS     -0.114000
     41 CL17        4.1040   -0.2460   -6.5440 cl        1 2CS     -0.059000
     42 H11        -1.6790   -5.5820   -1.2750 hc        1 2CS      0.066167
     43 H12A       -2.0250   -4.0650   -0.8680 hc        1 2CS      0.066167
     44 H13A       -1.5230   -4.4020   -2.3600 hc        1 2CS      0.066167
     45 H71         1.1350   -3.4300   -2.4290 hc        1 2CS      0.105500
     46 H72        -0.1630   -2.5870   -1.9450 hc        1 2CS      0.105500
     47 H101        2.3210   -2.4540   -0.8040 h1        1 2CS      0.150500
     48 H102        1.6820   -3.6800   -1.6380 h1        1 2CS      0.150500
     49 H12         4.0960   -3.0740   -2.7680 ha        1 2CS      0.209000
     50 H13         5.0090   -2.0350   -4.6910 ha        1 2CS      0.140000
     51 H14         0.6170   -0.9570   -3.2770 ha        1 2CS      0.152000
     52 H15         1.5300    0.0790   -5.1960 ha        1 2CS      0.133000
     53 H19        -2.1280   -0.8700   -1.7030 ha        1 2CS      0.143500
     54 H20        -3.0120    0.7510   -0.2340 ha        1 2CS      0.131000
     55 H22         0.4610    0.6870    1.9110 ha        1 2CS      0.143500
     56 H27        -1.6870    5.0510    0.6000 ha        1 2CS      0.171000
     57 H31        -6.5260    4.4020    3.5530 ha        1 2CS      0.133750
     58 H32        -7.9520    6.2790    3.2990 ha        1 2CS      0.133750
     59 H33        -7.2360    8.1490    2.0190 ha        1 2CS      0.133750
     60 H34        -5.1310    8.1070    0.9270 ha        1 2CS      0.133750
     61 H28        -3.0780    6.9350    0.3800 ha        1 2CS      0.135000
     62 H251       -3.3950    1.9820    1.5630 h1        1 2CS      0.100000
     63 H252       -2.6750    2.2930    2.9670 h1        1 2CS      0.100000
     64 H411        4.4940   -1.8240    3.2310 hc        1 2CS      0.079667
     65 H412        2.8990   -1.6730    3.1590 hc        1 2CS      0.079667
     66 H413        3.6860   -2.4250    1.9830 hc        1 2CS      0.079667
     67 H391        4.9780    0.2950    0.2520 hc        1 2CS      0.079667
     68 H392        4.8000   -1.2940    0.2750 hc        1 2CS      0.079667
     69 H393        5.8550   -0.5930    1.2600 hc        1 2CS      0.079667
     70 H401        5.1900    0.5660    3.2270 hc        1 2CS      0.079667
     71 H402        3.6460    0.7430    3.6400 hc        1 2CS      0.079667
     72 H403        4.2590    1.6150    2.4370 hc        1 2CS      0.079667
     73 H61         0.3890   -6.4700   -1.1310 hc        1 2CS      0.066167
     74 H62         1.7310   -5.6210   -0.8950 hc        1 2CS      0.066167
     75 H63         1.0290   -5.6270   -2.3410 hc        1 2CS      0.066167
@<TRIPOS>BOND
     1    1    2 1   
     2    1   42 1   
     3    1   43 1   
     4    1   44 1   
     5    2    3 1   
     6    2    6 1   
     7    2   39 1   
     8    3    4 1   
     9    3    5 1   
    10    6    7 1   
    11    6   45 1   
    12    6   46 1   
    13    7   33 1   
    14    7   40 1   
    15    8    9 1   
    16    8   40 1   
    17    8   47 1   
    18    8   48 1   
    19    9   10 1   
    20    9   12 1   
    21   10   11 1   
    22   10   49 1   
    23   11   50 1   
    24   12   51 1   
    25   13   14 1   
    26   13   52 1   
    27   14   41 1   
    28   15   32 1   
    29   15   53 1   
    30   16   31 1   
    31   16   54 1   
    32   17   18 1   
    33   18   55 1   
    34   19   28 1   
    35   19   56 1   
    36   20   26 1   
    37   20   27 1   
    38   21   22 1   
    39   21   57 1   
    40   22   58 1   
    41   23   24 1   
    42   23   59 1   
    43   24   60 1   
    44   25   26 1   
    45   25   61 1   
    46   28   29 1   
    47   29   30 1   
    48   29   62 1   
    49   29   63 1   
    50   30   31 1   
    51   34   35 1   
    52   35   36 1   
    53   35   37 1   
    54   35   38 1   
    55   36   64 1   
    56   36   65 1   
    57   36   66 1   
    58   37   67 1   
    59   37   68 1   
    60   37   69 1   
    61   38   70 1   
    62   38   71 1   
    63   38   72 1   
    64   39   73 1   
    65   39   74 1   
    66   39   75 1   
@<TRIPOS>SUBSTRUCTURE
     1 2CS         1 TEMP              0 ****  ****    0 ROOT
