@<TRIPOS>MOLECULE
2CT
   42    43     1     0     0
SMALL
bcc


@<TRIPOS>ATOM
      1 CAA         0.6780   -1.2490   -0.9090 c3        1 2CT      0.121700
      2 CAB         3.9090    0.6680    5.1240 c3        1 2CT      0.105700
      3 OAC         6.7830    1.8620    4.1460 o         1 2CT     -0.660500
      4 OAD         7.0000    2.7480    0.7650 o         1 2CT     -0.834500
      5 OAE         8.9550    4.4590    0.9990 o         1 2CT     -0.834500
      6 OAF         8.2620    2.9000    2.8780 os        1 2CT     -0.564500
      7 CAG        11.4400    0.2130   -0.3000 ca        1 2CT     -0.101000
      8 CAH        11.3260    1.5310   -0.7490 ca        1 2CT     -0.173000
      9 CAI        10.6050   -0.2450    0.7080 ca        1 2CT     -0.176000
     10 CAJ         1.2490   -0.4090    1.6870 ca        1 2CT     -0.288000
     11 CAK        10.3600    2.3600   -0.1930 ca        1 2CT     -0.064000
     12 CAL         1.6090    0.0260    2.9600 ca        1 2CT     -0.066000
     13 CAM         3.0630    0.9330    0.7400 ca        1 2CT     -0.250000
     14 CAN         8.7080    0.5660    3.4760 c3        1 2CT      0.039400
     15 NAO         4.4220    2.3300    2.1850 nh        1 2CT     -0.825200
     16 OAP         1.7250   -0.3090   -0.7230 os        1 2CT     -0.333900
     17 OAQ         2.9100    1.4020    4.4190 os        1 2CT     -0.342900
     18 OAR         8.8360   -0.0550    2.2030 os        1 2CT     -0.333900
     19 CAS         7.8230    1.8050    3.4770 c         1 2CT      0.779600
     20 CAT         1.9880    0.0550    0.5920 ca        1 2CT      0.157100
     21 CAU         3.4320    1.4010    2.0300 ca        1 2CT      0.234600
     22 CAV         2.6680    0.9100    3.1390 ca        1 2CT     -0.048900
     23 CAW         9.6250    0.6110    1.2630 ca        1 2CT      0.184100
     24 CAX         9.4780    1.9220    0.8070 ca        1 2CT     -0.357500
     25 PAY         8.3590    3.1290    1.1930 p5        1 2CT      1.430900
     26 HAA        -0.2980   -0.8290   -0.5640 h1        1 2CT      0.032033
     27 HAAA        0.6650   -1.4150   -2.0160 h1        1 2CT      0.032033
     28 HAAB        0.8990   -2.2040   -0.3720 h1        1 2CT      0.032033
     29 HAB         3.5710   -0.3850    5.2850 h1        1 2CT      0.036700
     30 HABA        4.8810    0.6850    4.5740 h1        1 2CT      0.036700
     31 HABB        4.0010    1.2060    6.1000 h1        1 2CT      0.036700
     32 HAG        12.1930   -0.4570   -0.7380 ha        1 2CT      0.115000
     33 HAH        11.9970    1.9070   -1.5330 ha        1 2CT      0.121000
     34 HAI        10.6800   -1.2770    1.0780 ha        1 2CT      0.132000
     35 HAJ         0.4080   -1.0990    1.5630 ha        1 2CT      0.119000
     36 HAK        10.2760    3.4140   -0.5240 ha        1 2CT      0.172000
     37 HAL         1.0500   -0.3220    3.8410 ha        1 2CT      0.122000
     38 HAM         3.6240    1.2600   -0.1480 ha        1 2CT      0.160000
     39 HAN         9.7160    0.8410    3.8840 h1        1 2CT      0.069200
     40 HANA        8.2290   -0.2340    4.1030 h1        1 2CT      0.069200
     41 HNAO        5.0520    2.4870    1.4200 hn        1 2CT      0.459300
     42 HAO2        4.8000    2.4530    3.0980 hn        1 2CT      0.459300
@<TRIPOS>BOND
     1    1   16 1   
     2    1   26 1   
     3    1   27 1   
     4    1   28 1   
     5    2   17 1   
     6    2   29 1   
     7    2   30 1   
     8    2   31 1   
     9    3   19 2   
    10    4   25 1   
    11    5   25 1   
    12    6   19 1   
    13    6   25 1   
    14    7    8 ar  
    15    7    9 ar  
    16    7   32 1   
    17    8   11 ar  
    18    8   33 1   
    19    9   23 ar  
    20    9   34 1   
    21   10   12 ar  
    22   10   20 ar  
    23   10   35 1   
    24   11   24 ar  
    25   11   36 1   
    26   12   22 ar  
    27   12   37 1   
    28   13   20 ar  
    29   13   21 ar  
    30   13   38 1   
    31   14   18 1   
    32   14   19 1   
    33   14   39 1   
    34   14   40 1   
    35   15   21 1   
    36   15   41 1   
    37   15   42 1   
    38   16   20 1   
    39   17   22 1   
    40   18   23 1   
    41   21   22 ar  
    42   23   24 ar  
    43   24   25 1   
@<TRIPOS>SUBSTRUCTURE
     1 2CT         1 TEMP              0 ****  ****    0 ROOT
