@<TRIPOS>MOLECULE
2CT
   41    42     1     0     0
SMALL
bcc


@<TRIPOS>ATOM
      1 CAA         0.4190   -2.3720    0.6410 c3        1 2CT      0.125700
      2 CAB         3.4150    2.3570    4.9450 c3        1 2CT      0.111700
      3 OAC         5.6840    0.5790    0.2560 o         1 2CT     -0.769300
      4 OAD        12.0600    4.2300    1.1010 o         1 2CT     -0.879000
      5 OAE         9.6230    4.7080    1.5220 oh        1 2CT     -0.794400
      6 OAF        10.4780    4.8930   -0.8160 o         1 2CT     -0.879000
      7 CAG        10.1030   -0.2840   -0.1380 ca        1 2CT     -0.125000
      8 CAH        11.3420    0.3580   -0.2190 ca        1 2CT     -0.214000
      9 CAI         8.9660    0.4510    0.1490 ca        1 2CT     -0.189000
     10 CAJ         1.4320   -1.0660    2.8770 ca        1 2CT     -0.305000
     11 CAK        11.4060    1.7290   -0.0130 ca        1 2CT     -0.076000
     12 CAL         1.9660   -0.3290    3.9290 ca        1 2CT     -0.068000
     13 CAM         3.3860   -0.4850    1.5100 ca        1 2CT     -0.221000
     14 CAN         7.0570    2.0250    1.5950 c2        1 2CT     -0.399900
     15 NAO         5.1620    0.8950    2.5030 n         1 2CT     -0.455100
     16 OAP         1.7290   -1.8400    0.5640 os        1 2CT     -0.330900
     17 OAQ         3.7130    0.9640    4.9170 os        1 2CT     -0.346900
     18 OAR         7.8300    2.5230    0.5590 os        1 2CT     -0.225200
     19 CAS         6.0010    1.1500    1.3380 c2        1 2CT      0.652300
     20 CAT         2.1610   -1.1250    1.6780 ca        1 2CT      0.140100
     21 CAU         3.9580    0.2640    2.5780 ca        1 2CT      0.174600
     22 CAV         3.1890    0.3190    3.7950 ca        1 2CT     -0.087900
     23 CAW         9.0430    1.8490    0.3530 ca        1 2CT      0.196100
     24 CAX        10.2760    2.5110    0.2720 ca        1 2CT     -0.335500
     25 PAY        10.7290    4.1490    0.4440 p5        1 2CT      1.392900
     26 HAA         0.2500   -2.8180   -0.3720 h1        1 2CT      0.024700
     27 HAAA        0.3560   -3.1630    1.4280 h1        1 2CT      0.024700
     28 HAAB       -0.3320   -1.5700    0.8440 h1        1 2CT      0.024700
     29 HAB         3.7620    2.8640    4.0130 h1        1 2CT      0.028367
     30 HABA        3.9750    2.7400    5.8340 h1        1 2CT      0.028367
     31 HABB        2.3160    2.5130    5.0770 h1        1 2CT      0.028367
     32 HAG        10.0320   -1.3690   -0.3030 ha        1 2CT      0.089000
     33 HAH        12.2500   -0.2170   -0.4380 ha        1 2CT      0.090000
     34 HAI         7.9750   -0.0280    0.2150 ha        1 2CT      0.159000
     35 HAJ         0.4740   -1.5800    2.9970 ha        1 2CT      0.109000
     36 HAK        12.3850    2.2440   -0.0390 ha        1 2CT      0.146000
     37 HAL         1.4250   -0.2550    4.8830 ha        1 2CT      0.110000
     38 HAM         3.9210   -0.5530    0.5460 ha        1 2CT      0.206000
     39 HAN         8.7280    4.5180    1.2650 ho        1 2CT      0.429000
     40 HANA        7.3280    2.4290    2.5710 h4        1 2CT      0.113000
     41 HNAO        5.4580    1.3420    3.3450 hn        1 2CT      0.299500
@<TRIPOS>BOND
     1    1   16 1   
     2    1   26 1   
     3    1   27 1   
     4    1   28 1   
     5    2   17 1   
     6    2   29 1   
     7    2   30 1   
     8    2   31 1   
     9    3   19 1   
    10    4   25 1   
    11    5   25 1   
    12    5   39 1   
    13    6   25 1   
    14    7    8 ar  
    15    7    9 ar  
    16    7   32 1   
    17    8   11 ar  
    18    8   33 1   
    19    9   23 ar  
    20    9   34 1   
    21   10   12 ar  
    22   10   20 ar  
    23   10   35 1   
    24   11   24 ar  
    25   11   36 1   
    26   12   22 ar  
    27   12   37 1   
    28   13   20 ar  
    29   13   21 ar  
    30   13   38 1   
    31   14   18 1   
    32   14   19 2   
    33   14   40 1   
    34   15   19 1   
    35   15   21 1   
    36   15   41 1   
    37   16   20 1   
    38   17   22 1   
    39   18   23 1   
    40   21   22 ar  
    41   23   24 ar  
    42   24   25 1   
@<TRIPOS>SUBSTRUCTURE
     1 2CT         1 TEMP              0 ****  ****    0 ROOT
