@<TRIPOS>MOLECULE
2CT
   41    42     1     0     0
SMALL
bcc


@<TRIPOS>ATOM
      1 CAA        -0.5440   -0.4910    0.9580 c3        1 2CT      0.125700
      2 CAB         5.3020    1.9390    4.1900 c3        1 2CT      0.108700
      3 OAC         5.1790   -0.3990   -0.8840 o         1 2CT     -0.679100
      4 OAD         8.8420    4.4350    2.2770 o         1 2CT     -0.926167
      5 OAE         7.0040    2.6680    2.2340 o         1 2CT     -0.926167
      6 OAF         7.8440    3.6040    0.0600 o         1 2CT     -0.926167
      7 CAG        11.6810    0.3020    1.3760 ca        1 2CT     -0.161000
      8 CAH        11.7660    1.6190    1.8250 ca        1 2CT     -0.199000
      9 CAI        10.4640   -0.1910    0.9200 ca        1 2CT     -0.199000
     10 CAJ         1.5230   -0.1730    2.8150 ca        1 2CT     -0.259000
     11 CAK        10.6270    2.4240    1.8180 ca        1 2CT     -0.105000
     12 CAL         2.5870    0.1730    3.6470 ca        1 2CT     -0.116000
     13 CAM         3.0370   -0.0650    0.8960 ca        1 2CT     -0.207000
     14 CAN         7.3010    0.6090   -0.3700 c3        1 2CT      0.025400
     15 NAO         5.4050    0.5320    1.2380 ns        1 2CT     -0.446100
     16 OAP         0.7940   -0.6680    0.5250 os        1 2CT     -0.337900
     17 OAQ         4.8920    0.5740    4.0410 os        1 2CT     -0.361900
     18 OAR         8.1810   -0.0600    0.5290 os        1 2CT     -0.360900
     19 CAS         5.8680    0.2010   -0.0260 c         1 2CT      0.673100
     20 CAT         1.7700   -0.2910    1.4470 ca        1 2CT      0.110100
     21 CAU         4.1290    0.2840    1.7240 ca        1 2CT      0.133600
     22 CAV         3.8640    0.3830    3.1320 ca        1 2CT      0.041100
     23 CAW         9.3220    0.6400    0.9250 ca        1 2CT      0.163100
     24 CAX         9.3870    1.9650    1.3730 ca        1 2CT     -0.192500
     25 PAY         8.1550    3.3420    1.5120 p5        1 2CT      1.258000
     26 HAA        -1.1520   -0.6370    0.0290 h1        1 2CT      0.023367
     27 HAAA       -0.7070    0.5310    1.3770 h1        1 2CT      0.023367
     28 HAAB       -0.8140   -1.2640    1.7200 h1        1 2CT      0.023367
     29 HAB         6.4150    1.8940    4.3160 h1        1 2CT      0.059367
     30 HABA        5.0830    2.5600    3.2880 h1        1 2CT      0.059367
     31 HABB        4.7870    2.3440    5.0980 h1        1 2CT      0.059367
     32 HAG        12.5680   -0.3460    1.3790 ha        1 2CT      0.077000
     33 HAH        12.7250    2.0160    2.1830 ha        1 2CT      0.084000
     34 HAI        10.3740   -1.2260    0.5680 ha        1 2CT      0.101000
     35 HAJ         0.5270   -0.3460    3.2390 ha        1 2CT      0.108000
     36 HAK        10.6770    3.4700    2.1860 ha        1 2CT      0.183000
     37 HAL         2.4310    0.2680    4.7310 ha        1 2CT      0.120000
     38 HAM         3.1680   -0.1710   -0.1940 ha        1 2CT      0.182000
     39 HAN         7.5280    0.2310   -1.4020 h1        1 2CT      0.111200
     40 HANA        7.4100    1.7480   -0.3160 h1        1 2CT      0.111200
     41 HNAO        6.0330    1.1240    1.8180 hn        1 2CT      0.435500
@<TRIPOS>BOND
     1    1   16 1   
     2    1   26 1   
     3    1   27 1   
     4    1   28 1   
     5    2   17 1   
     6    2   29 1   
     7    2   30 1   
     8    2   31 1   
     9    3   19 2   
    10    4   25 1   
    11    5   25 1   
    12    6   25 1   
    13    7    8 ar  
    14    7    9 ar  
    15    7   32 1   
    16    8   11 ar  
    17    8   33 1   
    18    9   23 ar  
    19    9   34 1   
    20   10   12 ar  
    21   10   20 ar  
    22   10   35 1   
    23   11   24 ar  
    24   11   36 1   
    25   12   22 ar  
    26   12   37 1   
    27   13   20 ar  
    28   13   21 ar  
    29   13   38 1   
    30   14   18 1   
    31   14   19 1   
    32   14   39 1   
    33   14   40 1   
    34   15   19 1   
    35   15   21 1   
    36   15   41 1   
    37   16   20 1   
    38   17   22 1   
    39   18   23 1   
    40   21   22 ar  
    41   23   24 ar  
    42   24   25 1   
@<TRIPOS>SUBSTRUCTURE
     1 2CT         1 TEMP              0 ****  ****    0 ROOT
