@<TRIPOS>MOLECULE
2CT
   41    42     1     0     0
SMALL
bcc


@<TRIPOS>ATOM
      1 CAA         4.4700   -2.4090   -2.5030 c3        1 2CT      0.116700
      2 CAB         4.0420    2.4200    2.6570 c3        1 2CT      0.111700
      3 OAC         0.9470   -0.8030   -0.6030 o         1 2CT     -0.778300
      4 OAD        -5.6900    1.3340    1.8650 o         1 2CT     -0.879000
      5 OAE        -3.4530    0.8190    2.9010 oh        1 2CT     -0.793400
      6 OAF        -4.8830   -1.0900    2.1680 o         1 2CT     -0.879000
      7 CAG        -2.9600    0.6910   -2.3620 ca        1 2CT     -0.123000
      8 CAH        -4.3050    0.8560   -2.0190 ca        1 2CT     -0.216000
      9 CAI        -2.0300    0.4080   -1.3760 ca        1 2CT     -0.192000
     10 CAJ         6.0710    0.3340   -0.7220 ca        1 2CT     -0.261000
     11 CAK        -4.6830    0.7260   -0.6890 ca        1 2CT     -0.074000
     12 CAL         5.7240    1.3780    0.1240 ca        1 2CT     -0.070000
     13 CAM         3.7090   -0.3140   -0.8540 ca        1 2CT     -0.271000
     14 CAN        -0.2760    0.6760    0.8380 c2        1 2CT     -0.397900
     15 NAO         2.0390    1.0130    0.3680 n         1 2CT     -0.458100
     16 OAP         5.4780   -1.5260   -2.0290 os        1 2CT     -0.356900
     17 OAQ         4.1030    2.7130    1.2640 os        1 2CT     -0.346900
     18 OAR        -1.4340   -0.0830    0.8980 os        1 2CT     -0.222200
     19 CAS         0.8440    0.2070    0.1520 c2        1 2CT      0.653300
     20 CAT         5.0410   -0.5030   -1.1950 ca        1 2CT      0.147100
     21 CAU         3.3280    0.7570    0.0060 ca        1 2CT      0.179600
     22 CAV         4.3960    1.5930    0.4840 ca        1 2CT     -0.093900
     23 CAW        -2.4270    0.2740   -0.0240 ca        1 2CT      0.199100
     24 CAX        -3.7730    0.4310    0.3380 ca        1 2CT     -0.336500
     25 PAY        -4.5970    0.3270    1.8300 p5        1 2CT      1.392900
     26 HAA         5.0360   -3.1480   -3.1240 h1        1 2CT      0.039033
     27 HAAA        3.9560   -2.9200   -1.6520 h1        1 2CT      0.039033
     28 HAAB        3.7240   -1.8580   -3.1280 h1        1 2CT      0.039033
     29 HAB         5.0510    2.1170    3.0310 h1        1 2CT      0.027367
     30 HABA        3.7200    3.3810    3.1270 h1        1 2CT      0.027367
     31 HABB        3.3010    1.6110    2.8660 h1        1 2CT      0.027367
     32 HAG        -2.6430    0.7830   -3.4100 ha        1 2CT      0.088000
     33 HAH        -5.0490    1.0890   -2.7910 ha        1 2CT      0.090000
     34 HAI        -0.9650    0.2650   -1.6200 ha        1 2CT      0.156000
     35 HAJ         7.1080    0.1540   -1.0200 ha        1 2CT      0.119000
     36 HAK        -5.7380    0.8880   -0.4000 ha        1 2CT      0.146000
     37 HAL         6.4980    2.0530    0.5180 ha        1 2CT      0.111000
     38 HAM         2.9140   -0.9820   -1.2310 ha        1 2CT      0.199000
     39 HAN        -0.3310    1.5970    1.4180 h4        1 2CT      0.112000
     40 HANA       -2.6420    0.3300    2.8230 ho        1 2CT      0.429000
     41 HNAO        1.9130    1.8200    0.9410 hn        1 2CT      0.299500
@<TRIPOS>BOND
     1    1   16 1   
     2    1   26 1   
     3    1   27 1   
     4    1   28 1   
     5    2   17 1   
     6    2   29 1   
     7    2   30 1   
     8    2   31 1   
     9    3   19 1   
    10    4   25 1   
    11    5   25 1   
    12    5   40 1   
    13    6   25 1   
    14    7    8 ar  
    15    7    9 ar  
    16    7   32 1   
    17    8   11 ar  
    18    8   33 1   
    19    9   23 ar  
    20    9   34 1   
    21   10   12 ar  
    22   10   20 ar  
    23   10   35 1   
    24   11   24 ar  
    25   11   36 1   
    26   12   22 ar  
    27   12   37 1   
    28   13   20 ar  
    29   13   21 ar  
    30   13   38 1   
    31   14   18 1   
    32   14   19 2   
    33   14   39 1   
    34   15   19 1   
    35   15   21 1   
    36   15   41 1   
    37   16   20 1   
    38   17   22 1   
    39   18   23 1   
    40   21   22 ar  
    41   23   24 ar  
    42   24   25 1   
@<TRIPOS>SUBSTRUCTURE
     1 2CT         1 TEMP              0 ****  ****    0 ROOT
