@<TRIPOS>MOLECULE
2CT
   41    37     1     0     0
SMALL
bcc


@<TRIPOS>ATOM
      1 CAA        -5.0320    2.7830    0.3410 c3        1 2CT     -0.073000
      2 CAB        -3.2920   -2.7880   -2.4710 c3        1 2CT     -0.078000
      3 OAC        -0.2340    1.0000    0.5850 o         1 2CT     -0.518000
      4 OAD         2.9220    1.5760    2.8410 o         1 2CT     -0.754833
      5 OAE         3.8570   -0.6980    3.3300 o         1 2CT     -0.754833
      6 OAF         5.2800    1.3550    3.6210 o         1 2CT     -0.754833
      7 CAG         5.5490    0.5470   -1.5730 c1        1 2CT     -0.151250
      8 CAH         6.4940    0.5500   -0.5420 c1        1 2CT     -0.151250
      9 CAI         4.1860    0.5590   -1.2700 c1        1 2CT     -0.151250
     10 CAJ        -5.0190   -0.2840    0.3370 c1        1 2CT     -0.262000
     11 CAK         6.0720    0.5650    0.7940 c1        1 2CT     -0.151250
     12 CAL        -4.6090   -1.5270   -0.1600 c1        1 2CT     -0.070000
     13 CAM        -2.7080    0.4240    0.4830 c1        1 2CT     -0.272000
     14 CAN         1.5990   -0.4300    0.1290 c3        1 2CT     -0.440000
     15 NAO        -0.8730   -1.1270   -0.0900 n         1 2CT     -0.312000
     16 OAP        -4.4680    1.9070    1.2310 os        1 2CT     -0.240000
     17 OAQ        -3.0320   -2.9490   -1.0920 os        1 2CT     -0.229000
     18 OAR         2.3610    0.7260    0.3760 os        1 2CT     -0.138000
     19 CAS         0.1220   -0.1070    0.2420 c2        1 2CT      0.321000
     20 CAT        -4.0650    0.6920    0.6580 c1        1 2CT      0.102000
     21 CAU        -2.2970   -0.8120   -0.0120 c2        1 2CT      0.188000
     22 CAV        -3.2510   -1.7920   -0.3360 c2        1 2CT     -0.139000
     23 CAW         3.7680    0.5730    0.0610 c1        1 2CT      0.152000
     24 CAX         4.7140    0.5770    1.0940 c1        1 2CT     -0.723000
     25 PAY         4.1760    0.7110    2.7790 p5        1 2CT      1.696500
     26 HAA        -5.8640    2.3920   -0.0260 h1        1 2CT      0.078000
     27 HAAA       -5.2430    3.6350    0.8060 h1        1 2CT      0.078000
     28 HAAB       -4.3750    2.9640   -0.4200 h1        1 2CT      0.078000
     29 HAB        -2.5300   -3.1980   -3.0120 h1        1 2CT      0.066667
     30 HABA       -3.3700   -1.8130   -2.6840 h1        1 2CT      0.066667
     31 HABB       -4.1280   -3.2370   -2.6970 h1        1 2CT      0.066667
     32 HAG         5.8490    0.5380   -2.5270 ha        1 2CT      0.120750
     33 HAH         7.4260    0.6030   -0.7490 ha        1 2CT      0.120750
     34 HAI         3.5330    0.5560   -1.9800 ha        1 2CT      0.120750
     35 HAJ        -5.9700   -0.0980    0.4610 ha        1 2CT      0.119000
     36 HAK         6.7550    0.5690    1.5400 ha        1 2CT      0.120750
     37 HAL        -5.2780   -2.2120   -0.3860 ha        1 2CT      0.111000
     38 HAM        -2.0490    1.1040    0.6980 ha        1 2CT      0.199000
     39 HAN         1.8360   -1.1350    0.7950 h1        1 2CT      0.171500
     40 HANA        1.7870   -0.7480   -0.7490 h1        1 2CT      0.171500
     41 HNAO       -0.5970   -1.9510   -0.4250 hn        1 2CT      0.215000
@<TRIPOS>BOND
     1    1   16 1   
     2    1   26 1   
     3    1   27 1   
     4    1   28 1   
     5    2   17 1   
     6    2   29 1   
     7    2   30 1   
     8    2   31 1   
     9    3   19 1   
    10    4   25 1   
    11    5   25 1   
    12    6   25 1   
    13    7    9 1   
    14    7   32 1   
    15    8   11 1   
    16    8   33 1   
    17    9   34 1   
    18   10   20 1   
    19   10   35 1   
    20   11   36 1   
    21   12   22 1   
    22   12   37 1   
    23   13   21 1   
    24   13   38 1   
    25   14   18 1   
    26   14   19 1   
    27   14   39 1   
    28   14   40 1   
    29   15   19 1   
    30   15   21 1   
    31   15   41 1   
    32   16   20 1   
    33   17   22 1   
    34   18   23 1   
    35   21   22 1   
    36   23   24 1   
    37   24   25 1   
@<TRIPOS>SUBSTRUCTURE
     1 2CT         1 TEMP              0 ****  ****    0 ROOT
