@<TRIPOS>MOLECULE
2CU
   53    52     1     0     0
SMALL
bcc


@<TRIPOS>ATOM
      1 C15         0.2120    0.3360   -0.9150 c2        1 2CU      0.069000
      2 C16        -0.6850    1.1380   -1.7800 c3        1 2CU     -0.208000
      3 C18        -1.3670    0.2720    1.1710 c2        1 2CU      0.199000
      4 C20        -1.2680   -0.2510    2.4690 c2        1 2CU     -0.558000
      5 C24        -2.3220   -0.1720    3.4780 c2        1 2CU      0.402000
      6 C22         0.7830   -0.7430    1.2060 c2        1 2CU     -0.165000
      7 C10         4.1910   -2.3900    1.5790 c1        1 2CU      0.018000
      8 N02         6.0280    0.5080    5.0880 n3        1 2CU     -0.345000
      9 C03         6.9430    2.7170    5.6230 c2        1 2CU     -0.159000
     10 C04         7.0900   -1.4350    3.2120 c2        1 2CU      0.009000
     11 N05         5.9930   -2.0850    3.1720 n2        1 2CU     -0.264000
     12 C06         4.8820    2.0050    6.7580 c3        1 2CU     -0.246000
     13 C07         6.1890    1.5150    6.1260 c3        1 2CU     -0.011000
     14 C08         4.7880   -1.5680    2.6110 c2        1 2CU      0.197000
     15 O09         4.2950   -0.4770    2.9700 o         1 2CU     -0.342000
     16 O11         3.5150   -1.2520   -1.0090 oh        1 2CU     -0.245000
     17 C12         2.3130   -0.8450   -0.5100 c2        1 2CU      0.203000
     18 C13         1.4540   -0.0950   -1.3860 c2        1 2CU     -0.165000
     19 CL1         1.9770    0.2480   -2.9620 cl        1 2CU      0.024000
     20 C17        -0.1510   -0.0070    0.4070 c2        1 2CU     -0.204000
     21 N19        -2.4280    0.9910    0.7100 nh        1 2CU     -0.336000
     22 S21         0.2040   -1.0250    2.7630 ss        1 2CU      0.558000
     23 N23         1.9900   -1.1650    0.7620 n2        1 2CU     -0.239000
     24 O25        -3.4840    0.2380    3.2270 o         1 2CU     -0.431000
     25 N26        -2.0340   -0.5880    4.7580 n         1 2CU     -0.434000
     26 C27        -5.1010    0.1260    6.0300 cu        1 2CU     -0.193500
     27 C28        -4.4540   -0.3330    7.2930 cx        1 2CU     -0.191000
     28 C29        -5.8580    0.1270    7.1100 cu        1 2CU     -0.193500
     29 H1         -0.2010    1.4010   -2.7540 hc        1 2CU      0.103333
     30 H2         -0.9550    2.0990   -1.2730 hc        1 2CU      0.103333
     31 H3         -1.6140    0.5590   -2.0160 hc        1 2CU      0.103333
     32 H4          4.0310   -1.7230   -0.3080 ho        1 2CU      0.279000
     33 H5          3.5280   -3.2200    1.8350 ha        1 2CU      0.124000
     34 H6          8.7440    2.4090    6.7280 ha        1 2CU      0.111500
     35 H7          5.3880   -0.1990    5.3970 hn        1 2CU      0.150000
     36 H8          8.7000    3.9170    5.6540 ha        1 2CU      0.111500
     37 H11         5.6520    0.9160    4.2510 hn        1 2CU      0.150000
     38 H12         7.2740   -0.4240    2.7970 h4        1 2CU      0.132500
     39 H13         7.9510   -1.9200    3.7120 h4        1 2CU      0.132500
     40 H14         4.2270    2.4870    5.9940 hc        1 2CU      0.078000
     41 H15         5.1070    2.7520    7.5550 hc        1 2CU      0.078000
     42 H16         4.3260    1.1520    7.2170 hc        1 2CU      0.078000
     43 H17         6.7960    1.0170    6.9440 h1        1 2CU      0.095000
     44 H18        -2.5690    1.0670   -0.2660 hn        1 2CU      0.237000
     45 H19        -3.2370    1.0360    1.2950 hn        1 2CU      0.237000
     46 H20        -2.7330   -0.5130    5.4580 hn        1 2CU      0.230000
     47 H21        -1.1170   -0.8360    5.0240 hn        1 2CU      0.230000
     48 H22        -4.9320    0.2950    4.9820 ha        1 2CU      0.203500
     49 H23        -3.7200    0.3100    7.8140 hc        1 2CU      0.086000
     50 H24        -4.2350   -1.4060    7.4540 hc        1 2CU      0.086000
     51 H25        -6.7850    0.2990    7.6140 ha        1 2CU      0.203500
     52 H10         6.3920    3.3430    4.9020 ha        1 2CU      0.121000
     53 C01         8.1750    3.0230    6.0170 c2        1 2CU     -0.212000
@<TRIPOS>BOND
     1    1    2 1   
     2    1   18 1   
     3    1   20 1   
     4    2   29 1   
     5    2   30 1   
     6    2   31 1   
     7    3    4 1   
     8    3   20 1   
     9    3   21 1   
    10    4    5 1   
    11    4   22 1   
    12    5   24 1   
    13    5   25 1   
    14    6   20 1   
    15    6   22 1   
    16    6   23 1   
    17    7   14 1   
    18    7   33 1   
    19    8   13 1   
    20    8   35 1   
    21    8   37 1   
    22    9   13 1   
    23    9   52 1   
    24    9   53 1   
    25   10   11 1   
    26   10   38 1   
    27   10   39 1   
    28   11   14 1   
    29   12   13 1   
    30   12   40 1   
    31   12   41 1   
    32   12   42 1   
    33   13   43 1   
    34   14   15 1   
    35   16   17 1   
    36   16   32 1   
    37   17   18 1   
    38   17   23 1   
    39   18   19 1   
    40   21   44 1   
    41   21   45 1   
    42   25   46 1   
    43   25   47 1   
    44   26   27 1   
    45   26   28 1   
    46   26   48 1   
    47   27   28 1   
    48   27   49 1   
    49   27   50 1   
    50   28   51 1   
    51   34   53 1   
    52   36   53 1   
@<TRIPOS>SUBSTRUCTURE
     1 2CU         1 TEMP              0 ****  ****    0 ROOT
