@<TRIPOS>MOLECULE
2CU
   53    56     1     0     0
SMALL
bcc


@<TRIPOS>ATOM
      1 C15        -1.3470   -2.7000   -0.2800 ca        1 2CU      0.052700
      2 C16        -1.9980   -4.0010   -0.5600 c3        1 2CU     -0.082800
      3 C18        -3.5470   -1.2840   -0.1620 cc        1 2CU      0.290800
      4 C20        -3.8360    0.0760    0.0240 cd        1 2CU     -0.334600
      5 C24        -5.1880    0.6350    0.0710 c         1 2CU      0.733300
      6 C22        -1.4070   -0.2860    0.1020 ca        1 2CU      0.475600
      7 C10         2.6460   -0.0530    0.4120 c3        1 2CU      0.066400
      8 N02         6.7170    2.6940   -0.3170 n3        1 2CU     -0.732600
      9 C03         7.1050    1.2900   -0.3280 c3        1 2CU      0.141800
     10 C04         6.4300    0.4680    0.7900 c3        1 2CU      0.078000
     11 N05         4.9960    0.6660    0.8730 n         1 2CU     -0.457800
     12 C06         4.6120    2.0580    0.8700 c3        1 2CU      0.078000
     13 C07         5.2750    2.8810   -0.2580 c3        1 2CU      0.141800
     14 C08         4.1420   -0.3520    0.4470 c         1 2CU      0.645100
     15 O09         4.5800   -1.4840    0.1770 o         1 2CU     -0.564100
     16 O11         2.0160   -1.3190    0.1630 os        1 2CU     -0.399100
     17 C12         0.6400   -1.3230    0.0710 ca        1 2CU      0.672600
     18 C13         0.0430   -2.6110   -0.1720 ca        1 2CU     -0.138900
     19 CL1         1.0330   -3.9770   -0.3250 cl        1 2CU     -0.040400
     20 C17        -2.1030   -1.5160   -0.1240 ca        1 2CU     -0.272100
     21 N19        -4.4810   -2.2450   -0.4070 nh        1 2CU     -0.826600
     22 S21        -2.4540    1.0260    0.2320 ss        1 2CU     -0.008900
     23 N23        -0.0590   -0.1810    0.2010 nb        1 2CU     -0.730000
     24 O25        -6.2170   -0.0780    0.1170 o         1 2CU     -0.644100
     25 N26        -5.2960    2.0190    0.0840 n         1 2CU     -0.542900
     26 C27        -6.5510    2.6790    0.1060 cx        1 2CU      0.058700
     27 C28        -6.7160    4.0330    0.7700 cx        1 2CU     -0.154900
     28 C29        -6.8120    3.9220   -0.7240 cx        1 2CU     -0.154900
     29 H1         -2.6200   -4.3180    0.3160 hc        1 2CU      0.064367
     30 H2         -2.6400   -3.9250   -1.4740 hc        1 2CU      0.064367
     31 H3         -1.2500   -4.8120   -0.7480 hc        1 2CU      0.064367
     32 H4          2.2930    0.3560    1.3950 h1        1 2CU      0.077700
     33 H5          2.4120    0.6560   -0.4250 h1        1 2CU      0.077700
     34 H6          6.9970    3.1110   -2.4130 h1        1 2CU      0.034367
     35 H7          7.0660    4.5280   -1.2680 h1        1 2CU      0.034367
     36 H8          8.4410    3.3310   -1.3210 h1        1 2CU      0.034367
     37 H11         8.2180    1.2440   -0.1610 h1        1 2CU      0.040700
     38 H12         6.6570   -0.6210    0.6130 h1        1 2CU      0.067450
     39 H13         6.8640    0.7710    1.7850 h1        1 2CU      0.067450
     40 H14         3.4990    2.1780    0.7750 h1        1 2CU      0.067450
     41 H15         4.9260    2.4910    1.8640 h1        1 2CU      0.067450
     42 H16         5.0790    3.9690   -0.0500 h1        1 2CU      0.040700
     43 H17         4.7770    2.6220   -1.2380 h1        1 2CU      0.040700
     44 H18        -5.4410   -1.9840   -0.3170 hn        1 2CU      0.442300
     45 H19        -4.2510   -3.1920   -0.2340 hn        1 2CU      0.442300
     46 H20        -4.4850    2.5790   -0.0220 hn        1 2CU      0.307500
     47 H21        -7.3860    1.9460    0.2130 h1        1 2CU      0.122700
     48 H22        -7.6310    4.2110    1.3610 hc        1 2CU      0.073700
     49 H23        -5.8400    4.5430    1.2080 hc        1 2CU      0.073700
     50 H24        -6.0030    4.3530   -1.3410 hc        1 2CU      0.073700
     51 H25        -7.7960    4.0200   -1.2140 hc        1 2CU      0.073700
     52 H10         6.8840    0.8030   -1.3220 h1        1 2CU      0.040700
     53 C01         7.3270    3.4450   -1.3910 c3        1 2CU      0.157100
@<TRIPOS>BOND
     1    1    2 1   
     2    1   18 ar  
     3    1   20 ar  
     4    2   29 1   
     5    2   30 1   
     6    2   31 1   
     7    3    4 2   
     8    3   20 1   
     9    3   21 1   
    10    4    5 1   
    11    4   22 1   
    12    5   24 2   
    13    5   25 1   
    14    6   20 ar  
    15    6   22 1   
    16    6   23 ar  
    17    7   14 1   
    18    7   16 1   
    19    7   32 1   
    20    7   33 1   
    21    8    9 1   
    22    8   13 1   
    23    8   53 1   
    24    9   10 1   
    25    9   37 1   
    26    9   52 1   
    27   10   11 1   
    28   10   38 1   
    29   10   39 1   
    30   11   12 1   
    31   11   14 1   
    32   12   13 1   
    33   12   40 1   
    34   12   41 1   
    35   13   42 1   
    36   13   43 1   
    37   14   15 2   
    38   16   17 1   
    39   17   18 ar  
    40   17   23 ar  
    41   18   19 1   
    42   21   44 1   
    43   21   45 1   
    44   25   26 1   
    45   25   46 1   
    46   26   27 1   
    47   26   28 1   
    48   26   47 1   
    49   27   28 1   
    50   27   48 1   
    51   27   49 1   
    52   28   50 1   
    53   28   51 1   
    54   34   53 1   
    55   35   53 1   
    56   36   53 1   
@<TRIPOS>SUBSTRUCTURE
     1 2CU         1 TEMP              0 ****  ****    0 ROOT
