@<TRIPOS>MOLECULE
2CU
   54    55     1     0     0
SMALL
bcc


@<TRIPOS>ATOM
      1 C15         0.1980    0.1190   -0.4140 c2        1 2CU      0.074000
      2 C16        -0.3570    0.2920   -1.7760 c3        1 2CU     -0.222000
      3 C18        -2.0920   -0.1160    0.7930 c2        1 2CU      0.293000
      4 C20        -2.5100   -0.3190    2.1690 c2        1 2CU     -0.562000
      5 C24        -3.7840   -0.4170    2.5770 c1        1 2CU      0.462000
      6 C22        -0.0600   -0.2230    2.0090 c2        1 2CU     -0.133000
      7 C10         3.9830   -0.1970    2.6060 c3        1 2CU     -0.040000
      8 N02         7.8040    0.8790    5.5030 n4        1 2CU      0.185000
      9 C03         8.2810    0.8830    4.0750 c3        1 2CU     -0.180000
     10 C04         7.7390   -0.3290    3.2880 c3        1 2CU     -0.044000
     11 N05         6.3110   -0.5400    3.4210 n         1 2CU     -0.306000
     12 C06         5.8690   -0.5030    4.8300 c3        1 2CU      0.096000
     13 C07         6.4020    0.6410    5.5710 c2        1 2CU     -0.789000
     14 C08         5.4950   -0.1030    2.3850 c2        1 2CU      0.284000
     15 O09         5.9390    0.2710    1.2830 o         1 2CU     -0.347000
     16 O11         3.4200   -0.0280    1.2840 os        1 2CU     -0.126000
     17 C12         2.0710   -0.0450    1.1530 c2        1 2CU      0.243000
     18 C13         1.5700    0.1280   -0.1980 c2        1 2CU     -0.151000
     19 CL1         2.6680    0.3340   -1.4630 cl        1 2CU      0.089000
     20 C17        -0.6590   -0.0620    0.7100 c2        1 2CU     -0.255000
     21 N19        -2.9640   -0.0030   -0.2210 nh        1 2CU     -0.307000
     22 S21        -1.1880   -0.4250    3.2440 ss        1 2CU      0.691000
     23 N23         1.2670   -0.2160    2.2320 n2        1 2CU     -0.215000
     24 O25        -4.9130   -0.4990    2.8800 o         1 2CU     -0.013000
     25 N26        -3.2500   -0.7310    5.1820 n3        1 2CU     -0.450000
     26 C27        -6.3500    0.3980    5.8980 cu        1 2CU     -0.186000
     27 C28        -5.3490    0.7800    6.9320 cx        1 2CU     -0.189000
     28 C29        -6.8090    1.0750    6.9320 cu        1 2CU     -0.186000
     29 H1          0.4520    0.4240   -2.5420 hc        1 2CU      0.113667
     30 H2         -1.0000    1.2080   -1.8230 hc        1 2CU      0.113667
     31 H3         -0.9440   -0.6130   -2.0780 hc        1 2CU      0.113667
     32 H4          3.6820   -1.1980    3.0090 h1        1 2CU      0.129000
     33 H5          3.6350    0.6350    3.2710 h1        1 2CU      0.129000
     34 H6          7.6790    2.9990    5.7010 hx        1 2CU      0.117000
     35 H7          7.8850    2.0710    7.2610 hx        1 2CU      0.117000
     36 H8          9.3080    2.2650    6.1130 hx        1 2CU      0.117000
     37 H10         8.2910    0.0970    5.9650 hn        1 2CU      0.186000
     38 H11         9.4040    0.8620    4.0540 hx        1 2CU      0.115500
     39 H12         7.9200    1.8340    3.5970 hx        1 2CU      0.115500
     40 H13         8.0190   -0.1830    2.2060 h1        1 2CU      0.116000
     41 H14         8.2430   -1.2650    3.6650 h1        1 2CU      0.116000
     42 H15         4.7480   -0.4890    4.8960 h1        1 2CU      0.070500
     43 H16         6.2270   -1.4910    5.2510 h1        1 2CU      0.070500
     44 H17         5.7750    1.4030    6.0180 hx        1 2CU      0.156000
     45 H18        -2.6530    0.1350   -1.1560 hn        1 2CU      0.260500
     46 H19        -3.9440   -0.0540   -0.0620 hn        1 2CU      0.260500
     47 H20        -2.9790    0.0980    5.6740 hn        1 2CU      0.157333
     48 H21        -4.2140   -0.9130    5.3910 hn        1 2CU      0.157333
     49 H22        -6.4930   -0.1030    4.9640 ha        1 2CU      0.193000
     50 H23        -4.9360    0.0220    7.6260 hc        1 2CU      0.089500
     51 H24        -4.6190    1.5880    6.7380 hc        1 2CU      0.089500
     52 H25        -7.6000    1.5430    7.4820 ha        1 2CU      0.193000
     53 H262       -2.6990   -1.4970    5.5140 hn        1 2CU      0.157333
     54 C01         8.1970    2.1320    6.1850 c3        1 2CU     -0.169000
@<TRIPOS>BOND
     1    1    2 1   
     2    1   18 1   
     3    1   20 1   
     4    2   29 1   
     5    2   30 1   
     6    2   31 1   
     7    3    4 1   
     8    3   20 1   
     9    3   21 1   
    10    4    5 1   
    11    4   22 1   
    12    5   24 1   
    13    6   20 1   
    14    6   22 1   
    15    6   23 1   
    16    7   14 1   
    17    7   16 1   
    18    7   32 1   
    19    7   33 1   
    20    8    9 1   
    21    8   13 1   
    22    8   37 1   
    23    8   54 1   
    24    9   10 1   
    25    9   38 1   
    26    9   39 1   
    27   10   11 1   
    28   10   40 1   
    29   10   41 1   
    30   11   12 1   
    31   11   14 1   
    32   12   13 1   
    33   12   42 1   
    34   12   43 1   
    35   13   44 1   
    36   14   15 1   
    37   16   17 1   
    38   17   18 1   
    39   17   23 1   
    40   18   19 1   
    41   21   45 1   
    42   21   46 1   
    43   25   47 1   
    44   25   48 1   
    45   25   53 1   
    46   26   27 1   
    47   26   28 1   
    48   26   49 1   
    49   27   28 1   
    50   27   50 1   
    51   27   51 1   
    52   28   52 1   
    53   34   54 1   
    54   35   54 1   
    55   36   54 1   
@<TRIPOS>SUBSTRUCTURE
     1 2CU         1 TEMP              0 ****  ****    0 ROOT
