@<TRIPOS>MOLECULE
2CU
   53    49     1     0     0
SMALL
bcc


@<TRIPOS>ATOM
      1 C15        -2.3800    0.3240   -2.9460 c1        1 2CU      0.060000
      2 C16        -2.7640    0.1720   -4.4240 c3        1 2CU     -0.208000
      3 C18        -4.6180    0.4020   -1.3950 c1        1 2CU      0.196000
      4 C20        -4.7600    0.4980    0.0450 c1        1 2CU     -0.556000
      5 C24        -5.6090    0.5250    1.3120 c1        1 2CU      0.407000
      6 C22        -2.3030    0.4400   -0.5200 c1        1 2CU     -0.181000
      7 C10         1.9680    0.0360   -1.0340 c3        1 2CU     -0.034000
      8 C01         7.6540    0.0730    1.6780 c3        1 2CU     -0.119000
      9 N02         6.6910   -0.6570    0.8860 n3        1 2CU     -0.258000
     10 C03         6.8240   -0.2820   -0.4970 c3        1 2CU     -0.095000
     11 C04         5.7370   -0.8970   -1.3680 c3        1 2CU     -0.038000
     12 N05         4.4380   -0.6610   -0.8500 n         1 2CU     -0.316000
     13 C06         4.2880   -1.0260    0.5120 c3        1 2CU     -0.038000
     14 C07         5.3690   -0.4110    1.3950 c3        1 2CU     -0.095000
     15 C08         3.3670   -0.1020   -1.6370 c2        1 2CU      0.289000
     16 O09         3.5590    0.1910   -2.8050 o         1 2CU     -0.325000
     17 O11         1.1120    0.6850   -1.9660 os        1 2CU     -0.157000
     18 C12        -0.2680    0.4270   -1.7560 c2        1 2CU      0.174000
     19 C13        -0.9970    0.3540   -2.9690 c1        1 2CU     -0.152000
     20 CL1         0.0920    0.7970   -4.2620 cl        1 2CU      0.038000
     21 C17        -3.0450    0.3660   -1.7480 c1        1 2CU     -0.195000
     22 N19        -5.7800    0.3470   -2.2270 n2        1 2CU     -0.335000
     23 S21        -3.3370    0.5260    0.6640 s         1 2CU      0.560000
     24 N23        -0.9360    0.4690   -0.5480 n2        1 2CU     -0.204000
     25 O25        -6.8260    0.4620    1.2340 o         1 2CU     -0.405000
     26 N26        -4.9830    0.6690    2.5870 n2        1 2CU     -0.352000
     27 C27        -5.7860    0.7390    3.7780 cx        1 2CU     -0.019000
     28 C28        -6.8180   -0.3650    3.9440 cx        1 2CU     -0.234000
     29 C29        -5.5570   -0.3680    4.7940 cx        1 2CU     -0.234000
     30 H1         -2.7760    1.0560   -4.8520 hc        1 2CU      0.103667
     31 H2         -2.1090   -0.4010   -4.8750 hc        1 2CU      0.103667
     32 H3         -3.6560   -0.2360   -4.4900 hc        1 2CU      0.103667
     33 H4          1.6110   -0.8560   -0.8280 h1        1 2CU      0.117000
     34 H5          2.0170    0.5670   -0.2100 h1        1 2CU      0.117000
     35 H6          8.5630   -0.1190    1.3480 h1        1 2CU      0.073667
     36 H7          7.5820   -0.2040    2.6210 h1        1 2CU      0.073667
     37 H8          7.4760    1.0380    1.6040 h1        1 2CU      0.073667
     38 H10         6.7730    0.6980   -0.5680 h1        1 2CU      0.080000
     39 H11         7.7020   -0.5810   -0.8240 h1        1 2CU      0.080000
     40 H12         5.8860   -1.8680   -1.4260 h1        1 2CU      0.106750
     41 H13         5.7960   -0.5110   -2.2720 h1        1 2CU      0.106750
     42 H14         4.3350   -2.0070    0.5870 h1        1 2CU      0.106750
     43 H15         3.4090   -0.7230    0.8280 h1        1 2CU      0.106750
     44 H16         5.2980   -0.7940    2.2970 h1        1 2CU      0.080000
     45 H17         5.2230    0.5600    1.4480 h1        1 2CU      0.080000
     46 H18        -5.7690    0.7390   -3.0570 hn        1 2CU      0.237500
     47 H19        -6.5370   -0.0820   -1.9310 hn        1 2CU      0.237500
     48 H20        -4.0710    0.6700    2.6500 hn        1 2CU      0.221000
     49 H21        -6.0350    1.6150    4.1500 h1        1 2CU      0.162000
     50 H22        -6.8480   -1.0310    3.2250 hc        1 2CU      0.113000
     51 H23        -7.6440   -0.1090    4.4090 hc        1 2CU      0.113000
     52 H24        -5.6770   -0.1150    5.7340 hc        1 2CU      0.113000
     53 H25        -4.8790   -1.0390    4.5500 hc        1 2CU      0.113000
@<TRIPOS>BOND
     1    1    2 1   
     2    1   21 1   
     3    2   30 1   
     4    2   31 1   
     5    2   32 1   
     6    3    4 1   
     7    3   21 1   
     8    4   23 1   
     9    5   25 1   
    10    6   24 1   
    11    7   15 1   
    12    7   17 1   
    13    7   33 1   
    14    7   34 1   
    15    8    9 1   
    16    8   35 1   
    17    8   36 1   
    18    8   37 1   
    19    9   10 1   
    20    9   14 1   
    21   10   11 1   
    22   10   38 1   
    23   10   39 1   
    24   11   12 1   
    25   11   40 1   
    26   11   41 1   
    27   12   13 1   
    28   12   15 1   
    29   13   14 1   
    30   13   42 1   
    31   13   43 1   
    32   14   44 1   
    33   14   45 1   
    34   15   16 1   
    35   17   18 1   
    36   18   19 1   
    37   18   24 1   
    38   22   46 1   
    39   22   47 1   
    40   26   27 1   
    41   26   48 1   
    42   27   28 1   
    43   27   29 1   
    44   27   49 1   
    45   28   29 1   
    46   28   50 1   
    47   28   51 1   
    48   29   52 1   
    49   29   53 1   
@<TRIPOS>SUBSTRUCTURE
     1 2CU         1 TEMP              0 ****  ****    0 ROOT
