@<TRIPOS>MOLECULE
2CV
   63    62     1     0     0
SMALL
bcc


@<TRIPOS>ATOM
      1 C9          9.1180    1.0040   -0.3180 c3        1 2CV     -0.079400
      2 C12         7.7420    1.3320    0.2200 c3        1 2CV     -0.079400
      3 C15         6.7110    0.3320   -0.2580 c3        1 2CV     -0.078400
      4 C18         5.3360    0.6610    0.2810 c3        1 2CV     -0.078400
      5 C21         4.3050   -0.3390   -0.1980 c3        1 2CV     -0.079400
      6 C24         2.9320   -0.0060    0.3440 c3        1 2CV     -0.075400
      7 C27         1.9040   -1.0090   -0.1360 c3        1 2CV     -0.144400
      8 C30         0.5260   -0.6690    0.3990 c         1 2CV      0.657100
      9 N33        -0.5380   -1.5380    0.1640 n         1 2CV     -0.473800
     10 O34         0.3370    0.3650    1.0710 o         1 2CV     -0.603100
     11 C35        -0.4530   -2.6350   -0.7660 c3        1 2CV      0.085000
     12 C36        -1.8480   -1.2020    0.6720 c3        1 2CV      0.058000
     13 C37        -2.7740   -0.4730   -0.3190 c3        1 2CV      0.085100
     14 C40        -4.0750   -0.0650    0.4050 c3        1 2CV      0.086100
     15 C41        -4.9750    0.7420   -0.5520 c3        1 2CV      0.119100
     16 C42        -5.9800    1.6010    0.2350 c3        1 2CV      0.148100
     17 C43        -7.1790    1.9880   -0.6320 c3        1 2CV      0.100400
     18 O44        -7.9870    2.8380    0.1710 oh        1 2CV     -0.618800
     19 O47        -3.0990   -1.2680   -1.4480 oh        1 2CV     -0.620800
     20 O49        -3.7900    0.6370    1.5950 oh        1 2CV     -0.589800
     21 O51        -5.7210   -0.1390   -1.3750 oh        1 2CV     -0.609800
     22 O53        -5.2570    2.7600    0.6340 oh        1 2CV     -0.618800
     23 C60        -0.9230   -3.9890   -0.2050 c3        1 2CV      0.113400
     24 O63        -2.3370   -4.0250   -0.3250 oh        1 2CV     -0.619800
     25 C1         10.1490    2.0030    0.1600 c3        1 2CV     -0.080400
     26 C0         11.5210    1.6810   -0.3730 c3        1 2CV     -0.092100
     27 H91C        9.4140   -0.0270    0.0100 hc        1 2CV      0.038700
     28 H92C        9.0920    0.9990   -1.4400 hc        1 2CV      0.038700
     29 H121        7.7680    1.3370    1.3420 hc        1 2CV      0.040700
     30 H122        7.4460    2.3630   -0.1080 hc        1 2CV      0.040700
     31 H11C        9.8510    3.0340   -0.1680 hc        1 2CV      0.038700
     32 H12C       10.1730    2.0080    1.2820 hc        1 2CV      0.038700
     33 H151        6.6850    0.3270   -1.3800 hc        1 2CV      0.038700
     34 H152        7.0080   -0.6990    0.0700 hc        1 2CV      0.038700
     35 H181        5.3620    0.6660    1.4030 hc        1 2CV      0.043700
     36 H182        5.0390    1.6920   -0.0470 hc        1 2CV      0.043700
     37 H211        4.2790   -0.3440   -1.3190 hc        1 2CV      0.036200
     38 H212        4.6020   -1.3700    0.1310 hc        1 2CV      0.036200
     39 H241        2.9510    0.0020    1.4660 hc        1 2CV      0.061200
     40 H242        2.6280    1.0240    0.0200 hc        1 2CV      0.061200
     41 H271        1.8710   -1.0060   -1.2580 hc        1 2CV      0.061700
     42 H272        2.1970   -2.0370    0.2040 hc        1 2CV      0.061700
     43 H351       -1.0850   -2.4010   -1.6740 h1        1 2CV      0.064200
     44 H352        0.6100   -2.7780   -1.1060 h1        1 2CV      0.064200
     45 H361       -2.3560   -2.1580    0.9910 h1        1 2CV      0.084700
     46 H362       -1.7310   -0.5350    1.5770 h1        1 2CV      0.084700
     47 H601       -0.4730   -4.8100   -0.8260 h1        1 2CV      0.035700
     48 H602       -0.6240   -4.1290    0.8670 h1        1 2CV      0.035700
     49 H37        -2.2660    0.4360   -0.7450 h1        1 2CV      0.084700
     50 H40        -4.6240   -0.9900    0.7420 h1        1 2CV      0.080700
     51 H47        -3.3010   -2.1600   -1.1300 ho        1 2CV      0.423000
     52 H41        -4.3380    1.4190   -1.1900 h1        1 2CV      0.056700
     53 H49        -3.5500    1.5440    1.3560 ho        1 2CV      0.426000
     54 H42        -6.3300    1.0470    1.1500 h1        1 2CV      0.066700
     55 H51        -5.0780   -0.6120   -1.9230 ho        1 2CV      0.427000
     56 H431       -6.8360    2.5350   -1.5480 h1        1 2CV      0.046200
     57 H432       -7.7480    1.0690   -0.9300 h1        1 2CV      0.046200
     58 H53        -5.8900    3.3330    1.0860 ho        1 2CV      0.428000
     59 H44        -8.7440    3.0890   -0.3680 ho        1 2CV      0.408000
     60 H63        -2.6280   -4.8770    0.0200 ho        1 2CV      0.409000
     61 H01C       11.8470    0.6670   -0.0360 hc        1 2CV      0.032367
     62 H02C       11.5240    1.6950   -1.4900 hc        1 2CV      0.032367
     63 H03C       12.2650    2.4290   -0.0090 hc        1 2CV      0.032367
@<TRIPOS>BOND
     1    1    2 1   
     2    1   25 1   
     3    1   27 1   
     4    1   28 1   
     5    2    3 1   
     6    2   29 1   
     7    2   30 1   
     8    3    4 1   
     9    3   33 1   
    10    3   34 1   
    11    4    5 1   
    12    4   35 1   
    13    4   36 1   
    14    5    6 1   
    15    5   37 1   
    16    5   38 1   
    17    6    7 1   
    18    6   39 1   
    19    6   40 1   
    20    7    8 1   
    21    7   41 1   
    22    7   42 1   
    23    8    9 1   
    24    8   10 2   
    25    9   11 1   
    26    9   12 1   
    27   11   23 1   
    28   11   43 1   
    29   11   44 1   
    30   12   13 1   
    31   12   45 1   
    32   12   46 1   
    33   13   14 1   
    34   13   19 1   
    35   13   49 1   
    36   14   15 1   
    37   14   20 1   
    38   14   50 1   
    39   15   16 1   
    40   15   21 1   
    41   15   52 1   
    42   16   17 1   
    43   16   22 1   
    44   16   54 1   
    45   17   18 1   
    46   17   56 1   
    47   17   57 1   
    48   18   59 1   
    49   19   51 1   
    50   20   53 1   
    51   21   55 1   
    52   22   58 1   
    53   23   24 1   
    54   23   47 1   
    55   23   48 1   
    56   24   60 1   
    57   25   26 1   
    58   25   31 1   
    59   25   32 1   
    60   26   61 1   
    61   26   62 1   
    62   26   63 1   
@<TRIPOS>SUBSTRUCTURE
     1 2CV         1 TEMP              0 ****  ****    0 ROOT
