@<TRIPOS>MOLECULE
2CV
   64    63     1     0     0
SMALL
bcc


@<TRIPOS>ATOM
      1 C9         -0.2460    0.1830   -0.1210 c3        1 2CV     -0.079400
      2 C12         1.0850   -0.4830    0.1580 c3        1 2CV     -0.079400
      3 C15         1.8640    0.2730    1.2130 c3        1 2CV     -0.079400
      4 C18         3.1940   -0.3950    1.4910 c3        1 2CV     -0.079400
      5 C21         3.9710    0.3620    2.5480 c3        1 2CV     -0.080400
      6 C24         5.3010   -0.3110    2.8200 c3        1 2CV     -0.081400
      7 C27         6.0690    0.4520    3.8840 c3        1 2CV     -0.155400
      8 C30         7.4070   -0.1870    4.1340 c         1 2CV      0.537100
      9 N33         8.1670    0.3740    5.3240 n4        1 2CV     -0.585200
     10 O34         7.9390   -1.0790    3.4920 o         1 2CV     -0.407100
     11 C35         7.8550   -0.3900    6.5750 c3        1 2CV      0.108800
     12 C36         9.6400    0.4820    5.0670 c3        1 2CV      0.101800
     13 C37        10.2340    1.8120    5.5740 c3        1 2CV      0.144100
     14 C40        11.7730    1.7110    5.5460 c3        1 2CV      0.136100
     15 C41        12.4290    3.1080    5.5060 c3        1 2CV      0.104100
     16 C42        13.8540    3.0590    6.0900 c3        1 2CV      0.109100
     17 C43        14.6760    4.2650    5.6160 c3        1 2CV      0.092400
     18 O44        15.9570    4.0980    6.1960 oh        1 2CV     -0.605800
     19 O47         9.7480    2.0060    6.8910 oh        1 2CV     -0.641800
     20 O49        12.1040    0.9990    4.3680 oh        1 2CV     -0.616800
     21 O51        11.6100    3.9740    6.2770 oh        1 2CV     -0.625800
     22 O53        14.4450    1.8490    5.6460 oh        1 2CV     -0.624800
     23 C60         8.1340   -1.8940    6.5340 c3        1 2CV      0.116400
     24 O63         9.5260   -2.0620    6.7180 oh        1 2CV     -0.607800
     25 C1         -1.0270   -0.5710   -1.1770 c3        1 2CV     -0.079400
     26 C0         -2.3520    0.0880   -1.4580 c3        1 2CV     -0.094100
     27 H91C       -0.8470    0.2350    0.8250 hc        1 2CV      0.040700
     28 H92C       -0.0750    1.2380   -0.4630 hc        1 2CV      0.040700
     29 H121        1.6850   -0.5340   -0.7890 hc        1 2CV      0.042700
     30 H122        0.9130   -1.5380    0.4980 hc        1 2CV      0.042700
     31 H11C       -0.4240   -0.6230   -2.1220 hc        1 2CV      0.040200
     32 H12C       -1.1950   -1.6260   -0.8350 hc        1 2CV      0.040200
     33 H151        1.2620    0.3240    2.1590 hc        1 2CV      0.042700
     34 H152        2.0350    1.3270    0.8710 hc        1 2CV      0.042700
     35 H181        3.0220   -1.4500    1.8320 hc        1 2CV      0.047700
     36 H182        3.7950   -0.4460    0.5450 hc        1 2CV      0.047700
     37 H211        3.3700    0.4110    3.4930 hc        1 2CV      0.047200
     38 H212        4.1430    1.4160    2.2040 hc        1 2CV      0.047200
     39 H241        5.1330   -1.3670    3.1580 hc        1 2CV      0.069200
     40 H242        5.9070   -0.3570    1.8760 hc        1 2CV      0.069200
     41 H271        6.2360    1.5120    3.5440 hc        1 2CV      0.095200
     42 H272        5.4730    0.4820    4.8360 hc        1 2CV      0.095200
     43 H351        8.4790    0.0760    7.4000 hx        1 2CV      0.117200
     44 H352        6.7600   -0.2350    6.7920 hx        1 2CV      0.117200
     45 H361        9.8320    0.4100    3.9570 hx        1 2CV      0.137700
     46 H362       10.1690   -0.3820    5.5670 hx        1 2CV      0.137700
     47 H601        7.5650   -2.3670    7.3810 h1        1 2CV      0.063700
     48 H602        7.8110   -2.3590    5.5630 h1        1 2CV      0.063700
     49 H37         9.9010    2.6690    4.9240 h1        1 2CV      0.063700
     50 H40        12.1270    1.1530    6.4580 h1        1 2CV      0.078700
     51 H47        10.2290    2.7490    7.2850 ho        1 2CV      0.462000
     52 H41        12.4620    3.4690    4.4400 h1        1 2CV      0.068700
     53 H49        13.0620    0.8550    4.3740 ho        1 2CV      0.454000
     54 H42        13.8050    3.0570    7.2160 h1        1 2CV      0.070700
     55 H51        12.0720    4.8170    6.3630 ho        1 2CV      0.431000
     56 H431       14.7520    4.2740    4.4970 h1        1 2CV      0.039700
     57 H432       14.2080    5.2210    5.9710 h1        1 2CV      0.039700
     58 H53        15.3850    1.8920    5.8750 ho        1 2CV      0.450000
     59 H44        16.5180    4.8070    5.8570 ho        1 2CV      0.426000
     60 H63         9.6960   -3.0100    6.7990 ho        1 2CV      0.439000
     61 H01C       -2.9110   -0.4830   -2.2380 hc        1 2CV      0.036367
     62 H02C       -2.9780    0.1270   -0.5340 hc        1 2CV      0.036367
     63 H03C       -2.2040    1.1330   -1.8240 hc        1 2CV      0.036367
     64 H331        7.8210    1.3320    5.4880 hn        1 2CV      0.453800
@<TRIPOS>BOND
     1    1    2 1   
     2    1   25 1   
     3    1   27 1   
     4    1   28 1   
     5    2    3 1   
     6    2   29 1   
     7    2   30 1   
     8    3    4 1   
     9    3   33 1   
    10    3   34 1   
    11    4    5 1   
    12    4   35 1   
    13    4   36 1   
    14    5    6 1   
    15    5   37 1   
    16    5   38 1   
    17    6    7 1   
    18    6   39 1   
    19    6   40 1   
    20    7    8 1   
    21    7   41 1   
    22    7   42 1   
    23    8    9 1   
    24    8   10 2   
    25    9   11 1   
    26    9   12 1   
    27    9   64 1   
    28   11   23 1   
    29   11   43 1   
    30   11   44 1   
    31   12   13 1   
    32   12   45 1   
    33   12   46 1   
    34   13   14 1   
    35   13   19 1   
    36   13   49 1   
    37   14   15 1   
    38   14   20 1   
    39   14   50 1   
    40   15   16 1   
    41   15   21 1   
    42   15   52 1   
    43   16   17 1   
    44   16   22 1   
    45   16   54 1   
    46   17   18 1   
    47   17   56 1   
    48   17   57 1   
    49   18   59 1   
    50   19   51 1   
    51   20   53 1   
    52   21   55 1   
    53   22   58 1   
    54   23   24 1   
    55   23   47 1   
    56   23   48 1   
    57   24   60 1   
    58   25   26 1   
    59   25   31 1   
    60   25   32 1   
    61   26   61 1   
    62   26   62 1   
    63   26   63 1   
@<TRIPOS>SUBSTRUCTURE
     1 2CV         1 TEMP              0 ****  ****    0 ROOT
