@<TRIPOS>MOLECULE
2CV
   64    63     1     0     0
SMALL
bcc


@<TRIPOS>ATOM
      1 C9         -0.2350    0.1910   -0.1330 c3        1 2CV     -0.079400
      2 C12         1.0960   -0.4730    0.1430 c3        1 2CV     -0.079400
      3 C15         1.8690    0.2730    1.2090 c3        1 2CV     -0.079400
      4 C18         3.2010   -0.3930    1.4840 c3        1 2CV     -0.079400
      5 C21         3.9730    0.3560    2.5500 c3        1 2CV     -0.080400
      6 C24         5.3040   -0.3150    2.8190 c3        1 2CV     -0.081400
      7 C27         6.0680    0.4410    3.8910 c3        1 2CV     -0.155400
      8 C30         7.4080   -0.1950    4.1380 c         1 2CV      0.537100
      9 N33         8.1670    0.3620    5.3290 n4        1 2CV     -0.585200
     10 O34         7.9420   -1.0830    3.4920 o         1 2CV     -0.407100
     11 C35         7.8590   -0.4090    6.5770 c3        1 2CV      0.108800
     12 C36         9.6400    0.4770    5.0710 c3        1 2CV      0.101800
     13 C37        10.2280    1.8080    5.5830 c3        1 2CV      0.144100
     14 C40        11.7670    1.7130    5.5530 c3        1 2CV      0.136100
     15 C41        12.4180    3.1140    5.5170 c3        1 2CV      0.104100
     16 C42        13.8430    3.0700    6.0980 c3        1 2CV      0.109100
     17 C43        14.6590    4.2800    5.6280 c3        1 2CV      0.092400
     18 O44        15.9420    4.1180    6.2050 oh        1 2CV     -0.605800
     19 O47         9.7430    1.9940    6.9020 oh        1 2CV     -0.641800
     20 O49        12.1000    1.0070    4.3710 oh        1 2CV     -0.616800
     21 O51        11.5950    3.9730    6.2920 oh        1 2CV     -0.625800
     22 O53        14.4390    1.8630    5.6490 oh        1 2CV     -0.624800
     23 C60         8.1460   -1.9120    6.5290 c3        1 2CV      0.116400
     24 O63         9.5380   -2.0750    6.7120 oh        1 2CV     -0.607800
     25 C1         -1.0100   -0.5540   -1.2000 c3        1 2CV     -0.079400
     26 C0         -2.3370    0.1040   -1.4790 c3        1 2CV     -0.094100
     27 H91C       -0.8400    0.2310    0.8110 hc        1 2CV      0.040700
     28 H92C       -0.0670    1.2500   -0.4630 hc        1 2CV      0.040700
     29 H121        1.7000   -0.5130   -0.8020 hc        1 2CV      0.042700
     30 H122        0.9270   -1.5330    0.4720 hc        1 2CV      0.042700
     31 H11C       -0.4040   -0.5940   -2.1430 hc        1 2CV      0.040200
     32 H12C       -1.1770   -1.6130   -0.8690 hc        1 2CV      0.040200
     33 H151        1.2650    0.3120    2.1540 hc        1 2CV      0.042700
     34 H152        2.0380    1.3320    0.8790 hc        1 2CV      0.042700
     35 H181        3.8040   -0.4320    0.5390 hc        1 2CV      0.047700
     36 H182        3.0310   -1.4520    1.8140 hc        1 2CV      0.047700
     37 H211        4.1420    1.4140    2.2180 hc        1 2CV      0.047200
     38 H212        3.3690    0.3940    3.4950 hc        1 2CV      0.047200
     39 H241        5.1390   -1.3750    3.1480 hc        1 2CV      0.069200
     40 H242        5.9130   -0.3510    1.8760 hc        1 2CV      0.069200
     41 H271        6.2320    1.5040    3.5610 hc        1 2CV      0.095200
     42 H272        5.4710    0.4600    4.8430 hc        1 2CV      0.095200
     43 H351        6.7640   -0.2610    6.7960 hx        1 2CV      0.117200
     44 H352        8.4820    0.0550    7.4040 hx        1 2CV      0.117200
     45 H361       10.1720   -0.3860    5.5680 hx        1 2CV      0.137700
     46 H362        9.8310    0.4100    3.9610 hx        1 2CV      0.137700
     47 H601        7.5790   -2.3920    7.3740 h1        1 2CV      0.063700
     48 H602        7.8250   -2.3740    5.5560 h1        1 2CV      0.063700
     49 H37         9.8900    2.6660    4.9360 h1        1 2CV      0.063700
     50 H40        12.1260    1.1540    6.4620 h1        1 2CV      0.078700
     51 H47        10.2220    2.7370    7.2980 ho        1 2CV      0.462000
     52 H41        12.4470    3.4780    4.4520 h1        1 2CV      0.068700
     53 H49        13.0590    0.8680    4.3760 ho        1 2CV      0.454000
     54 H42        13.7960    3.0620    7.2240 h1        1 2CV      0.070700
     55 H51        12.0540    4.8180    6.3810 ho        1 2CV      0.431000
     56 H431       14.1870    5.2330    5.9860 h1        1 2CV      0.039700
     57 H432       14.7330    4.2940    4.5080 h1        1 2CV      0.039700
     58 H53        15.3790    1.9090    5.8780 ho        1 2CV      0.450000
     59 H44        16.4990    4.8300    5.8670 ho        1 2CV      0.426000
     60 H63         9.7120   -3.0220    6.7880 ho        1 2CV      0.439000
     61 H01C       -2.9660    0.1310   -0.5560 hc        1 2CV      0.036367
     62 H02C       -2.8910   -0.4610   -2.2670 hc        1 2CV      0.036367
     63 H03C       -2.1910    1.1530   -1.8330 hc        1 2CV      0.036367
     64 H331        7.8180    1.3180    5.4990 hn        1 2CV      0.453800
@<TRIPOS>BOND
     1    1    2 1   
     2    1   25 1   
     3    1   27 1   
     4    1   28 1   
     5    2    3 1   
     6    2   29 1   
     7    2   30 1   
     8    3    4 1   
     9    3   33 1   
    10    3   34 1   
    11    4    5 1   
    12    4   35 1   
    13    4   36 1   
    14    5    6 1   
    15    5   37 1   
    16    5   38 1   
    17    6    7 1   
    18    6   39 1   
    19    6   40 1   
    20    7    8 1   
    21    7   41 1   
    22    7   42 1   
    23    8    9 1   
    24    8   10 2   
    25    9   11 1   
    26    9   12 1   
    27    9   64 1   
    28   11   23 1   
    29   11   43 1   
    30   11   44 1   
    31   12   13 1   
    32   12   45 1   
    33   12   46 1   
    34   13   14 1   
    35   13   19 1   
    36   13   49 1   
    37   14   15 1   
    38   14   20 1   
    39   14   50 1   
    40   15   16 1   
    41   15   21 1   
    42   15   52 1   
    43   16   17 1   
    44   16   22 1   
    45   16   54 1   
    46   17   18 1   
    47   17   56 1   
    48   17   57 1   
    49   18   59 1   
    50   19   51 1   
    51   20   53 1   
    52   21   55 1   
    53   22   58 1   
    54   23   24 1   
    55   23   47 1   
    56   23   48 1   
    57   24   60 1   
    58   25   26 1   
    59   25   31 1   
    60   25   32 1   
    61   26   61 1   
    62   26   62 1   
    63   26   63 1   
@<TRIPOS>SUBSTRUCTURE
     1 2CV         1 TEMP              0 ****  ****    0 ROOT
