@<TRIPOS>MOLECULE
2CV
   64    63     1     0     0
SMALL
bcc


@<TRIPOS>ATOM
      1 C9         -0.2500    0.1920   -0.1060 c3        1 2CV     -0.079400
      2 C12         1.0860   -0.4680    0.1580 c3        1 2CV     -0.079400
      3 C15         1.8620    0.2740    1.2250 c3        1 2CV     -0.079400
      4 C18         3.1980   -0.3880    1.4880 c3        1 2CV     -0.079400
      5 C21         3.9730    0.3570    2.5550 c3        1 2CV     -0.080400
      6 C24         5.3080   -0.3100    2.8120 c3        1 2CV     -0.081400
      7 C27         6.0730    0.4400    3.8860 c3        1 2CV     -0.155400
      8 C30         7.4170   -0.1930    4.1230 c         1 2CV      0.537100
      9 N33         8.1780    0.3570    5.3170 nx        1 2CV     -0.585200
     10 O34         7.9520   -1.0730    3.4670 o         1 2CV     -0.407100
     11 C35         7.8770   -0.4260    6.5590 c3        1 2CV      0.108800
     12 C36         9.6490    0.4790    5.0550 c3        1 2CV      0.101800
     13 C37        10.2350    1.8070    5.5770 c3        1 2CV      0.144100
     14 C40        11.7740    1.7180    5.5410 c3        1 2CV      0.136100
     15 C41        12.4200    3.1210    5.5160 c3        1 2CV      0.104100
     16 C42        13.8470    3.0760    6.0920 c3        1 2CV      0.109100
     17 C43        14.6580    4.2940    5.6300 c3        1 2CV      0.092400
     18 O44        15.9430    4.1300    6.2020 oh        1 2CV     -0.605800
     19 O47         9.7530    1.9800    6.8990 oh        1 2CV     -0.641800
     20 O49        12.1050    1.0240    4.3520 oh        1 2CV     -0.616800
     21 O51        11.5970    3.9700    6.3020 oh        1 2CV     -0.625800
     22 O53        14.4450    1.8760    5.6310 oh        1 2CV     -0.624800
     23 C60         8.1680   -1.9270    6.4960 c3        1 2CV      0.116400
     24 O63         9.5620   -2.0870    6.6730 oh        1 2CV     -0.607800
     25 C1         -1.0280   -0.5480   -1.1730 c3        1 2CV     -0.079400
     26 C0         -2.3600    0.1050   -1.4390 c3        1 2CV     -0.094100
     27 H91C       -0.8500    0.2220    0.8420 hc        1 2CV      0.040700
     28 H92C       -0.0890    1.2550   -0.4280 hc        1 2CV      0.040700
     29 H121        0.9240   -1.5300    0.4800 hc        1 2CV      0.042700
     30 H122        1.6840   -0.4970   -0.7910 hc        1 2CV      0.042700
     31 H11C       -1.1870   -1.6110   -0.8500 hc        1 2CV      0.040200
     32 H12C       -0.4270   -0.5780   -2.1200 hc        1 2CV      0.040200
     33 H151        1.2630    0.3040    2.1730 hc        1 2CV      0.042700
     34 H152        2.0240    1.3360    0.9020 hc        1 2CV      0.042700
     35 H181        3.0350   -1.4500    1.8110 hc        1 2CV      0.047700
     36 H182        3.7960   -0.4170    0.5390 hc        1 2CV      0.047700
     37 H211        4.1350    1.4180    2.2300 hc        1 2CV      0.047200
     38 H212        3.3730    0.3850    3.5030 hc        1 2CV      0.047200
     39 H241        5.9120   -0.3370    1.8670 hc        1 2CV      0.069200
     40 H242        5.1490   -1.3730    3.1340 hc        1 2CV      0.069200
     41 H271        6.2320    1.5070    3.5640 hc        1 2CV      0.095200
     42 H272        5.4800    0.4510    4.8410 hc        1 2CV      0.095200
     43 H351        8.5000    0.0330    7.3870 hx        1 2CV      0.117200
     44 H352        6.7820   -0.2830    6.7820 hx        1 2CV      0.117200
     45 H361       10.1860   -0.3870    5.5420 hx        1 2CV      0.137700
     46 H362        9.8370    0.4230    3.9440 hx        1 2CV      0.137700
     47 H601        7.8450   -2.3820    5.5210 h1        1 2CV      0.063700
     48 H602        7.6060   -2.4160    7.3390 h1        1 2CV      0.063700
     49 H37         9.8920    2.6700    4.9390 h1        1 2CV      0.063700
     50 H40        12.1370    1.1520    6.4440 h1        1 2CV      0.078700
     51 H47        10.2310    2.7220    7.3000 ho        1 2CV      0.462000
     52 H41        12.4440    3.4960    4.4540 h1        1 2CV      0.068700
     53 H49        13.0650    0.8880    4.3530 ho        1 2CV      0.454000
     54 H42        13.8040    3.0590    7.2180 h1        1 2CV      0.070700
     55 H51        12.0530    4.8160    6.3960 ho        1 2CV      0.431000
     56 H431       14.7280    4.3180    4.5100 h1        1 2CV      0.039700
     57 H432       14.1840    5.2420    5.9990 h1        1 2CV      0.039700
     58 H53        15.3860    1.9230    5.8560 ho        1 2CV      0.450000
     59 H44        16.4970    4.8470    5.8690 ho        1 2CV      0.426000
     60 H63         9.7390   -3.0350    6.7400 ho        1 2CV      0.439000
     61 H01C       -2.9160   -0.4560   -2.2280 hc        1 2CV      0.036367
     62 H02C       -2.2210    1.1570   -1.7860 hc        1 2CV      0.036367
     63 H03C       -2.9830    0.1220   -0.5120 hc        1 2CV      0.036367
     64 H331        7.8260    1.3100    5.4960 hn        1 2CV      0.453800
@<TRIPOS>BOND
     1    1    2 1   
     2    1   25 1   
     3    1   27 1   
     4    1   28 1   
     5    2    3 1   
     6    2   29 1   
     7    2   30 1   
     8    3    4 1   
     9    3   33 1   
    10    3   34 1   
    11    4    5 1   
    12    4   35 1   
    13    4   36 1   
    14    5    6 1   
    15    5   37 1   
    16    5   38 1   
    17    6    7 1   
    18    6   39 1   
    19    6   40 1   
    20    7    8 1   
    21    7   41 1   
    22    7   42 1   
    23    8    9 1   
    24    8   10 2   
    25    9   11 1   
    26    9   12 1   
    27    9   64 1   
    28   11   23 1   
    29   11   43 1   
    30   11   44 1   
    31   12   13 1   
    32   12   45 1   
    33   12   46 1   
    34   13   14 1   
    35   13   19 1   
    36   13   49 1   
    37   14   15 1   
    38   14   20 1   
    39   14   50 1   
    40   15   16 1   
    41   15   21 1   
    42   15   52 1   
    43   16   17 1   
    44   16   22 1   
    45   16   54 1   
    46   17   18 1   
    47   17   56 1   
    48   17   57 1   
    49   18   59 1   
    50   19   51 1   
    51   20   53 1   
    52   21   55 1   
    53   22   58 1   
    54   23   24 1   
    55   23   47 1   
    56   23   48 1   
    57   24   60 1   
    58   25   26 1   
    59   25   31 1   
    60   25   32 1   
    61   26   61 1   
    62   26   62 1   
    63   26   63 1   
@<TRIPOS>SUBSTRUCTURE
     1 2CV         1 TEMP              0 ****  ****    0 ROOT
