@<TRIPOS>MOLECULE
2CV
   63    62     1     0     0
SMALL
bcc


@<TRIPOS>ATOM
      1 C9         -5.4970   -3.6600   -4.7650 c3        1 2CV     -0.079400
      2 C12        -4.7050   -2.4200   -4.3340 c3        1 2CV     -0.079400
      3 C15        -4.0010   -2.6990   -2.9850 c3        1 2CV     -0.079400
      4 C18        -3.1350   -1.4820   -2.5950 c3        1 2CV     -0.078400
      5 C21        -2.5400   -1.7010   -1.1740 c3        1 2CV     -0.079400
      6 C24        -1.4990   -0.5840   -0.8690 c3        1 2CV     -0.074400
      7 C27        -0.9680   -0.7520    0.5700 c3        1 2CV     -0.146400
      8 C30         0.0800    0.3540    0.8660 c         1 2CV      0.657100
      9 N33         0.7480    0.4000    2.1670 n         1 2CV     -0.472800
     10 O34         0.3090    1.2100    0.0380 o         1 2CV     -0.612100
     11 C35        -0.0360    0.3800    3.3830 c3        1 2CV      0.086000
     12 C36         2.2020    0.4700    2.2380 c3        1 2CV      0.105000
     13 C37         2.6430    1.9310    2.2490 c3        1 2CV      0.137100
     14 C40         4.1590    2.0030    2.2540 c3        1 2CV      0.129100
     15 C41         4.5970    3.4440    2.4680 c3        1 2CV      0.102100
     16 C42         6.0930    3.5550    2.2630 c3        1 2CV      0.111100
     17 C43         6.5640    4.9390    2.6940 c3        1 2CV      0.089400
     18 O44         7.9480    5.0710    2.4280 oh        1 2CV     -0.608800
     19 O47         2.1420    2.5620    3.3940 oh        1 2CV     -0.611800
     20 O49         4.6530    1.5410    1.0240 oh        1 2CV     -0.597800
     21 O51         4.2740    3.8410    3.7740 oh        1 2CV     -0.605800
     22 O53         6.3950    3.3590    0.9080 oh        1 2CV     -0.615800
     23 C60         0.1710   -0.9410    4.0960 c3        1 2CV      0.107400
     24 O63        -0.5400   -0.9330    5.3190 oh        1 2CV     -0.601800
     25 C1         -6.1580   -3.3980   -6.1240 c3        1 2CV     -0.080400
     26 C0         -6.8530   -4.6630   -6.6020 c3        1 2CV     -0.092100
     27 H91C       -6.1870   -3.8550   -4.0980 hc        1 2CV      0.038700
     28 H92C       -4.8890   -4.4260   -4.8390 hc        1 2CV      0.038700
     29 H121       -5.3160   -1.6620   -4.2330 hc        1 2CV      0.039700
     30 H122       -4.0310   -2.2080   -5.0180 hc        1 2CV      0.039700
     31 H11C       -6.8140   -2.6810   -6.0330 hc        1 2CV      0.038700
     32 H12C       -5.4720   -3.1340   -6.7770 hc        1 2CV      0.038700
     33 H151       -3.4290   -3.4940   -3.0720 hc        1 2CV      0.038700
     34 H152       -4.6740   -2.8560   -2.2920 hc        1 2CV      0.038700
     35 H181       -3.6890   -0.6740   -2.5950 hc        1 2CV      0.042200
     36 H182       -2.4060   -1.3780   -3.2420 hc        1 2CV      0.042200
     37 H211       -3.2620   -1.6670   -0.5080 hc        1 2CV      0.037200
     38 H212       -2.1010   -2.5760   -1.1360 hc        1 2CV      0.037200
     39 H241       -0.7530   -0.6510   -1.5030 hc        1 2CV      0.058200
     40 H242       -1.9230    0.2870   -0.9590 hc        1 2CV      0.058200
     41 H271       -0.5520   -1.6270    0.6620 hc        1 2CV      0.064700
     42 H272       -1.7090   -0.6760    1.2020 hc        1 2CV      0.064700
     43 H351       -0.9860    0.4860    3.1610 h1        1 2CV      0.073700
     44 H352        0.2480    1.1150    3.9670 h1        1 2CV      0.073700
     45 H361        2.5110    0.0290    3.0600 h1        1 2CV      0.077700
     46 H362        2.5890    0.0190    1.4600 h1        1 2CV      0.077700
     47 H601       -0.1560   -1.6680    3.5350 h1        1 2CV      0.026200
     48 H602        1.1170   -1.0690    4.2730 h1        1 2CV      0.026200
     49 H37         2.3000    2.3790    1.4570 h1        1 2CV      0.059700
     50 H40         4.5110    1.4420    2.9810 h1        1 2CV      0.056700
     51 H47         1.6070    3.2190    3.1570 ho        1 2CV      0.419000
     52 H41         4.1370    4.0220    1.8290 h1        1 2CV      0.064700
     53 H49         5.1350    0.8120    1.1560 ho        1 2CV      0.427000
     54 H42         6.5460    2.8760    2.7980 h1        1 2CV      0.065700
     55 H51         4.0640    4.7050    3.7780 ho        1 2CV      0.410000
     56 H431        6.0680    5.6240    2.1940 h1        1 2CV      0.035200
     57 H432        6.4040    5.0550    3.6530 h1        1 2CV      0.035200
     58 H53         7.2550    3.1590    0.8220 ho        1 2CV      0.433000
     59 H44         8.2690    5.7670    2.8730 ho        1 2CV      0.413000
     60 H63        -0.4460   -1.7160    5.7200 ho        1 2CV      0.403000
     61 H01C       -7.5220   -4.9390   -5.9390 hc        1 2CV      0.032367
     62 H02C       -7.2970   -4.4880   -7.4620 hc        1 2CV      0.032367
     63 H03C       -6.1920   -5.3760   -6.7150 hc        1 2CV      0.032367
@<TRIPOS>BOND
     1    1    2 1   
     2    1   25 1   
     3    1   27 1   
     4    1   28 1   
     5    2    3 1   
     6    2   29 1   
     7    2   30 1   
     8    3    4 1   
     9    3   33 1   
    10    3   34 1   
    11    4    5 1   
    12    4   35 1   
    13    4   36 1   
    14    5    6 1   
    15    5   37 1   
    16    5   38 1   
    17    6    7 1   
    18    6   39 1   
    19    6   40 1   
    20    7    8 1   
    21    7   41 1   
    22    7   42 1   
    23    8    9 1   
    24    8   10 2   
    25    9   11 1   
    26    9   12 1   
    27   11   23 1   
    28   11   43 1   
    29   11   44 1   
    30   12   13 1   
    31   12   45 1   
    32   12   46 1   
    33   13   14 1   
    34   13   19 1   
    35   13   49 1   
    36   14   15 1   
    37   14   20 1   
    38   14   50 1   
    39   15   16 1   
    40   15   21 1   
    41   15   52 1   
    42   16   17 1   
    43   16   22 1   
    44   16   54 1   
    45   17   18 1   
    46   17   56 1   
    47   17   57 1   
    48   18   59 1   
    49   19   51 1   
    50   20   53 1   
    51   21   55 1   
    52   22   58 1   
    53   23   24 1   
    54   23   47 1   
    55   23   48 1   
    56   24   60 1   
    57   25   26 1   
    58   25   31 1   
    59   25   32 1   
    60   26   61 1   
    61   26   62 1   
    62   26   63 1   
@<TRIPOS>SUBSTRUCTURE
     1 2CV         1 TEMP              0 ****  ****    0 ROOT
