@<TRIPOS>MOLECULE
2CW
   49    50     1     0     0
SMALL
bcc


@<TRIPOS>ATOM
      1 O01         2.4420   -0.3160   -1.3660 o         1 2CW     -0.491100
      2 C02         1.8000   -0.2340   -0.3140 c         1 2CW      0.537500
      3 N03         0.3060   -0.2560   -0.3240 ne        1 2CW      0.059900
      4 O04        -0.2580   -1.2020   -0.0220 o         1 2CW     -0.015300
      5 C05         2.5340    0.0260    1.0310 c3        1 2CW      0.063200
      6 N06         3.9900    0.3510    0.7340 n4        1 2CW     -0.682800
      7 C07         4.9340    0.1000    1.9020 c         1 2CW      0.588700
      8 C08         5.9130   -0.9680    1.7440 ca        1 2CW     -0.230600
      9 C09         6.3980   -1.5560    2.9290 ca        1 2CW     -0.058500
     10 C10         7.3410   -2.5720    2.8710 ca        1 2CW     -0.129000
     11 C11         7.8360   -3.0150    1.6290 ca        1 2CW      0.162000
     12 C12         8.7850   -4.0370    1.5650 cg        1 2CW     -0.212000
     13 C13         9.6060   -4.9160    1.5120 ch        1 2CW      0.122000
     14 C14        10.5240   -5.8980    1.4530 ch        1 2CW     -0.156000
     15 C15        11.3490   -6.7750    1.4020 cg        1 2CW      0.059000
     16 C16        12.3080   -7.7910    1.3440 ca        1 2CW     -0.101000
     17 C17        12.8090   -8.2310    0.1040 ca        1 2CW     -0.031000
     18 C18        13.7600   -9.2340    0.0390 ca        1 2CW     -0.221000
     19 C19        14.2580   -9.8360    1.2260 ca        1 2CW      0.222600
     20 C20        13.7390   -9.3930    2.4740 ca        1 2CW     -0.221000
     21 C21        12.7890   -8.3890    2.5240 ca        1 2CW     -0.031000
     22 N22        15.2540  -10.7850    1.1730 nh        1 2CW     -0.851200
     23 C23         7.3640   -2.4040    0.4460 ca        1 2CW     -0.129000
     24 C24         6.4170   -1.3940    0.5020 ca        1 2CW     -0.058500
     25 O25         4.7680    0.8400    2.8650 o         1 2CW     -0.447100
     26 C26         1.8950    1.2110    1.8290 c3        1 2CW      0.139100
     27 O27         0.6310    0.7280    2.2540 oh        1 2CW     -0.601800
     28 C28         1.7840    2.4800    1.0080 c3        1 2CW     -0.160100
     29 C29         2.4170   -1.2600    1.8520 c3        1 2CW     -0.123100
     30 H3          4.2750   -0.2200   -0.0740 hn        1 2CW      0.464800
     31 H4          6.0250   -1.2030    3.9060 ha        1 2CW      0.147500
     32 H5          7.7130   -3.0330    3.8020 ha        1 2CW      0.172500
     33 H6         12.4390   -7.7710   -0.8260 ha        1 2CW      0.140500
     34 H7         14.1380   -9.5580   -0.9420 ha        1 2CW      0.143000
     35 H8         14.1010   -9.8430    3.4110 ha        1 2CW      0.143000
     36 H9         12.4020   -8.0540    3.4990 ha        1 2CW      0.140500
     37 H10        15.4560  -11.2060    0.2990 hn        1 2CW      0.425800
     38 H11        15.4420  -11.3160    1.9880 hn        1 2CW      0.425800
     39 H12         7.7620   -2.7340   -0.5280 ha        1 2CW      0.172500
     40 H13         6.1080   -0.9240   -0.4450 ha        1 2CW      0.147500
     41 H14         2.5280    1.3980    2.7480 h1        1 2CW      0.085700
     42 H15         0.1350    1.4810    2.6060 ho        1 2CW      0.447000
     43 H16         1.3560    2.2840   -0.0050 hc        1 2CW      0.068700
     44 H17         1.1080    3.2050    1.5290 hc        1 2CW      0.068700
     45 H18         2.7790    2.9740    0.8960 hc        1 2CW      0.068700
     46 H19         2.8760   -2.1280    1.3210 hc        1 2CW      0.089033
     47 H20         2.8990   -1.1320    2.8530 hc        1 2CW      0.089033
     48 H21         1.3290   -1.4750    2.0260 hc        1 2CW      0.089033
     49 H062        4.0440    1.3410    0.4670 hn        1 2CW      0.464800
@<TRIPOS>BOND
     1    1    2 2   
     2    2    3 1   
     3    2    5 1   
     4    3    4 2   
     5    5    6 1   
     6    5   26 1   
     7    5   29 1   
     8    6    7 1   
     9    6   30 1   
    10    6   49 1   
    11    7    8 1   
    12    7   25 2   
    13    8    9 ar  
    14    8   24 ar  
    15    9   10 ar  
    16    9   31 1   
    17   10   11 ar  
    18   10   32 1   
    19   11   12 1   
    20   11   23 ar  
    21   12   13 3   
    22   13   14 1   
    23   14   15 3   
    24   15   16 1   
    25   16   17 ar  
    26   16   21 ar  
    27   17   18 ar  
    28   17   33 1   
    29   18   19 ar  
    30   18   34 1   
    31   19   20 ar  
    32   19   22 1   
    33   20   21 ar  
    34   20   35 1   
    35   21   36 1   
    36   22   37 1   
    37   22   38 1   
    38   23   24 ar  
    39   23   39 1   
    40   24   40 1   
    41   26   27 1   
    42   26   28 1   
    43   26   41 1   
    44   27   42 1   
    45   28   43 1   
    46   28   44 1   
    47   28   45 1   
    48   29   46 1   
    49   29   47 1   
    50   29   48 1   
@<TRIPOS>SUBSTRUCTURE
     1 2CW         1 TEMP              0 ****  ****    0 ROOT
