@<TRIPOS>MOLECULE
2CW
   49    50     1     0     0
SMALL
bcc


@<TRIPOS>ATOM
      1 O01         1.7360   -0.8180   -0.9950 o         1 2CW     -0.491100
      2 C02         1.3870   -0.6140    0.1710 c         1 2CW      0.537500
      3 N03        -0.0510   -0.7120    0.5690 ne        1 2CW      0.059900
      4 O04        -0.4310   -1.6300    1.1310 o         1 2CW     -0.015300
      5 C05         2.4210   -0.1240    1.2230 c3        1 2CW      0.063200
      6 N06         3.7160    0.2260    0.5040 ny        1 2CW     -0.682800
      7 C07         4.9490    0.1960    1.3960 c         1 2CW      0.588700
      8 C08         5.9400   -0.8360    1.1200 ca        1 2CW     -0.230600
      9 C09         6.7670   -1.2160    2.1970 ca        1 2CW     -0.058500
     10 C10         7.7450   -2.1830    2.0200 ca        1 2CW     -0.129000
     11 C11         7.9340   -2.7840    0.7600 ca        1 2CW      0.162000
     12 C12         8.9160   -3.7590    0.5770 cg        1 2CW     -0.212000
     13 C13         9.7670   -4.5970    0.4200 ch        1 2CW      0.122000
     14 C14        10.7180   -5.5320    0.2460 ch        1 2CW     -0.156000
     15 C15        11.5720   -6.3680    0.0890 cg        1 2CW      0.059000
     16 C16        12.5650   -7.3360   -0.0920 ca        1 2CW     -0.101000
     17 C17        12.7560   -7.9380   -1.3500 ca        1 2CW     -0.031000
     18 C18        13.7380   -8.8940   -1.5370 ca        1 2CW     -0.221000
     19 C19        14.5820   -9.2840   -0.4610 ca        1 2CW      0.222600
     20 C20        14.3760   -8.6780    0.8080 ca        1 2CW     -0.221000
     21 C21        13.3900   -7.7230    0.9810 ca        1 2CW     -0.031000
     22 N22        15.6060  -10.1830   -0.6570 nv        1 2CW     -0.851200
     23 C23         7.1190   -2.3810   -0.3210 ca        1 2CW     -0.129000
     24 C24         6.1360   -1.4190   -0.1440 ca        1 2CW     -0.058500
     25 O25         4.9770    1.0630    2.2620 o         1 2CW     -0.447100
     26 C26         1.9120    1.1320    2.0050 c3        1 2CW      0.139100
     27 O27         0.8490    0.6550    2.8150 oh        1 2CW     -0.601800
     28 C28         1.4800    2.2600    1.0890 c3        1 2CW     -0.160100
     29 C29         2.6340   -1.2800    2.2030 c3        1 2CW     -0.123100
     30 H3          3.6110    1.1670    0.1080 hn        1 2CW      0.464800
     31 H4          6.6330   -0.7380    3.1830 ha        1 2CW      0.147500
     32 H5          8.3860   -2.4810    2.8670 ha        1 2CW      0.172500
     33 H6         12.1150   -7.6440   -2.1960 ha        1 2CW      0.140500
     34 H7         13.8690   -9.3480   -2.5300 ha        1 2CW      0.143000
     35 H8         15.0100   -8.9610    1.6620 ha        1 2CW      0.143000
     36 H9         13.2480   -7.2600    1.9700 ha        1 2CW      0.140500
     37 H10        15.6050  -10.7230   -1.4870 hn        1 2CW      0.425800
     38 H11        16.0480  -10.5730    0.1390 hn        1 2CW      0.425800
     39 H12         7.2760   -2.8340   -1.3140 ha        1 2CW      0.172500
     40 H13         5.5520   -1.1120   -1.0250 ha        1 2CW      0.147500
     41 H14         2.7440    1.4830    2.6870 h1        1 2CW      0.085700
     42 H15         0.3980    1.4250    3.1880 ho        1 2CW      0.447000
     43 H16         0.9040    3.0200    1.6770 hc        1 2CW      0.068700
     44 H17         2.3640    2.7810    0.6500 hc        1 2CW      0.068700
     45 H18         0.8210    1.8970    0.2640 hc        1 2CW      0.068700
     46 H19         1.6530   -1.5210    2.6910 hc        1 2CW      0.089033
     47 H20         3.0130   -2.1920    1.6830 hc        1 2CW      0.089033
     48 H21         3.3480   -0.9830    3.0110 hc        1 2CW      0.089033
     49 H062        3.8280   -0.4440   -0.2710 hn        1 2CW      0.464800
@<TRIPOS>BOND
     1    1    2 2   
     2    2    3 1   
     3    2    5 1   
     4    3    4 2   
     5    5    6 1   
     6    5   26 1   
     7    5   29 1   
     8    6    7 1   
     9    6   30 1   
    10    6   49 1   
    11    7    8 1   
    12    7   25 2   
    13    8    9 ar  
    14    8   24 ar  
    15    9   10 ar  
    16    9   31 1   
    17   10   11 ar  
    18   10   32 1   
    19   11   12 1   
    20   11   23 ar  
    21   12   13 3   
    22   13   14 1   
    23   14   15 3   
    24   15   16 1   
    25   16   17 ar  
    26   16   21 ar  
    27   17   18 ar  
    28   17   33 1   
    29   18   19 ar  
    30   18   34 1   
    31   19   20 ar  
    32   19   22 1   
    33   20   21 ar  
    34   20   35 1   
    35   21   36 1   
    36   22   37 1   
    37   22   38 1   
    38   23   24 ar  
    39   23   39 1   
    40   24   40 1   
    41   26   27 1   
    42   26   28 1   
    43   26   41 1   
    44   27   42 1   
    45   28   43 1   
    46   28   44 1   
    47   28   45 1   
    48   29   46 1   
    49   29   47 1   
    50   29   48 1   
@<TRIPOS>SUBSTRUCTURE
     1 2CW         1 TEMP              0 ****  ****    0 ROOT
