@<TRIPOS>MOLECULE
2CW
   50    51     1     0     0
SMALL
bcc


@<TRIPOS>ATOM
      1 O01         2.0070   -0.7770   -1.0880 o         1 2CW     -0.492100
      2 C02         1.5330   -0.4690    0.0090 c         1 2CW      0.537500
      3 N03         0.0530   -0.3980    0.2210 ne        1 2CW      0.066900
      4 O04        -0.4910   -1.2440    0.7590 o         1 2CW     -0.007300
      5 C05         2.4740   -0.0180    1.1630 c3        1 2CW      0.060200
      6 N06         3.8710    0.1950    0.5920 n4        1 2CW     -0.681800
      7 C07         4.9880    0.0600    1.6070 c         1 2CW      0.579700
      8 C08         5.9400   -1.0360    1.4020 ca        1 2CW     -0.193600
      9 C09         6.5420   -1.5750    2.5530 ca        1 2CW     -0.067000
     10 C10         7.4840   -2.5930    2.4370 ca        1 2CW     -0.101500
     11 C11         7.8480   -3.0770    1.1690 ca        1 2CW      0.094000
     12 C12         8.8100   -4.0950    1.0490 cg        1 2CW     -0.075000
     13 C13         9.6380   -4.9600    0.9520 ch        1 2CW      0.006000
     14 C14        10.5730   -5.9310    0.8470 ch        1 2CW      0.033000
     15 C15        11.4080   -6.7900    0.7550 cg        1 2CW     -0.101000
     16 C16        12.3860   -7.7930    0.6520 ca        1 2CW      0.096000
     17 C17        12.6480   -8.4020   -0.5890 ca        1 2CW     -0.084000
     18 C18        13.6180   -9.3940   -0.6990 ca        1 2CW     -0.095000
     19 C19        14.3350   -9.7830    0.4460 ca        1 2CW     -0.070400
     20 C20        14.0850   -9.1830    1.6920 ca        1 2CW     -0.095000
     21 C21        13.1130   -8.1930    1.7880 ca        1 2CW     -0.084000
     22 N22        15.3510  -10.8320    0.3400 n4        1 2CW     -0.702000
     23 C23         7.2530   -2.5250    0.0190 ca        1 2CW     -0.101500
     24 C24         6.3070   -1.5120    0.1340 ca        1 2CW     -0.067000
     25 O25         4.9950    0.8920    2.5040 o         1 2CW     -0.419100
     26 C26         1.9900    1.3080    1.8410 c3        1 2CW      0.141100
     27 O27         0.8040    0.9510    2.5320 oh        1 2CW     -0.600800
     28 C28         1.7720    2.4330    0.8500 c3        1 2CW     -0.162100
     29 C29         2.4680   -1.1450    2.1960 c3        1 2CW     -0.126100
     30 H3          3.9020    1.1380    0.1830 hn        1 2CW      0.468300
     31 H4          6.2720   -1.1840    3.5500 ha        1 2CW      0.158000
     32 H5          7.9500   -3.0130    3.3450 ha        1 2CW      0.174500
     33 H6         12.0830   -8.0930   -1.4850 ha        1 2CW      0.180500
     34 H7         13.8060   -9.8550   -1.6830 ha        1 2CW      0.165000
     35 H8         14.6430   -9.4770    2.5980 ha        1 2CW      0.165000
     36 H9         12.9140   -7.7190    2.7640 ha        1 2CW      0.180500
     37 H10        14.9170  -11.7480    0.5100 hn        1 2CW      0.467467
     38 H11        16.0900  -10.6760    1.0350 hn        1 2CW      0.467467
     39 H12         7.5440   -2.8920   -0.9800 ha        1 2CW      0.174500
     40 H13         5.8910   -1.0830   -0.7920 ha        1 2CW      0.158000
     41 H14         2.7640    1.6110    2.6090 h1        1 2CW      0.082700
     42 H15         0.3480    1.7690    2.7790 ho        1 2CW      0.452000
     43 H16         2.7450    2.8570    0.5010 hc        1 2CW      0.071367
     44 H17         1.2080    3.2650    1.3440 hc        1 2CW      0.071367
     45 H18         1.1790    2.1000   -0.0360 hc        1 2CW      0.071367
     46 H19         1.4160   -1.2850    2.5640 hc        1 2CW      0.089700
     47 H20         2.8250   -2.1070    1.7560 hc        1 2CW      0.089700
     48 H21         3.0970   -0.8740    3.0800 hc        1 2CW      0.089700
     49 H062        4.0030   -0.4930   -0.1650 hn        1 2CW      0.468300
     50 H223       15.7650  -10.8260   -0.6000 hn        1 2CW      0.467467
@<TRIPOS>BOND
     1    1    2 2   
     2    2    3 1   
     3    2    5 1   
     4    3    4 2   
     5    5    6 1   
     6    5   26 1   
     7    5   29 1   
     8    6    7 1   
     9    6   30 1   
    10    6   49 1   
    11    7    8 1   
    12    7   25 2   
    13    8    9 ar  
    14    8   24 ar  
    15    9   10 ar  
    16    9   31 1   
    17   10   11 ar  
    18   10   32 1   
    19   11   12 1   
    20   11   23 ar  
    21   12   13 3   
    22   13   14 1   
    23   14   15 3   
    24   15   16 1   
    25   16   17 ar  
    26   16   21 ar  
    27   17   18 ar  
    28   17   33 1   
    29   18   19 ar  
    30   18   34 1   
    31   19   20 ar  
    32   19   22 1   
    33   20   21 ar  
    34   20   35 1   
    35   21   36 1   
    36   22   37 1   
    37   22   38 1   
    38   22   50 1   
    39   23   24 ar  
    40   23   39 1   
    41   24   40 1   
    42   26   27 1   
    43   26   28 1   
    44   26   41 1   
    45   27   42 1   
    46   28   43 1   
    47   28   44 1   
    48   28   45 1   
    49   29   46 1   
    50   29   47 1   
    51   29   48 1   
@<TRIPOS>SUBSTRUCTURE
     1 2CW         1 TEMP              0 ****  ****    0 ROOT
