@<TRIPOS>MOLECULE
2CW
   48    42     1     0     0
SMALL
bcc


@<TRIPOS>ATOM
      1 O01         3.5570    2.0550    3.9890 o         1 2CW     -0.271000
      2 C02         2.9330    2.4960    4.9340 c1        1 2CW      0.119000
      3 N03         3.4610    2.3880    6.2430 n1        1 2CW      0.165000
      4 O04         4.5930    1.9640    6.4120 o         1 2CW     -0.101000
      5 C05         1.5870    3.1490    4.7130 c3        1 2CW      0.042000
      6 N06         0.9600    2.5670    3.5790 n         1 2CW     -0.355000
      7 C07         1.7150    2.3060    2.4060 c2        1 2CW      0.358000
      8 C08         1.1290    1.4480    1.3020 c2        1 2CW     -0.121000
      9 C09        -0.1390    0.9050    1.4450 c2        1 2CW     -0.104000
     10 C10        -0.6760    0.1210    0.4340 c1        1 2CW     -0.117000
     11 C11         0.0560   -0.1200   -0.7190 c1        1 2CW      0.059000
     12 C12        -0.5000   -1.0370   -1.7920 c1        1 2CW     -0.109000
     13 C13        -0.9380   -1.7600   -2.6370 c1        1 2CW     -0.005000
     14 C14        -1.4930   -2.6770   -3.7090 c1        1 2CW     -0.058500
     15 C15        -1.9300   -3.3980   -4.5530 c1        1 2CW     -0.058500
     16 C16        -2.4850   -4.3140   -5.6240 c1        1 2CW     -0.040000
     17 C17        -1.8220   -5.4910   -5.9410 c2        1 2CW     -0.056000
     18 C18        -2.3480   -6.3470   -6.8970 c1        1 2CW     -0.203000
     19 C19        -3.5360   -6.0260   -7.5350 c1        1 2CW      0.087000
     20 C20        -4.1980   -4.8500   -7.2180 c1        1 2CW     -0.204000
     21 C21        -3.6720   -3.9940   -6.2620 c1        1 2CW     -0.057000
     22 N22        -4.0990   -6.9250   -8.4770 n3        1 2CW     -0.337000
     23 C23         1.3240    0.4240   -0.8620 c1        1 2CW     -0.115000
     24 C24         1.8600    1.2080    0.1490 c1        1 2CW     -0.076000
     25 O25         2.8270    2.7820    2.2810 o         1 2CW     -0.377000
     26 C26         1.7770    4.6270    4.4790 c3        1 2CW      0.045000
     27 O27         2.6590    4.8220    3.3990 oh        1 2CW     -0.346000
     28 C28         2.3560    5.2650    5.7250 c3        1 2CW     -0.217000
     29 C29         0.7190    2.9390    5.9330 c3        1 2CW     -0.221000
     30 H3          0.0700    2.3680    3.6020 hn        1 2CW      0.229000
     31 H4         -0.6530    1.0740    2.2560 ha        1 2CW      0.140000
     32 H5         -1.5680   -0.2620    0.5340 ha        1 2CW      0.147000
     33 H6         -0.9860   -5.7160   -5.4920 ha        1 2CW      0.141000
     34 H7         -1.8820   -7.1750   -7.1200 ha        1 2CW      0.136000
     35 H8         -5.0350   -4.6240   -7.6670 ha        1 2CW      0.136000
     36 H9         -4.1390   -3.1660   -6.0390 ha        1 2CW      0.140000
     37 H10        -3.7320   -7.7540   -8.5940 hn        1 2CW      0.195000
     38 H11        -4.8370   -6.6800   -8.9580 hn        1 2CW      0.195000
     39 H12         1.8380    0.2550   -1.6730 ha        1 2CW      0.150000
     40 H13         2.7530    1.5900    0.0480 ha        1 2CW      0.159000
     41 H14         0.9150    5.0380    4.2740 h1        1 2CW      0.106000
     42 H15         2.5410    5.6380    3.0630 ho        1 2CW      0.240000
     43 H16         1.6800    5.2670    6.4350 hc        1 2CW      0.089667
     44 H17         2.6250    6.1860    5.5260 hc        1 2CW      0.089667
     45 H18         3.1390    4.7530    6.0200 hc        1 2CW      0.089667
     46 H19         0.4550    1.9980    5.9880 hc        1 2CW      0.096667
     47 H20        -0.0830    3.4990    5.8630 hc        1 2CW      0.096667
     48 H21         1.2220    3.1860    6.7380 hc        1 2CW      0.096667
@<TRIPOS>BOND
     1    1    2 1   
     2    2    5 1   
     3    3    4 1   
     4    5    6 1   
     5    5   26 1   
     6    5   29 1   
     7    6    7 1   
     8    6   30 1   
     9    7    8 1   
    10    7   25 1   
    11    8    9 1   
    12    8   24 1   
    13    9   10 1   
    14    9   31 1   
    15   10   32 1   
    16   11   12 1   
    17   11   23 1   
    18   12   13 1   
    19   14   15 1   
    20   16   17 1   
    21   16   21 1   
    22   17   18 1   
    23   17   33 1   
    24   18   34 1   
    25   19   20 1   
    26   19   22 1   
    27   20   35 1   
    28   21   36 1   
    29   22   37 1   
    30   22   38 1   
    31   23   39 1   
    32   24   40 1   
    33   26   27 1   
    34   26   28 1   
    35   26   41 1   
    36   27   42 1   
    37   28   43 1   
    38   28   44 1   
    39   28   45 1   
    40   29   46 1   
    41   29   47 1   
    42   29   48 1   
@<TRIPOS>SUBSTRUCTURE
     1 2CW         1 TEMP              0 ****  ****    0 ROOT
