@<TRIPOS>MOLECULE
2CW
   48    49     1     0     0
SMALL
bcc


@<TRIPOS>ATOM
      1 O01        -7.4430    1.4080   -0.8390 o         1 2CW     -0.507100
      2 C02        -6.2580    1.2680   -0.5190 c         1 2CW      0.550500
      3 N03        -5.4130    2.4680   -0.2800 ne        1 2CW     -0.019100
      4 O04        -5.3790    2.9510    0.7640 o         1 2CW     -0.075300
      5 C05        -5.6050   -0.1440   -0.4950 c3        1 2CW      0.023400
      6 N06        -4.1840   -0.0450   -0.2170 n         1 2CW     -0.562900
      7 C07        -3.4100   -0.9190    0.5400 c         1 2CW      0.679700
      8 C08        -1.9310   -0.7220    0.4490 ca        1 2CW     -0.148600
      9 C09        -1.1180   -1.8620    0.4550 ca        1 2CW     -0.092000
     10 C10         0.2660   -1.7340    0.3820 ca        1 2CW     -0.116000
     11 C11         0.8540   -0.4590    0.3140 ca        1 2CW      0.056000
     12 C12         2.2500   -0.3260    0.2390 cg        1 2CW     -0.108000
     13 C13         3.4450   -0.2120    0.1750 ch        1 2CW     -0.002000
     14 C14         4.7860   -0.0850    0.1020 ch        1 2CW     -0.074000
     15 C15         5.9810    0.0290    0.0380 cg        1 2CW     -0.038000
     16 C16         7.3760    0.1610   -0.0360 ca        1 2CW     -0.045000
     17 C17         7.9680    1.4320   -0.1300 ca        1 2CW     -0.056000
     18 C18         9.3460    1.5690   -0.2070 ca        1 2CW     -0.204000
     19 C19        10.1860    0.4280   -0.1820 ca        1 2CW      0.170600
     20 C20         9.5810   -0.8510   -0.0930 ca        1 2CW     -0.204000
     21 C21         8.2020   -0.9750   -0.0180 ca        1 2CW     -0.056000
     22 N22        11.5700    0.5630   -0.1680 nh        1 2CW     -0.829200
     23 C23         0.0330    0.6820    0.3270 ca        1 2CW     -0.116000
     24 C24        -1.3510    0.5490    0.3930 ca        1 2CW     -0.092000
     25 O25        -3.8900   -1.8020    1.2740 o         1 2CW     -0.586100
     26 C26        -6.4220   -0.9760    0.5570 c3        1 2CW      0.149100
     27 O27        -7.7210   -1.2360    0.0690 oh        1 2CW     -0.591800
     28 C28        -6.4600   -0.2960    1.9120 c3        1 2CW     -0.133100
     29 C29        -5.8650   -0.7570   -1.8850 c3        1 2CW     -0.116100
     30 H3         -3.6840    0.4510   -0.9250 hn        1 2CW      0.309500
     31 H4         -1.5830   -2.8580    0.5290 ha        1 2CW      0.150000
     32 H5          0.9030   -2.6310    0.3840 ha        1 2CW      0.149000
     33 H6          7.3300    2.3290   -0.1450 ha        1 2CW      0.140000
     34 H7          9.7840    2.5750   -0.2770 ha        1 2CW      0.136000
     35 H8         10.2060   -1.7560   -0.0740 ha        1 2CW      0.136000
     36 H9          7.7490   -1.9760    0.0560 ha        1 2CW      0.140000
     37 H10        11.9210    1.4210   -0.5260 hn        1 2CW      0.400800
     38 H11        12.0830   -0.2410   -0.4480 hn        1 2CW      0.400800
     39 H12         0.4890    1.6830    0.2870 ha        1 2CW      0.149000
     40 H13        -1.9760    1.4550    0.4200 ha        1 2CW      0.150000
     41 H14        -5.9610   -2.0050    0.6390 h1        1 2CW      0.121700
     42 H15        -8.2210   -0.4070    0.0650 ho        1 2CW      0.414000
     43 H16        -6.8030    0.7630    1.8270 hc        1 2CW      0.053367
     44 H17        -7.1700   -0.8450    2.5780 hc        1 2CW      0.053367
     45 H18        -5.4450   -0.3180    2.3770 hc        1 2CW      0.053367
     46 H19        -5.3260   -0.1930   -2.6820 hc        1 2CW      0.061700
     47 H20        -5.5310   -1.8210   -1.8940 hc        1 2CW      0.061700
     48 H21        -6.9630   -0.7270   -2.0970 hc        1 2CW      0.061700
@<TRIPOS>BOND
     1    1    2 2   
     2    2    3 1   
     3    2    5 1   
     4    3    4 2   
     5    5    6 1   
     6    5   26 1   
     7    5   29 1   
     8    6    7 1   
     9    6   30 1   
    10    7    8 1   
    11    7   25 2   
    12    8    9 ar  
    13    8   24 ar  
    14    9   10 ar  
    15    9   31 1   
    16   10   11 ar  
    17   10   32 1   
    18   11   12 1   
    19   11   23 ar  
    20   12   13 3   
    21   13   14 1   
    22   14   15 3   
    23   15   16 1   
    24   16   17 ar  
    25   16   21 ar  
    26   17   18 ar  
    27   17   33 1   
    28   18   19 ar  
    29   18   34 1   
    30   19   20 ar  
    31   19   22 1   
    32   20   21 ar  
    33   20   35 1   
    34   21   36 1   
    35   22   37 1   
    36   22   38 1   
    37   23   24 ar  
    38   23   39 1   
    39   24   40 1   
    40   26   27 1   
    41   26   28 1   
    42   26   41 1   
    43   27   42 1   
    44   28   43 1   
    45   28   44 1   
    46   28   45 1   
    47   29   46 1   
    48   29   47 1   
    49   29   48 1   
@<TRIPOS>SUBSTRUCTURE
     1 2CW         1 TEMP              0 ****  ****    0 ROOT
