@<TRIPOS>MOLECULE
2CX
   51    49     1     0     0
SMALL
bcc


@<TRIPOS>ATOM
      1 C10         0.2210   -1.5160    0.5490 c2        1 2CX     -0.086000
      2 C13         1.3800   -0.2310    2.8910 c1        1 2CX      0.023000
      3 C15         3.1420    0.5440    1.1650 c2        1 2CX      0.031000
      4 C17         7.0640   -0.4530    2.7470 c1        1 2CX      0.461000
      5 C20         3.9280    1.4350    2.0380 c3        1 2CX     -0.174000
      6 C21         1.3810   -3.8140   -6.2260 c3        1 2CX     -0.168000
      7 C22         2.8570   -3.7390   -6.5640 c2        1 2CX      0.232000
      8 C24         2.5950   -4.8550   -8.7270 c1        1 2CX     -0.212000
      9 O01        -1.9570   -2.8250   -4.9060 o         1 2CX     -0.510400
     10 S02        -1.1070   -3.4810   -4.0480 s4        1 2CX      2.133800
     11 C04         3.2190    1.1270   -6.6060 c2        1 2CX     -0.286000
     12 C05         2.4800    0.7460   -5.5620 c2        1 2CX     -0.050000
     13 O06         2.6740   -0.4220   -4.8500 oh        1 2CX     -0.349000
     14 N08         2.1750   -0.4880   -0.6870 n3        1 2CX      0.041000
     15 C09         1.4530   -0.9600    0.4690 c2        1 2CX     -0.103000
     16 C11        -0.4300   -1.5300    1.8450 c2        1 2CX     -0.029000
     17 C12         0.0860   -0.8480    2.9050 c2        1 2CX     -0.206000
     18 C14         2.2000   -0.5020    1.7120 c3        1 2CX     -0.139000
     19 C16         3.1350    0.4840   -0.1990 c2        1 2CX     -0.190000
     20 C18         5.8430   -0.2180    2.2500 c2        1 2CX     -0.552000
     21 C19         5.2460    1.0340    2.4810 c1        1 2CX     -0.028000
     22 C23         3.3710   -4.7740   -7.5290 c3        1 2CX     -0.092000
     23 C25         1.9820   -4.9480   -9.7510 c1        1 2CX     -0.147000
     24 O26         3.6050   -2.9050   -6.0380 o         1 2CX     -0.336000
     25 C27        -0.7060   -2.8630   -2.8090 c2        1 2CX     -1.531000
     26 O28        -0.7880   -4.7980   -4.2930 o         1 2CX     -0.510400
     27 H1         -0.3460   -1.8860   -0.3240 ha        1 2CX      0.178000
     28 H2          2.8420   -1.3710    2.1060 hc        1 2CX      0.212000
     29 H3          3.7140    1.0520   -0.9360 h4        1 2CX      0.212000
     30 H4          4.0480    2.4460    1.5430 hc        1 2CX      0.184500
     31 H5          1.2110   -4.7820   -5.6610 h1        1 2CX      0.152000
     32 H6          0.7990   -3.8860   -7.1910 h1        1 2CX      0.152000
     33 H7          3.3630   -5.7720   -6.9990 hc        1 2CX      0.139000
     34 H8          0.5580   -1.9690   -5.9970 hn        1 2CX      0.176000
     35 H9          3.0180    2.0680   -7.1330 ha        1 2CX      0.141000
     36 H10         4.0540    0.5320   -6.9970 ha        1 2CX      0.141000
     37 H11         3.3970   -0.9260   -5.2610 ho        1 2CX      0.249000
     38 H12         1.6290    1.2990   -5.1350 h4        1 2CX      0.157000
     39 H13         2.6000   -0.3620   -2.7390 h4        1 2CX      0.219500
     40 H14        -1.4000   -2.0570    1.9060 ha        1 2CX      0.172000
     41 H15        -0.4890   -0.7520    3.8450 ha        1 2CX      0.189000
     42 H16         5.3460   -1.0280    1.6750 ha        1 2CX      0.148000
     43 H17         3.3370    1.6130    2.9970 hc        1 2CX      0.184500
     44 H18         4.4440   -4.5380   -7.7860 hc        1 2CX      0.139000
     45 H19         1.4380   -5.0340  -10.6590 ha        1 2CX      0.238000
     46 H20         1.2100   -1.5690   -2.2120 h4        1 2CX      0.219500
     47 H21        -1.0140   -1.8630   -2.4740 h4        1 2CX      0.190500
     48 H22        -0.1330   -3.3560   -2.0130 h4        1 2CX      0.190500
     49 C07         1.9890   -0.8220   -1.9280 c2        1 2CX      0.016000
     50 H031        1.5670   -2.3870   -4.7920 hn        1 2CX      0.176000
     51 N03         0.8550   -2.7340   -5.4150 n3        1 2CX     -0.401000
@<TRIPOS>BOND
     1    1   15 1   
     2    1   16 1   
     3    1   27 1   
     4    2   17 1   
     5    2   18 1   
     6    3    5 1   
     7    3   18 1   
     8    3   19 1   
     9    4   20 1   
    10    5   21 1   
    11    5   30 1   
    12    5   43 1   
    13    6    7 1   
    14    6   31 1   
    15    6   32 1   
    16    6   51 1   
    17    7   22 1   
    18    7   24 1   
    19    8   22 1   
    20    8   23 1   
    21    9   10 1   
    22   10   25 1   
    23   10   26 1   
    24   11   12 1   
    25   11   35 1   
    26   11   36 1   
    27   12   13 1   
    28   12   38 1   
    29   13   37 1   
    30   14   15 1   
    31   14   19 1   
    32   14   49 1   
    33   15   18 1   
    34   16   17 1   
    35   16   40 1   
    36   17   41 1   
    37   18   28 1   
    38   19   29 1   
    39   20   21 1   
    40   20   42 1   
    41   22   33 1   
    42   22   44 1   
    43   23   45 1   
    44   25   47 1   
    45   25   48 1   
    46   34   51 1   
    47   39   49 1   
    48   46   49 1   
    49   50   51 1   
@<TRIPOS>SUBSTRUCTURE
     1 2CX         1 TEMP              0 ****  ****    0 ROOT
