@<TRIPOS>MOLECULE
2CX
   51    52     1     0     0
SMALL
bcc


@<TRIPOS>ATOM
      1 C10         0.1020    0.1840   -0.9510 c2        1 2CX     -0.254000
      2 C13         0.8940    1.5390    1.5010 c1        1 2CX     -0.047000
      3 C15         3.0120    0.0510    1.2180 c2        1 2CX     -0.105000
      4 C17         7.1380    0.0240    0.7530 c1        1 2CX     -0.163000
      5 C20         3.7810    0.5620    2.3660 c3        1 2CX     -0.098000
      6 C21         2.4490   -3.8280   -6.2430 c3        1 2CX     -0.078000
      7 C22         2.2720   -2.5770   -7.0520 c2        1 2CX     -0.054000
      8 C24         0.1080   -0.5790   -8.8000 c1        1 2CX     -0.139000
      9 O01        -0.6160   -3.1310   -4.4190 o         1 2CX     -0.835000
     10 S02         0.0270   -4.2890   -4.7880 s6        1 2CX      2.779000
     11 C04         2.1230   -2.4570   -4.2320 c3        1 2CX     -0.141000
     12 C05         1.9000   -2.4420   -2.7040 c3        1 2CX     -0.005000
     13 O06         2.4350   -3.6480   -2.1800 oh        1 2CX     -0.382000
     14 N08         2.3230   -1.0040   -0.7360 n3        1 2CX     -0.213000
     15 C09         1.2270   -0.2240   -0.2980 c2        1 2CX      0.029000
     16 C11        -0.6610    1.2520   -0.3730 c2        1 2CX      0.016000
     17 C12        -0.2250    1.9400    0.7310 c2        1 2CX     -0.262000
     18 C14         1.5260    0.2820    1.1100 c3        1 2CX     -0.115000
     19 C16         3.4150   -0.6970    0.1500 c2        1 2CX     -0.109000
     20 C18         6.1520    0.2550    1.4320 c1        1 2CX     -0.161000
     21 C19         5.2070    0.5770    2.3150 c1        1 2CX     -0.024000
     22 C23         3.2400   -1.9680   -7.7400 c2        1 2CX     -0.188000
     23 C25         0.5520   -1.3240   -7.9810 c1        1 2CX     -0.108000
     24 O26         0.9260   -2.1650   -7.0130 os        1 2CX     -0.099000
     25 C27         0.1590   -5.3690   -3.5530 c3        1 2CX     -1.053000
     26 O28        -0.1760   -4.9120   -5.9980 o         1 2CX     -0.835000
     27 H1         -0.1980   -0.2080   -1.9320 ha        1 2CX      0.136000
     28 H2          1.0130   -0.4280    1.8530 hc        1 2CX      0.197000
     29 H3          4.4150   -1.0780   -0.0810 h4        1 2CX      0.179000
     30 H4          3.4890   -0.0110    3.3020 hc        1 2CX      0.181000
     31 H5          3.5550   -4.0460   -6.1770 hx        1 2CX      0.159500
     32 H6          1.9440   -4.6830   -6.7920 hx        1 2CX      0.159500
     33 H7          3.0370   -1.0990   -8.3840 ha        1 2CX      0.159500
     34 H8          3.1820   -2.1400   -4.4540 hx        1 2CX      0.155500
     35 H9          1.4180   -1.7100   -4.7060 hx        1 2CX      0.155500
     36 H10         0.7930   -2.4190   -2.4810 h1        1 2CX      0.120000
     37 H11         2.6960   -3.4990   -1.2610 ho        1 2CX      0.264000
     38 H12         2.2030   -0.2950   -2.7350 h1        1 2CX      0.113000
     39 H13         3.6960   -1.2700   -2.3040 h1        1 2CX      0.113000
     40 H14        -1.5860    1.5470   -0.8980 ha        1 2CX      0.141000
     41 H15        -0.7590    2.8470    1.0620 ha        1 2CX      0.163000
     42 H16         8.0380   -0.1520    0.2200 ha        1 2CX      0.230000
     43 H17         3.4460    1.6330    2.5710 hc        1 2CX      0.181000
     44 H18         4.2830   -2.3130   -7.7160 ha        1 2CX      0.159500
     45 H19        -0.2990    0.0820   -9.5260 ha        1 2CX      0.261000
     46 H20         0.7470   -5.0280   -2.6500 h1        1 2CX      0.216000
     47 H21         0.6030   -6.3640   -3.8350 h1        1 2CX      0.216000
     48 H22        -0.8500   -5.6360   -3.1170 h1        1 2CX      0.216000
     49 C07         2.5840   -1.1750   -2.1400 c3        1 2CX     -0.061000
     50 H031        2.4130   -4.4640   -4.3100 hn        1 2CX      0.249000
     51 N03         1.8840   -3.7810   -4.8640 nx        1 2CX     -0.420000
@<TRIPOS>BOND
     1    1   15 1   
     2    1   16 1   
     3    1   27 1   
     4    2   17 1   
     5    2   18 1   
     6    3    5 1   
     7    3   18 1   
     8    3   19 1   
     9    4   20 1   
    10    4   42 1   
    11    5   21 1   
    12    5   30 1   
    13    5   43 1   
    14    6    7 1   
    15    6   31 1   
    16    6   32 1   
    17    6   51 1   
    18    7   22 1   
    19    7   24 1   
    20    8   23 1   
    21    8   45 1   
    22    9   10 1   
    23   10   25 1   
    24   10   26 1   
    25   10   51 1   
    26   11   12 1   
    27   11   34 1   
    28   11   35 1   
    29   11   51 1   
    30   12   13 1   
    31   12   36 1   
    32   12   49 1   
    33   13   37 1   
    34   14   15 1   
    35   14   19 1   
    36   14   49 1   
    37   15   18 1   
    38   16   17 1   
    39   16   40 1   
    40   17   41 1   
    41   18   28 1   
    42   19   29 1   
    43   20   21 1   
    44   22   33 1   
    45   22   44 1   
    46   23   24 1   
    47   25   46 1   
    48   25   47 1   
    49   25   48 1   
    50   38   49 1   
    51   39   49 1   
    52   50   51 1   
@<TRIPOS>SUBSTRUCTURE
     1 2CX         1 TEMP              0 ****  ****    0 ROOT
