@<TRIPOS>MOLECULE
2CX
   50    53     1     0     0
SMALL
bcc


@<TRIPOS>ATOM
      1 C10        -2.9110    2.2190    0.7830 ca        1 2CX     -0.159000
      2 C13        -5.2220    1.1970   -0.5290 ca        1 2CX     -0.076000
      3 C15        -4.1190   -1.1210   -0.0690 cp        1 2CX     -0.071000
      4 C17        -2.4530   -2.7530    0.7380 ca        1 2CX     -0.159000
      5 C20        -4.9160   -2.1470   -0.5550 ca        1 2CX     -0.076000
      6 C21         3.0260   -0.2500   -1.0530 c3        1 2CX      0.188500
      7 C22         3.7570   -1.3380   -0.3530 cc        1 2CX      0.213000
      8 C24         4.7060   -3.2430    0.4330 cd        1 2CX     -0.269300
      9 O01         2.7970    2.9560    0.9630 o         1 2CX     -0.648300
     10 S02         2.9570    2.3290   -0.2910 s6        1 2CX      1.458900
     11 C04         1.4870    0.3450    0.7530 c3        1 2CX      0.182800
     12 C05         0.0610    0.1600    0.1850 c3        1 2CX      0.084100
     13 O06         0.0180   -0.8770   -0.7730 oh        1 2CX     -0.581800
     14 N08        -2.2770   -0.2320    1.0690 na        1 2CX     -0.065300
     15 C09        -3.0800    0.8420    0.6130 ca        1 2CX     -0.006200
     16 C11        -3.9030    3.0670    0.2930 ca        1 2CX     -0.101000
     17 C12        -5.0390    2.5690   -0.3520 ca        1 2CX     -0.157500
     18 C14        -4.2530    0.3250   -0.0570 cp        1 2CX     -0.071000
     19 C16        -2.8700   -1.4270    0.5920 ca        1 2CX     -0.006200
     20 C18        -3.2770   -3.7590    0.2340 ca        1 2CX     -0.101000
     21 C19        -4.4870   -3.4660   -0.4000 ca        1 2CX     -0.157500
     22 C23         3.6960   -2.7160   -0.4570 cd        1 2CX     -0.251300
     23 C25         5.3160   -2.1560    1.0270 cc        1 2CX      0.246600
     24 O26         4.7510   -0.9710    0.5610 os        1 2CX     -0.348800
     25 C27         1.8230    3.0270   -1.3550 c3        1 2CX     -0.362300
     26 O28         4.2220    2.4220   -0.9030 o         1 2CX     -0.648300
     27 H1         -2.0270    2.6260    1.2930 ha        1 2CX      0.132000
     28 H2         -6.1200    0.8110   -1.0330 ha        1 2CX      0.137000
     29 H3         -1.5080   -3.0030    1.2370 ha        1 2CX      0.132000
     30 H4         -5.8700   -1.9220   -1.0530 ha        1 2CX      0.137000
     31 H5          3.7480    0.2420   -1.7750 h1        1 2CX      0.085200
     32 H6          2.1920   -0.7370   -1.6440 h1        1 2CX      0.085200
     33 H7          4.9280   -4.2950    0.5870 ha        1 2CX      0.163000
     34 H8          1.8150   -0.6370    1.2030 h1        1 2CX      0.072200
     35 H9          1.4420    1.1090    1.5850 h1        1 2CX      0.072200
     36 H10        -0.2690    1.0740   -0.3870 h1        1 2CX      0.086700
     37 H11         0.1220   -1.7140   -0.3030 ho        1 2CX      0.401000
     38 H12        -0.5580   -1.0410    1.9010 h1        1 2CX      0.068700
     39 H13        -0.7830    0.7660    2.0960 h1        1 2CX      0.068700
     40 H14        -3.7860    4.1540    0.4180 ha        1 2CX      0.132000
     41 H15        -5.8010    3.2700   -0.7240 ha        1 2CX      0.134000
     42 H16        -2.9640   -4.8090    0.3410 ha        1 2CX      0.132000
     43 H17        -5.1100   -4.2870   -0.7840 ha        1 2CX      0.134000
     44 H18         3.0330   -3.3030   -1.0850 ha        1 2CX      0.162000
     45 H19         6.1120   -2.0160    1.7520 h4        1 2CX      0.057100
     46 H20         2.0990    4.0910   -1.5670 h1        1 2CX      0.114367
     47 H21         1.7650    2.5180   -2.3480 h1        1 2CX      0.114367
     48 H22         0.7840    3.0500   -0.9460 h1        1 2CX      0.114367
     49 C07        -0.8870   -0.0980    1.3780 c3        1 2CX      0.008300
     50 N03         2.4700    0.7720   -0.2040 n3        1 2CX     -0.799500
@<TRIPOS>BOND
     1    1   15 ar  
     2    1   16 ar  
     3    1   27 1   
     4    2   17 ar  
     5    2   18 ar  
     6    2   28 1   
     7    3    5 ar  
     8    3   18 1   
     9    3   19 ar  
    10    4   19 ar  
    11    4   20 ar  
    12    4   29 1   
    13    5   21 ar  
    14    5   30 1   
    15    6    7 1   
    16    6   31 1   
    17    6   32 1   
    18    6   50 1   
    19    7   22 2   
    20    7   24 1   
    21    8   22 1   
    22    8   23 2   
    23    8   33 1   
    24    9   10 2   
    25   10   25 1   
    26   10   26 2   
    27   10   50 1   
    28   11   12 1   
    29   11   34 1   
    30   11   35 1   
    31   11   50 1   
    32   12   13 1   
    33   12   36 1   
    34   12   49 1   
    35   13   37 1   
    36   14   15 1   
    37   14   19 1   
    38   14   49 1   
    39   15   18 ar  
    40   16   17 ar  
    41   16   40 1   
    42   17   41 1   
    43   20   21 ar  
    44   20   42 1   
    45   21   43 1   
    46   22   44 1   
    47   23   24 1   
    48   23   45 1   
    49   25   46 1   
    50   25   47 1   
    51   25   48 1   
    52   38   49 1   
    53   39   49 1   
@<TRIPOS>SUBSTRUCTURE
     1 2CX         1 TEMP              0 ****  ****    0 ROOT
