@<TRIPOS>MOLECULE
2CX
   50    41     1     0     0
SMALL
bcc


@<TRIPOS>ATOM
      1 C10        -1.8060    1.1900    3.3430 c1        1 2CX     -0.125167
      2 C13        -0.1060    1.3550    5.5200 c1        1 2CX     -0.125167
      3 C15         1.7270    1.4830    3.7160 c1        1 2CX     -0.075000
      4 C17         2.8710    1.5690    1.6050 c1        1 2CX     -0.167000
      5 C20         2.9720    1.5680    4.3770 c1        1 2CX     -0.076000
      6 C21         0.4740   -1.3960   -2.9220 c3        1 2CX      0.035000
      7 C22         0.1210   -1.7030   -4.3820 c2        1 2CX     -0.088000
      8 C24         0.2480   -2.4380   -6.4840 c1        1 2CX     -0.200000
      9 O01        -1.6130   -3.4080   -2.3810 o         1 2CX     -0.932000
     10 S02        -2.0010   -2.0180   -2.0500 ss        1 2CX      2.808000
     11 N03        -0.6990   -0.9590   -2.2330 n2        1 2CX     -0.821000
     12 C04        -0.7020    0.3270   -1.5440 c3        1 2CX     -0.011000
     13 C05        -0.2510    0.1400   -0.1060 c3        1 2CX     -0.016000
     14 O06         1.0030   -0.4900   -0.0840 oh        1 2CX     -0.333000
     15 C07        -0.1520    1.5240    0.5870 c3        1 2CX     -0.048000
     16 N08         0.3560    1.3490    1.9880 n3        1 2CX     -0.194000
     17 C09        -0.4110    1.2650    3.1410 c1        1 2CX      0.040000
     18 C11        -2.3200    1.1990    4.6320 c1        1 2CX     -0.125167
     19 C12        -1.4640    1.2810    5.7190 c1        1 2CX     -0.125167
     20 C14         0.4210    1.3460    4.2000 c1        1 2CX     -0.079000
     21 C16         1.6740    1.4830    2.3620 c1        1 2CX      0.031000
     22 C18         4.0930    1.6520    2.2530 c1        1 2CX     -0.125167
     23 C19         4.1410    1.6520    3.6460 c1        1 2CX     -0.125167
     24 C23         0.9210   -2.3790   -5.2940 c1        1 2CX     -0.183000
     25 C25        -0.9660   -1.8020   -6.3180 c1        1 2CX     -0.090000
     26 O26        -1.0390   -1.3510   -5.0180 os        1 2CX     -0.099000
     27 C27        -3.3950   -1.4770   -3.0520 c2        1 2CX     -0.947000
     28 O28        -2.3840   -2.1580   -0.6240 o         1 2CX     -0.932000
     29 H1         -2.3960    1.1340    2.5920 ha        1 2CX      0.135667
     30 H2          0.4860    1.4110    6.2730 ha        1 2CX      0.135667
     31 H3          2.8330    1.5670    0.6470 ha        1 2CX      0.143000
     32 H4          3.0050    1.5670    5.3130 ha        1 2CX      0.137000
     33 H5          0.8120   -2.1870   -2.5030 h1        1 2CX      0.138000
     34 H6          1.1550   -0.6950   -2.8890 h1        1 2CX      0.138000
     35 H7          0.5760   -2.8620   -7.3200 DU        1 2CX      0.174333
     36 H8         -1.5930    0.6960   -1.5540 h1        1 2CX      0.111000
     37 H9         -0.1310    0.9010   -1.9710 h1        1 2CX      0.111000
     38 H10        -0.8870   -0.4020    0.3580 h1        1 2CX      0.102000
     39 H11         0.9410   -1.2740    0.3600 ho        1 2CX      0.215000
     40 H12        -1.0520    1.9470    0.6080 h1        1 2CX      0.112000
     41 H13         0.5000    2.1280    0.0590 h1        1 2CX      0.112000
     42 H14        -3.2810    1.1490    4.7740 ha        1 2CX      0.135667
     43 H15        -1.8310    1.2890    6.6420 ha        1 2CX      0.135667
     44 H16         4.9290    1.7130    1.7280 ha        1 2CX      0.135667
     45 H17         5.0270    1.7120    4.1210 ha        1 2CX      0.135667
     46 H18         1.8170   -2.7530   -5.1160 DU        1 2CX      0.174333
     47 H19        -1.6560   -1.6920   -7.0050 DU        1 2CX      0.174333
     48 H20        -4.2570   -1.7330   -2.5960 ha        1 2CX      0.157000
     49 H21        -3.3610   -0.4990   -3.1640 ha        1 2CX      0.157000
     50 H22        -3.3510   -1.9220   -3.9530 ha        1 2CX      0.157000
@<TRIPOS>BOND
     1    1   18 1   
     2    1   29 1   
     3    2   19 1   
     4    2   30 1   
     5    3    5 1   
     6    4   21 1   
     7    4   31 1   
     8    5   32 1   
     9    6    7 1   
    10    6   11 1   
    11    6   33 1   
    12    6   34 1   
    13    7   24 1   
    14    7   26 1   
    15    8   24 1   
    16    8   25 1   
    17    9   10 1   
    18   10   28 1   
    19   11   12 1   
    20   12   13 1   
    21   12   36 1   
    22   12   37 1   
    23   13   14 1   
    24   13   15 1   
    25   13   38 1   
    26   14   39 1   
    27   15   16 1   
    28   15   40 1   
    29   15   41 1   
    30   16   17 1   
    31   16   21 1   
    32   17   20 1   
    33   18   42 1   
    34   19   43 1   
    35   22   23 1   
    36   22   44 1   
    37   23   45 1   
    38   25   26 1   
    39   27   48 1   
    40   27   49 1   
    41   27   50 1   
@<TRIPOS>SUBSTRUCTURE
     1 2CX         1 TEMP              0 ****  ****    0 ROOT
