@<TRIPOS>MOLECULE
2CY
   41    37     1     0     0
SMALL
bcc


@<TRIPOS>ATOM
      1 N1          0.4530    0.3940   -6.0010 n1        1 2CY     -0.279000
      2 C2          1.8000    0.1470   -6.0670 c1        1 2CY      0.200000
      3 N3          2.5140   -0.0780   -4.9170 n1        1 2CY     -0.321000
      4 C4          1.8920   -0.0560   -3.7160 c1        1 2CY      0.240000
      5 C5          0.5290    0.1930   -3.6460 c1        1 2CY     -0.224000
      6 C6         -0.1810    0.4160   -4.7900 c1        1 2CY      0.116000
      7 C7         -0.1410    0.0980   -2.4050 c2        1 2CY      0.140000
      8 C8         -1.5250    0.2330   -2.3500 c1        1 2CY     -0.248000
      9 C9         -2.2480    0.4600   -3.5150 c1        1 2CY     -0.065000
     10 C10        -1.5910    0.5530   -4.7330 c2        1 2CY     -0.162000
     11 N11         2.4710    0.1780   -7.3280 n3        1 2CY     -0.325000
     12 N12         2.6230   -0.3930   -2.5200 n3        1 2CY     -0.350000
     13 O13         0.5910    0.0840   -1.1600 os        1 2CY     -0.243000
     14 C14        -0.2300   -0.0920   -0.0100 c3        1 2CY     -0.015000
     15 C15         0.6570   -0.1700    1.2470 c3        1 2CY     -0.177000
     16 C16        -0.2230   -0.1810    2.4940 c3        1 2CY     -0.019000
     17 O17         0.5920   -0.1440    3.6430 os        1 2CY     -0.210000
     18 C18        -0.1350   -0.1220    4.8660 c2        1 2CY      0.106000
     19 C19        -0.5380    1.0890    5.4130 c2        1 2CY     -0.220000
     20 C20        -1.2810    1.1090    6.5840 c1        1 2CY     -0.070000
     21 C21        -1.6230   -0.0830    7.2100 c1        1 2CY     -0.199000
     22 C22        -1.2200   -1.2920    6.6650 c1        1 2CY      0.124000
     23 C23        -0.4750   -1.3120    5.4910 c1        1 2CY     -0.196000
     24 F24        -1.5430   -2.4420    7.2720 f         1 2CY     -0.102000
     25 H8         -1.9870    0.1670   -1.4940 ha        1 2CY      0.137000
     26 H9         -3.2260    0.5550   -3.4760 ha        1 2CY      0.135000
     27 H10        -2.0970    0.7120   -5.5470 ha        1 2CY      0.154000
     28 HN11        2.0610    0.5570   -8.0580 hn        1 2CY      0.221000
     29 HN1A        3.3070   -0.1720   -7.4070 hn        1 2CY      0.221000
     30 HN12        2.1990   -0.3960   -1.7110 hn        1 2CY      0.236500
     31 HN1B        3.5100   -0.6310   -2.5750 hn        1 2CY      0.236500
     32 H14        -0.8480    0.6700    0.0710 h1        1 2CY      0.087000
     33 H14A       -0.7460   -0.9250   -0.0990 h1        1 2CY      0.087000
     34 H15         1.1930   -0.9920    1.2180 hc        1 2CY      0.111500
     35 H15A        1.2510    0.6070    1.2750 hc        1 2CY      0.111500
     36 H16        -0.7670   -1.0000    2.5050 h1        1 2CY      0.083000
     37 H16A       -0.8140    0.6040    2.4860 h1        1 2CY      0.083000
     38 H19        -0.2980    1.9280    4.9720 ha        1 2CY      0.140000
     39 H20        -1.5650    1.9610    6.9690 ha        1 2CY      0.139000
     40 H21        -2.1480   -0.0690    8.0390 ha        1 2CY      0.151000
     41 H23        -0.1920   -2.1630    5.1070 ha        1 2CY      0.166000
@<TRIPOS>BOND
     1    1    6 1   
     2    2    3 1   
     3    2   11 1   
     4    4    5 1   
     5    4   12 1   
     6    5    7 1   
     7    6   10 1   
     8    7    8 1   
     9    7   13 1   
    10    8   25 1   
    11    9   10 1   
    12    9   26 1   
    13   10   27 1   
    14   11   28 1   
    15   11   29 1   
    16   12   30 1   
    17   12   31 1   
    18   13   14 1   
    19   14   15 1   
    20   14   32 1   
    21   14   33 1   
    22   15   16 1   
    23   15   34 1   
    24   15   35 1   
    25   16   17 1   
    26   16   36 1   
    27   16   37 1   
    28   17   18 1   
    29   18   19 1   
    30   18   23 1   
    31   19   20 1   
    32   19   38 1   
    33   20   39 1   
    34   21   22 1   
    35   21   40 1   
    36   22   24 1   
    37   23   41 1   
@<TRIPOS>SUBSTRUCTURE
     1 2CY         1 TEMP              0 ****  ****    0 ROOT
