@<TRIPOS>MOLECULE
2CY
   41    43     1     0     0
SMALL
bcc


@<TRIPOS>ATOM
      1 N1          0.2010    0.3310    0.0440 nb        1 2CY     -0.805000
      2 C2          1.5560    0.2210    0.1990 ca        1 2CY      0.918900
      3 N3          2.2220    0.0590    1.4150 nb        1 2CY     -0.847000
      4 C4          1.4620   -0.0570    2.5320 ca        1 2CY      0.761200
      5 C5         -0.0000   -0.0710    2.4680 ca        1 2CY     -0.354600
      6 C6         -0.5630    0.1730    1.1700 ca        1 2CY      0.509600
      7 C7         -0.8990   -0.2970    3.5500 ca        1 2CY      0.185100
      8 C8         -2.2720   -0.2170    3.3830 ca        1 2CY     -0.249000
      9 C9         -2.8060    0.0760    2.1130 ca        1 2CY     -0.065000
     10 C10        -1.9890    0.2600    1.0300 ca        1 2CY     -0.227300
     11 N11         2.3520    0.2220   -0.9530 nh        1 2CY     -0.927500
     12 N12         2.1360   -0.0840    3.7320 nh        1 2CY     -0.952500
     13 O13        -0.3470   -0.6710    4.7630 os        1 2CY     -0.359900
     14 C14        -1.1330   -0.3810    5.9270 c3        1 2CY      0.135400
     15 C15        -0.1640   -0.4350    7.0950 c3        1 2CY     -0.098400
     16 C16        -0.9130   -0.1640    8.3870 c3        1 2CY      0.131400
     17 O17         0.0740   -0.2400    9.4230 os        1 2CY     -0.326900
     18 C18        -0.3830   -0.0260   10.7080 ca        1 2CY      0.151100
     19 C19        -1.7120    0.2550   11.0450 ca        1 2CY     -0.220000
     20 C20        -2.0470    0.4520   12.3850 ca        1 2CY     -0.070000
     21 C21        -1.0850    0.3730   13.3850 ca        1 2CY     -0.199000
     22 C22         0.2510    0.0900   13.0340 ca        1 2CY      0.158900
     23 C23         0.6140   -0.1120   11.6950 ca        1 2CY     -0.196000
     24 F24         1.1960    0.0120   14.0010 f         1 2CY     -0.136900
     25 H8         -2.9590   -0.3920    4.2210 ha        1 2CY      0.137000
     26 H9         -3.9000    0.1440    2.0020 ha        1 2CY      0.135000
     27 H10        -2.4090    0.4720    0.0350 ha        1 2CY      0.154000
     28 HN11        3.3180    0.4150   -0.8270 hn        1 2CY      0.425800
     29 HN1A        1.9350    0.5850   -1.7780 hn        1 2CY      0.425800
     30 HN12        3.1240   -0.1820    3.7270 hn        1 2CY      0.441300
     31 HN1B        1.6540   -0.3640    4.5510 hn        1 2CY      0.441300
     32 H14        -1.6060    0.6310    5.8360 h1        1 2CY      0.047700
     33 H14A       -1.9290   -1.1660    6.0250 h1        1 2CY      0.047700
     34 H15         0.6480    0.3250    6.9560 hc        1 2CY      0.072200
     35 H15A        0.3270   -1.4420    7.1410 hc        1 2CY      0.072200
     36 H16        -1.7060   -0.9370    8.5660 h1        1 2CY      0.043700
     37 H16A       -1.3740    0.8590    8.3820 h1        1 2CY      0.043700
     38 H19        -2.4930    0.3230   10.2760 ha        1 2CY      0.140000
     39 H20        -3.0910    0.6730   12.6540 ha        1 2CY      0.139000
     40 H21        -1.3480    0.5280   14.4400 ha        1 2CY      0.151000
     41 H23         1.6540   -0.3330   11.4160 ha        1 2CY      0.166000
@<TRIPOS>BOND
     1    1    2 ar  
     2    1    6 ar  
     3    2    3 ar  
     4    2   11 1   
     5    3    4 ar  
     6    4    5 ar  
     7    4   12 1   
     8    5    6 ar  
     9    5    7 ar  
    10    6   10 ar  
    11    7    8 ar  
    12    7   13 1   
    13    8    9 ar  
    14    8   25 1   
    15    9   10 ar  
    16    9   26 1   
    17   10   27 1   
    18   11   28 1   
    19   11   29 1   
    20   12   30 1   
    21   12   31 1   
    22   13   14 1   
    23   14   15 1   
    24   14   32 1   
    25   14   33 1   
    26   15   16 1   
    27   15   34 1   
    28   15   35 1   
    29   16   17 1   
    30   16   36 1   
    31   16   37 1   
    32   17   18 1   
    33   18   19 ar  
    34   18   23 ar  
    35   19   20 ar  
    36   19   38 1   
    37   20   21 ar  
    38   20   39 1   
    39   21   22 ar  
    40   21   40 1   
    41   22   23 ar  
    42   22   24 1   
    43   23   41 1   
@<TRIPOS>SUBSTRUCTURE
     1 2CY         1 TEMP              0 ****  ****    0 ROOT
