@<TRIPOS>MOLECULE
2CY
   41    43     1     0     0
SMALL
bcc


@<TRIPOS>ATOM
      1 N1          6.0010   -0.1360    0.3260 nb        1 2CY     -0.805000
      2 C2          5.9560    1.2290    0.2590 ca        1 2CY      0.918900
      3 N3          4.7960    1.9950    0.1220 nb        1 2CY     -0.847000
      4 C4          3.6220    1.3310   -0.0150 ca        1 2CY      0.761200
      5 C5          3.5700   -0.1310   -0.0760 ca        1 2CY     -0.354600
      6 C6          4.8190   -0.8020    0.1460 ca        1 2CY      0.509600
      7 C7          2.4200   -0.9330   -0.3280 ca        1 2CY      0.185100
      8 C8          2.4760   -2.3160   -0.2920 ca        1 2CY     -0.248000
      9 C9          3.6990   -2.9590   -0.0190 ca        1 2CY     -0.065000
     10 C10         4.8440   -2.2370    0.1880 ca        1 2CY     -0.227300
     11 N11         7.1670    1.9300    0.2830 nh        1 2CY     -0.927500
     12 N12         2.4800    2.0990   -0.0180 nh        1 2CY     -0.952500
     13 O13         1.2540   -0.2740   -0.6820 os        1 2CY     -0.359900
     14 C14         0.0310   -0.9720   -0.4100 c3        1 2CY      0.135400
     15 C15        -1.0540    0.0900   -0.4280 c3        1 2CY     -0.098400
     16 C16        -2.4020   -0.5600   -0.1700 c3        1 2CY      0.131400
     17 O17        -3.3540    0.5100   -0.2110 os        1 2CY     -0.326900
     18 C18        -4.6720    0.1520   -0.0010 ca        1 2CY      0.151100
     19 C19        -5.1140   -1.1530    0.2440 ca        1 2CY     -0.220000
     20 C20        -6.4760   -1.3830    0.4410 ca        1 2CY     -0.070000
     21 C21        -7.3940   -0.3410    0.3980 ca        1 2CY     -0.199000
     22 C22        -6.9380    0.9700    0.1510 ca        1 2CY      0.158900
     23 C23        -5.5740    1.2290   -0.0510 ca        1 2CY     -0.196000
     24 F24        -7.8250    1.9920    0.1070 f         1 2CY     -0.136900
     25 H8          1.5860   -2.9280   -0.4870 ha        1 2CY      0.137000
     26 H9          3.7220   -4.0600    0.0130 ha        1 2CY      0.135000
     27 H10         5.8020   -2.7430    0.3840 ha        1 2CY      0.154000
     28 HN11        7.9570    1.4370    0.6300 hn        1 2CY      0.425800
     29 HN1A        7.1190    2.8970    0.5060 hn        1 2CY      0.425800
     30 HN12        2.5640    3.0860   -0.0850 hn        1 2CY      0.441300
     31 HN1B        1.6250    1.6930   -0.3110 hn        1 2CY      0.441300
     32 H14        -0.1330   -1.7320   -1.2180 h1        1 2CY      0.047700
     33 H14A        0.0860   -1.4820    0.5870 h1        1 2CY      0.047700
     34 H15        -0.8470    0.8650    0.3540 hc        1 2CY      0.072200
     35 H15A       -1.0650    0.6120   -1.4200 hc        1 2CY      0.072200
     36 H16        -2.6480   -1.3130   -0.9650 h1        1 2CY      0.043700
     37 H16A       -2.4300   -1.0500    0.8390 h1        1 2CY      0.043700
     38 H19        -4.4110   -1.9950    0.2840 ha        1 2CY      0.140000
     39 H20        -6.8280   -2.4080    0.6340 ha        1 2CY      0.139000
     40 H21        -8.4670   -0.5220    0.5530 ha        1 2CY      0.151000
     41 H23        -5.2140    2.2480   -0.2440 ha        1 2CY      0.166000
@<TRIPOS>BOND
     1    1    2 ar  
     2    1    6 ar  
     3    2    3 ar  
     4    2   11 1   
     5    3    4 ar  
     6    4    5 ar  
     7    4   12 1   
     8    5    6 ar  
     9    5    7 ar  
    10    6   10 ar  
    11    7    8 ar  
    12    7   13 1   
    13    8    9 ar  
    14    8   25 1   
    15    9   10 ar  
    16    9   26 1   
    17   10   27 1   
    18   11   28 1   
    19   11   29 1   
    20   12   30 1   
    21   12   31 1   
    22   13   14 1   
    23   14   15 1   
    24   14   32 1   
    25   14   33 1   
    26   15   16 1   
    27   15   34 1   
    28   15   35 1   
    29   16   17 1   
    30   16   36 1   
    31   16   37 1   
    32   17   18 1   
    33   18   19 ar  
    34   18   23 ar  
    35   19   20 ar  
    36   19   38 1   
    37   20   21 ar  
    38   20   39 1   
    39   21   22 ar  
    40   21   40 1   
    41   22   23 ar  
    42   22   24 1   
    43   23   41 1   
@<TRIPOS>SUBSTRUCTURE
     1 2CY         1 TEMP              0 ****  ****    0 ROOT
