@<TRIPOS>MOLECULE
2CY
   41    43     1     0     0
SMALL
bcc


@<TRIPOS>ATOM
      1 N1          0.2090   -0.3250    0.0460 nb        1 2CY     -0.805000
      2 C2          1.5640   -0.2250    0.2030 ca        1 2CY      0.918900
      3 N3          2.2280   -0.0700    1.4220 nb        1 2CY     -0.847000
      4 C4          1.4670    0.0500    2.5370 ca        1 2CY      0.761200
      5 C5          0.0050    0.0750    2.4690 ca        1 2CY     -0.354600
      6 C6         -0.5560   -0.1630    1.1700 ca        1 2CY      0.509600
      7 C7         -0.8940    0.3060    3.5490 ca        1 2CY      0.185100
      8 C8         -2.2670    0.2360    3.3800 ca        1 2CY     -0.248000
      9 C9         -2.8010   -0.0510    2.1080 ca        1 2CY     -0.065000
     10 C10        -1.9820   -0.2400    1.0270 ca        1 2CY     -0.227300
     11 N11         2.3630   -0.2310   -0.9470 nv        1 2CY     -0.927500
     12 N12         2.1390    0.0700    3.7390 nv        1 2CY     -0.952500
     13 O13        -0.3430    0.6750    4.7640 os        1 2CY     -0.359900
     14 C14        -1.1320    0.3870    5.9260 c3        1 2CY      0.135400
     15 C15        -0.1640    0.4310    7.0960 c3        1 2CY     -0.098400
     16 C16        -0.9160    0.1590    8.3860 c3        1 2CY      0.131400
     17 O17         0.0700    0.2260    9.4230 os        1 2CY     -0.326900
     18 C18        -0.3900    0.0090   10.7070 ca        1 2CY      0.151100
     19 C19        -1.7210   -0.2670   11.0410 ca        1 2CY     -0.220000
     20 C20        -2.0580   -0.4680   12.3800 ca        1 2CY     -0.070000
     21 C21        -1.0970   -0.3990   13.3810 ca        1 2CY     -0.199000
     22 C22         0.2410   -0.1210   13.0330 ca        1 2CY      0.158900
     23 C23         0.6070    0.0850   11.6950 ca        1 2CY     -0.196000
     24 F24         1.1850   -0.0510   14.0020 f         1 2CY     -0.136900
     25 H8         -2.9550    0.4160    4.2170 ha        1 2CY      0.137000
     26 H9         -3.8950   -0.1110    1.9950 ha        1 2CY      0.135000
     27 H10        -2.4030   -0.4480    0.0310 ha        1 2CY      0.154000
     28 HN11        3.3270   -0.4310   -0.8190 hn        1 2CY      0.425800
     29 HN1A        1.9440   -0.5900   -1.7740 hn        1 2CY      0.425800
     30 HN12        1.6570    0.3530    4.5570 hn        1 2CY      0.441300
     31 HN1B        3.1270    0.1610    3.7350 hn        1 2CY      0.441300
     32 H14        -1.6110   -0.6220    5.8320 h1        1 2CY      0.047700
     33 H14A       -1.9230    1.1760    6.0250 h1        1 2CY      0.047700
     34 H15         0.3310    1.4350    7.1470 hc        1 2CY      0.072200
     35 H15A        0.6440   -0.3330    6.9550 hc        1 2CY      0.072200
     36 H16        -1.7060    0.9350    8.5670 h1        1 2CY      0.043700
     37 H16A       -1.3830   -0.8620    8.3760 h1        1 2CY      0.043700
     38 H19        -2.5010   -0.3280   10.2710 ha        1 2CY      0.140000
     39 H20        -3.1040   -0.6850   12.6470 ha        1 2CY      0.139000
     40 H21        -1.3620   -0.5570   14.4350 ha        1 2CY      0.151000
     41 H23         1.6480    0.3020   11.4190 ha        1 2CY      0.166000
@<TRIPOS>BOND
     1    1    2 ar  
     2    1    6 ar  
     3    2    3 ar  
     4    2   11 1   
     5    3    4 ar  
     6    4    5 ar  
     7    4   12 1   
     8    5    6 ar  
     9    5    7 ar  
    10    6   10 ar  
    11    7    8 ar  
    12    7   13 1   
    13    8    9 ar  
    14    8   25 1   
    15    9   10 ar  
    16    9   26 1   
    17   10   27 1   
    18   11   28 1   
    19   11   29 1   
    20   12   30 1   
    21   12   31 1   
    22   13   14 1   
    23   14   15 1   
    24   14   32 1   
    25   14   33 1   
    26   15   16 1   
    27   15   34 1   
    28   15   35 1   
    29   16   17 1   
    30   16   36 1   
    31   16   37 1   
    32   17   18 1   
    33   18   19 ar  
    34   18   23 ar  
    35   19   20 ar  
    36   19   38 1   
    37   20   21 ar  
    38   20   39 1   
    39   21   22 ar  
    40   21   40 1   
    41   22   23 ar  
    42   22   24 1   
    43   23   41 1   
@<TRIPOS>SUBSTRUCTURE
     1 2CY         1 TEMP              0 ****  ****    0 ROOT
