@<TRIPOS>MOLECULE
2CY
   43    45     1     0     0
SMALL
bcc


@<TRIPOS>ATOM
      1 N1          0.1950    0.0950   -0.0370 nb        1 2CY     -0.577000
      2 C2          1.5200    0.1020    0.1570 ca        1 2CY      0.715900
      3 N3          2.1950    0.0510    1.3810 nb        1 2CY     -0.697000
      4 C4          1.4110   -0.0110    2.4630 ca        1 2CY      0.607200
      5 C5         -0.0300   -0.0250    2.4180 ca        1 2CY     -0.268600
      6 C6         -0.6070    0.0320    1.0860 ca        1 2CY      0.442600
      7 C7         -0.9160   -0.0880    3.5310 ca        1 2CY      0.172100
      8 C8         -2.2970   -0.0930    3.3380 ca        1 2CY     -0.134000
      9 C9         -2.8340   -0.0380    2.0440 ca        1 2CY     -0.017000
     10 C10        -2.0160    0.0230    0.9280 ca        1 2CY     -0.155300
     11 N11         2.3920    0.1720   -1.0510 n4        1 2CY     -0.811300
     12 N12         2.1040   -0.0690    3.7700 n4        1 2CY     -0.830300
     13 O13        -0.3190   -0.1440    4.7620 os        1 2CY     -0.408900
     14 C14        -1.1800   -0.1470    5.9330 c3        1 2CY      0.139400
     15 C15        -0.2200   -0.1740    7.1050 c3        1 2CY     -0.104400
     16 C16        -0.9780    0.0370    8.4100 c3        1 2CY      0.138400
     17 O17         0.0450    0.2200    9.3890 os        1 2CY     -0.340900
     18 C18        -0.3720    0.1290   10.7130 ca        1 2CY      0.122100
     19 C19        -1.7000    0.2700   11.1260 ca        1 2CY     -0.210000
     20 C20        -1.9920    0.2050   12.4890 ca        1 2CY     -0.066000
     21 C21        -0.9880    0.0070   13.4290 ca        1 2CY     -0.174000
     22 C22         0.3480   -0.1310   12.9980 ca        1 2CY      0.168900
     23 C23         0.6680   -0.0760   11.6310 ca        1 2CY     -0.190000
     24 F24         1.3330   -0.3230   13.9030 f         1 2CY     -0.120900
     25 H8         -2.9860   -0.1420    4.2000 ha        1 2CY      0.194000
     26 H9         -3.9350   -0.0450    1.9160 ha        1 2CY      0.202000
     27 H10        -2.4570    0.0670   -0.0860 ha        1 2CY      0.204000
     28 HN11        2.9980   -0.6600   -1.0840 hn        1 2CY      0.496800
     29 HN1A        2.9760    1.0200   -1.0030 hn        1 2CY      0.496800
     30 HN12        1.7640    0.7150    4.3540 hn        1 2CY      0.497133
     31 HN1B        1.8360   -0.9490    4.2410 hn        1 2CY      0.497133
     32 H14        -1.8270   -1.0620    5.9000 h1        1 2CY      0.077200
     33 H14A       -1.8030    0.7850    5.9210 h1        1 2CY      0.077200
     34 H15         0.5470    0.6380    6.9940 hc        1 2CY      0.066700
     35 H15A        0.3220   -1.1540    7.1440 hc        1 2CY      0.066700
     36 H16        -1.6120   -0.8540    8.6590 h1        1 2CY      0.055700
     37 H16A       -1.6150    0.9590    8.3640 h1        1 2CY      0.055700
     38 H19        -2.5080    0.4370   10.4020 ha        1 2CY      0.134000
     39 H20        -3.0360    0.3160   12.8250 ha        1 2CY      0.152000
     40 H21        -1.2180   -0.0420   14.5040 ha        1 2CY      0.168000
     41 H23         1.7070   -0.1800   11.2910 ha        1 2CY      0.162000
     42 H113        1.8100    0.2060   -1.9050 hn        1 2CY      0.496800
     43 H123        3.1290   -0.0190    3.6750 hn        1 2CY      0.497133
@<TRIPOS>BOND
     1    1    2 ar  
     2    1    6 ar  
     3    2    3 ar  
     4    2   11 1   
     5    3    4 ar  
     6    4    5 ar  
     7    4   12 1   
     8    5    6 ar  
     9    5    7 ar  
    10    6   10 ar  
    11    7    8 ar  
    12    7   13 1   
    13    8    9 ar  
    14    8   25 1   
    15    9   10 ar  
    16    9   26 1   
    17   10   27 1   
    18   11   28 1   
    19   11   29 1   
    20   11   42 1   
    21   12   30 1   
    22   12   31 1   
    23   12   43 1   
    24   13   14 1   
    25   14   15 1   
    26   14   32 1   
    27   14   33 1   
    28   15   16 1   
    29   15   34 1   
    30   15   35 1   
    31   16   17 1   
    32   16   36 1   
    33   16   37 1   
    34   17   18 1   
    35   18   19 ar  
    36   18   23 ar  
    37   19   20 ar  
    38   19   38 1   
    39   20   21 ar  
    40   20   39 1   
    41   21   22 ar  
    42   21   40 1   
    43   22   23 ar  
    44   22   24 1   
    45   23   41 1   
@<TRIPOS>SUBSTRUCTURE
     1 2CY         1 TEMP              0 ****  ****    0 ROOT
