@<TRIPOS>MOLECULE
2CZ
   30    30     1     0     0
SMALL
bcc


@<TRIPOS>ATOM
      1 N1         -0.4950    2.2390   -0.3250 n3        1 2CZ     -0.820200
      2 C2          0.3030    1.2390   -0.9850 c3        1 2CZ      0.154800
      3 N2          2.0230   -0.4770   -0.4680 n         1 2CZ     -0.550900
      4 C3          0.6900   -0.0150   -0.1400 c3        1 2CZ      0.072700
      5 C4         -0.3850   -1.1080   -0.3660 c3        1 2CZ      0.140100
      6 O4          0.1150   -2.3350    0.1490 oh        1 2CZ     -0.613800
      7 C5         -1.6980   -0.7630    0.3630 c3        1 2CZ      0.115100
      8 O5         -2.5480   -1.8740    0.1030 oh        1 2CZ     -0.618800
      9 C6         -2.3480    0.5350   -0.1390 c3        1 2CZ      0.107100
     10 O6         -3.6810    0.4940    0.3640 oh        1 2CZ     -0.614800
     11 C7         -1.6450    1.7820    0.4210 c3        1 2CZ      0.135800
     12 C8          3.1320    0.1590    0.0670 c         1 2CZ      0.651100
     13 O8          3.0260    1.2580    0.6500 o         1 2CZ     -0.615100
     14 C9          4.4730   -0.5010   -0.1370 c3        1 2CZ     -0.173100
     15 H02         0.0800    2.8070    0.2720 hn        1 2CZ      0.379800
     16 H14        -0.2540    0.8980   -1.9030 h1        1 2CZ      0.064200
     17 H03         1.2450    1.7540   -1.3330 h1        1 2CZ      0.064200
     18 H04         2.1040   -1.4350   -0.7230 hn        1 2CZ      0.319500
     19 H05         0.6780    0.2660    0.9590 h1        1 2CZ      0.065700
     20 H06        -0.5920   -1.2320   -1.4670 h1        1 2CZ      0.053700
     21 H07        -0.6060   -2.9780    0.0920 ho        1 2CZ      0.432000
     22 H08        -1.5140   -0.6940    1.4720 h1        1 2CZ      0.060700
     23 H09        -3.4100   -1.6730    0.4920 ho        1 2CZ      0.435000
     24 H10        -2.3750    0.5440   -1.2630 h1        1 2CZ      0.061700
     25 H11        -4.1580    1.2260   -0.0430 ho        1 2CZ      0.417000
     26 H15        -1.4010    1.5800    1.5060 h1        1 2CZ      0.040700
     27 H12        -2.3860    2.6350    0.4100 h1        1 2CZ      0.040700
     28 H16         4.6830   -0.6340   -1.2260 hc        1 2CZ      0.066700
     29 H13         5.2650    0.1480    0.3090 hc        1 2CZ      0.066700
     30 H01         4.4950   -1.4990    0.3630 hc        1 2CZ      0.066700
@<TRIPOS>BOND
     1    1    2 1   
     2    1   11 1   
     3    1   15 1   
     4    2    4 1   
     5    2   16 1   
     6    2   17 1   
     7    3    4 1   
     8    3   12 1   
     9    3   18 1   
    10    4    5 1   
    11    4   19 1   
    12    5    6 1   
    13    5    7 1   
    14    5   20 1   
    15    6   21 1   
    16    7    8 1   
    17    7    9 1   
    18    7   22 1   
    19    8   23 1   
    20    9   10 1   
    21    9   11 1   
    22    9   24 1   
    23   10   25 1   
    24   11   26 1   
    25   11   27 1   
    26   12   13 2   
    27   12   14 1   
    28   14   28 1   
    29   14   29 1   
    30   14   30 1   
@<TRIPOS>SUBSTRUCTURE
     1 2CZ         1 TEMP              0 ****  ****    0 ROOT
