@<TRIPOS>MOLECULE
2CZ
   31    31     1     0     0
SMALL
bcc


@<TRIPOS>ATOM
      1 N1          0.3230    0.1390    0.0860 n3        1 2CZ     -0.824200
      2 C2          1.7600    0.0600    0.1540 c3        1 2CZ      0.160800
      3 N2          3.5710    0.6800    1.7960 n4        1 2CZ     -0.679800
      4 C3          2.2920   -0.0910    1.6040 c3        1 2CZ      0.113500
      5 C4          2.4910   -1.5980    1.9120 c3        1 2CZ      0.134100
      6 O4          3.3590   -1.6920    3.0300 oh        1 2CZ     -0.643800
      7 C5          1.1390   -2.2630    2.2330 c3        1 2CZ      0.123100
      8 O5          1.4860   -3.6010    2.5480 oh        1 2CZ     -0.610800
      9 C6          0.1550   -2.2160    1.0520 c3        1 2CZ      0.080100
     10 O6         -0.8780   -3.1150    1.4260 oh        1 2CZ     -0.593800
     11 C7         -0.4380   -0.8070    0.8660 c3        1 2CZ      0.120800
     12 C8          3.3330    2.1760    1.9000 c         1 2CZ      0.555100
     13 O8          2.6340    2.5420    2.8290 o         1 2CZ     -0.391100
     14 C9          4.0070    3.0080    0.8630 c3        1 2CZ     -0.189100
     15 H02         0.0370    0.1400   -0.8770 hn        1 2CZ      0.398800
     16 H14         2.1400    1.0230   -0.3010 h1        1 2CZ      0.047200
     17 H03         2.1890   -0.7860   -0.4620 h1        1 2CZ      0.047200
     18 H04         3.9960    0.3460    2.6790 hn        1 2CZ      0.469300
     19 H05         1.5600    0.3420    2.3560 hx        1 2CZ      0.141700
     20 H06         2.9750   -2.1210    1.0380 h1        1 2CZ      0.075700
     21 H07         3.2690   -2.5830    3.4070 ho        1 2CZ      0.479000
     22 H08         0.6740   -1.7760    3.1370 h1        1 2CZ      0.074700
     23 H09         0.6620   -4.0940    2.6780 ho        1 2CZ      0.458000
     24 H10         0.6600   -2.5810    0.1150 h1        1 2CZ      0.053700
     25 H11        -1.4170   -3.2830    0.6430 ho        1 2CZ      0.430000
     26 H15        -1.4580   -0.9130    0.3960 h1        1 2CZ      0.078700
     27 H12        -0.6010   -0.3520    1.8860 h1        1 2CZ      0.078700
     28 H16         3.7790    4.0880    1.0710 hc        1 2CZ      0.114367
     29 H13         3.6280    2.7530   -0.1590 hc        1 2CZ      0.114367
     30 H01         5.1170    2.8660    0.8930 hc        1 2CZ      0.114367
     31 H22         4.2150    0.4740    1.0290 hn        1 2CZ      0.469300
@<TRIPOS>BOND
     1    1    2 1   
     2    1   11 1   
     3    1   15 1   
     4    2    4 1   
     5    2   16 1   
     6    2   17 1   
     7    3    4 1   
     8    3   12 1   
     9    3   18 1   
    10    3   31 1   
    11    4    5 1   
    12    4   19 1   
    13    5    6 1   
    14    5    7 1   
    15    5   20 1   
    16    6   21 1   
    17    7    8 1   
    18    7    9 1   
    19    7   22 1   
    20    8   23 1   
    21    9   10 1   
    22    9   11 1   
    23    9   24 1   
    24   10   25 1   
    25   11   26 1   
    26   11   27 1   
    27   12   13 2   
    28   12   14 1   
    29   14   28 1   
    30   14   29 1   
    31   14   30 1   
@<TRIPOS>SUBSTRUCTURE
     1 2CZ         1 TEMP              0 ****  ****    0 ROOT
