@<TRIPOS>MOLECULE
2CZ
   31    31     1     0     0
SMALL
bcc


@<TRIPOS>ATOM
      1 N1          0.3690    0.1030    0.0180 n3        1 2CZ     -0.824200
      2 C2          1.8030    0.0300    0.1410 c3        1 2CZ      0.160800
      3 N2          3.5530    0.6960    1.8300 n4        1 2CZ     -0.679800
      4 C3          2.2830   -0.0830    1.6120 c3        1 2CZ      0.113500
      5 C4          2.4740   -1.5810    1.9660 c3        1 2CZ      0.134100
      6 O4          3.3000   -1.6450    3.1160 oh        1 2CZ     -0.643800
      7 C5          1.1120   -2.2400    2.2550 c3        1 2CZ      0.123100
      8 O5          1.4500   -3.5690    2.6170 oh        1 2CZ     -0.610800
      9 C6          0.1710   -2.2270    1.0380 c3        1 2CZ      0.080100
     10 O6         -0.8740   -3.1190    1.3980 oh        1 2CZ     -0.593800
     11 C7         -0.4170   -0.8240    0.7950 c3        1 2CZ      0.120800
     12 C8          3.3100    2.1940    1.8860 c         1 2CZ      0.555100
     13 O8          2.5760    2.5820    2.7790 o         1 2CZ     -0.391100
     14 C9          4.0190    3.0000    0.8530 c3        1 2CZ     -0.189100
     15 H02         0.1180    0.0780   -0.9540 hn        1 2CZ      0.398800
     16 H14         2.2560   -0.8310   -0.4380 h1        1 2CZ      0.047200
     17 H03         2.1980    0.9820   -0.3250 h1        1 2CZ      0.047200
     18 H04         4.2240    0.4720    1.0920 hn        1 2CZ      0.469300
     19 H05         1.5240    0.3670    2.3250 hx        1 2CZ      0.141700
     20 H06         2.9900   -2.1250    1.1230 h1        1 2CZ      0.075700
     21 H07         3.1990   -2.5260    3.5120 ho        1 2CZ      0.479000
     22 H08         0.6130   -1.7320    3.1290 h1        1 2CZ      0.074700
     23 H09         0.6210   -4.0610    2.7290 ho        1 2CZ      0.458000
     24 H10         0.7100   -2.6140    0.1300 h1        1 2CZ      0.053700
     25 H11        -1.3840   -3.3080    0.6000 ho        1 2CZ      0.430000
     26 H15        -0.6170   -0.3440    1.7970 h1        1 2CZ      0.078700
     27 H12        -1.4200   -0.9450    0.2910 h1        1 2CZ      0.078700
     28 H16         5.1280    2.8620    0.9290 hc        1 2CZ      0.114367
     29 H13         3.6800    2.7170   -0.1760 hc        1 2CZ      0.114367
     30 H01         3.7810    4.0850    1.0230 hc        1 2CZ      0.114367
     31 H22         3.9460    0.3860    2.7360 hn        1 2CZ      0.469300
@<TRIPOS>BOND
     1    1    2 1   
     2    1   11 1   
     3    1   15 1   
     4    2    4 1   
     5    2   16 1   
     6    2   17 1   
     7    3    4 1   
     8    3   12 1   
     9    3   18 1   
    10    3   31 1   
    11    4    5 1   
    12    4   19 1   
    13    5    6 1   
    14    5    7 1   
    15    5   20 1   
    16    6   21 1   
    17    7    8 1   
    18    7    9 1   
    19    7   22 1   
    20    8   23 1   
    21    9   10 1   
    22    9   11 1   
    23    9   24 1   
    24   10   25 1   
    25   11   26 1   
    26   11   27 1   
    27   12   13 2   
    28   12   14 1   
    29   14   28 1   
    30   14   29 1   
    31   14   30 1   
@<TRIPOS>SUBSTRUCTURE
     1 2CZ         1 TEMP              0 ****  ****    0 ROOT
