@<TRIPOS>MOLECULE
2CZ
   30    29     1     0     0
SMALL
bcc


@<TRIPOS>ATOM
      1 N1         -1.5060    0.6120   -1.4670 n3        1 2CZ     -0.295000
      2 C2         -0.0890    0.5550   -1.5100 c3        1 2CZ     -0.088000
      3 N2          1.9060    0.3360   -0.1920 n3        1 2CZ     -0.358000
      4 C3          0.4950    0.4950   -0.1050 c3        1 2CZ     -0.010000
      5 C4         -0.0940   -0.6750    0.6810 c3        1 2CZ      0.032000
      6 O4          0.6390   -0.8480    1.8760 oh        1 2CZ     -0.336000
      7 C5         -1.5330   -0.4190    1.0220 c3        1 2CZ      0.005000
      8 O5         -1.7970   -0.9190    2.3230 oh        1 2CZ     -0.343000
      9 C6         -2.4500   -1.0990    0.0330 c3        1 2CZ     -0.047000
     10 O6         -3.7680   -0.7090    0.2900 oh        1 2CZ     -0.340000
     11 C7         -2.0750   -0.7090   -1.4240 c3        1 2CZ     -0.099000
     12 C8          2.7680    1.4140    0.1710 c1        1 2CZ      0.294000
     13 O8          2.2950    2.4680    0.5550 o         1 2CZ     -0.370000
     14 C9          4.3030    1.2470    0.0700 c2        1 2CZ     -0.241000
     15 H02        -1.7710    1.0830   -0.7240 hn        1 2CZ      0.172000
     16 H14         0.1880   -0.2500   -2.0120 h1        1 2CZ      0.111500
     17 H03         0.2500    1.3500   -1.9640 h1        1 2CZ      0.111500
     18 H04         2.2460   -0.4030   -0.5370 hn        1 2CZ      0.231000
     19 H05         0.2910    1.3420    0.3700 h1        1 2CZ      0.107000
     20 H06        -0.0300   -1.5040    0.1340 h1        1 2CZ      0.083000
     21 H07         0.8000   -1.7210    2.0030 ho        1 2CZ      0.233000
     22 H08        -1.7040    0.5560    1.0070 h1        1 2CZ      0.106000
     23 H09        -2.2790   -0.3220    2.7780 ho        1 2CZ      0.229000
     24 H10        -2.3730   -2.0770    0.1380 h1        1 2CZ      0.092000
     25 H11        -4.3040   -1.3510    0.0870 ho        1 2CZ      0.210000
     26 H15        -1.4140   -1.3610   -1.7760 h1        1 2CZ      0.096000
     27 H12        -2.8850   -0.7320   -1.9880 h1        1 2CZ      0.096000
     28 H16         4.5860    0.4410    0.5840 ha        1 2CZ      0.105667
     29 H13         4.5600    1.1420   -0.8720 ha        1 2CZ      0.105667
     30 H01         4.7480    2.0560    0.4480 ha        1 2CZ      0.105667
@<TRIPOS>BOND
     1    1    2 1   
     2    1   11 1   
     3    1   15 1   
     4    2    4 1   
     5    2   16 1   
     6    2   17 1   
     7    3    4 1   
     8    3   12 1   
     9    3   18 1   
    10    4    5 1   
    11    4   19 1   
    12    5    6 1   
    13    5    7 1   
    14    5   20 1   
    15    6   21 1   
    16    7    8 1   
    17    7    9 1   
    18    7   22 1   
    19    8   23 1   
    20    9   10 1   
    21    9   11 1   
    22    9   24 1   
    23   10   25 1   
    24   11   26 1   
    25   11   27 1   
    26   12   13 1   
    27   14   28 1   
    28   14   29 1   
    29   14   30 1   
@<TRIPOS>SUBSTRUCTURE
     1 2CZ         1 TEMP              0 ****  ****    0 ROOT
