@<TRIPOS>MOLECULE
2CZ
   31    31     1     0     0
SMALL
bcc


@<TRIPOS>ATOM
      1 N1          0.3870    0.1230   -0.0260 n7        1 2CZ     -0.824200
      2 C2          1.8210    0.0640    0.1070 c3        1 2CZ      0.160800
      3 N2          3.5460    0.6870    1.8370 ny        1 2CZ     -0.679800
      4 C3          2.2890   -0.1000    1.5770 c3        1 2CZ      0.113500
      5 C4          2.4970   -1.6080    1.8740 c3        1 2CZ      0.134100
      6 O4          3.3140   -1.7050    3.0290 oh        1 2CZ     -0.643800
      7 C5          1.1420   -2.2960    2.1240 c3        1 2CZ      0.123100
      8 O5          1.4940   -3.6330    2.4370 oh        1 2CZ     -0.610800
      9 C6          0.2110   -2.2480    0.9000 c3        1 2CZ      0.080100
     10 O6         -0.8250   -3.1660    1.2150 oh        1 2CZ     -0.593800
     11 C7         -0.3930   -0.8440    0.7060 c3        1 2CZ      0.120800
     12 C8          3.2820    2.1780    1.9490 c         1 2CZ      0.555100
     13 O8          2.5350    2.5210    2.8490 o         1 2CZ     -0.391100
     14 C9          3.9900    3.0340    0.9550 c3        1 2CZ     -0.189100
     15 H02         0.1450    0.1330   -1.0010 hn        1 2CZ      0.398800
     16 H14         2.2070    1.0380   -0.3180 h1        1 2CZ      0.047200
     17 H03         2.2900   -0.7670   -0.5010 h1        1 2CZ      0.047200
     18 H04         3.9360    0.3470    2.7340 hn        1 2CZ      0.469300
     19 H05         1.5180    0.3120    2.3000 hx        1 2CZ      0.141700
     20 H06         3.0280   -2.1110    1.0160 h1        1 2CZ      0.075700
     21 H07         3.2210   -2.6020    3.3890 ho        1 2CZ      0.479000
     22 H08         0.6280   -1.8290    3.0120 h1        1 2CZ      0.074700
     23 H09         0.6720   -4.1400    2.5230 ho        1 2CZ      0.458000
     24 H10         0.7640   -2.5920   -0.0170 h1        1 2CZ      0.053700
     25 H11        -1.3240   -3.3310    0.4060 ho        1 2CZ      0.430000
     26 H15        -0.6090   -0.4060    1.7240 h1        1 2CZ      0.078700
     27 H12        -1.3900   -0.9580    0.1880 h1        1 2CZ      0.078700
     28 H16         3.6630    2.7870   -0.0870 hc        1 2CZ      0.114367
     29 H13         3.7350    4.1080    1.1660 hc        1 2CZ      0.114367
     30 H01         5.1000    2.9080    1.0360 hc        1 2CZ      0.114367
     31 H22         4.2270    0.5010    1.0970 hn        1 2CZ      0.469300
@<TRIPOS>BOND
     1    1    2 1   
     2    1   11 1   
     3    1   15 1   
     4    2    4 1   
     5    2   16 1   
     6    2   17 1   
     7    3    4 1   
     8    3   12 1   
     9    3   18 1   
    10    3   31 1   
    11    4    5 1   
    12    4   19 1   
    13    5    6 1   
    14    5    7 1   
    15    5   20 1   
    16    6   21 1   
    17    7    8 1   
    18    7    9 1   
    19    7   22 1   
    20    8   23 1   
    21    9   10 1   
    22    9   11 1   
    23    9   24 1   
    24   10   25 1   
    25   11   26 1   
    26   11   27 1   
    27   12   13 2   
    28   12   14 1   
    29   14   28 1   
    30   14   29 1   
    31   14   30 1   
@<TRIPOS>SUBSTRUCTURE
     1 2CZ         1 TEMP              0 ****  ****    0 ROOT
