@<TRIPOS>MOLECULE
2D0
   16    17     1     0     0
SMALL
bcc


@<TRIPOS>ATOM
      1 C1         -0.0520   -0.0370   -0.0050 ca        1 2D0      0.119400
      2 C2          1.3810    0.0150   -0.0300 ca        1 2D0     -0.090100
      3 C3         -0.7140   -0.0560    1.2430 ca        1 2D0      0.052400
      4 C4          2.1110    0.0530    1.1560 ca        1 2D0     -0.083000
      5 C5          0.0360   -0.0190    2.4140 ca        1 2D0     -0.120000
      6 C6          1.4360    0.0350    2.3690 ca        1 2D0     -0.126000
      7 N7         -0.6720   -0.0510   -1.2580 nc        1 2D0     -0.581100
      8 C8          0.2610   -0.0370   -2.2190 cd        1 2D0      0.568100
      9 S9          1.9300    0.0170   -1.6300 ss        1 2D0     -0.067100
     10 N10         0.0310   -0.1620   -3.5820 nv        1 2D0     -0.859800
     11 Cl1        -2.4050   -0.1220    1.3160 cl        1 2D0     -0.065400
     12 H1          3.2100    0.0940    1.1300 ha        1 2D0      0.142000
     13 H2         -0.4730   -0.0340    3.3910 ha        1 2D0      0.149000
     14 H3          2.0020    0.0630    3.3120 ha        1 2D0      0.140000
     15 H4         -0.9290   -0.1510   -3.8570 hn        1 2D0      0.409800
     16 H5          0.6110    0.4270   -4.1410 hn        1 2D0      0.409800
@<TRIPOS>BOND
     1    1    2 ar  
     2    1    3 ar  
     3    1    7 1   
     4    2    4 ar  
     5    2    9 1   
     6    3    5 ar  
     7    3   11 1   
     8    4    6 ar  
     9    4   12 1   
    10    5    6 ar  
    11    5   13 1   
    12    6   14 1   
    13    7    8 2   
    14    8    9 1   
    15    8   10 1   
    16   10   15 1   
    17   10   16 1   
@<TRIPOS>SUBSTRUCTURE
     1 2D0         1 TEMP              0 ****  ****    0 ROOT
