@<TRIPOS>MOLECULE
2D0
   17    18     1     0     0
SMALL
bcc


@<TRIPOS>ATOM
      1 C1         -0.0410   -0.0440    0.0020 ca        1 2D0      0.063400
      2 C2          1.3960    0.0790   -0.0210 ca        1 2D0     -0.064100
      3 C3         -0.7180   -0.1210    1.2500 ca        1 2D0      0.091400
      4 C4          2.1180    0.1230    1.1730 ca        1 2D0     -0.102000
      5 C5          0.0310   -0.0740    2.4180 ca        1 2D0     -0.115000
      6 C6          1.4320    0.0470    2.3770 ca        1 2D0     -0.049000
      7 N7         -0.6390   -0.0770   -1.2470 nc        1 2D0     -0.436100
      8 C8          0.3180    0.0180   -2.1870 cd        1 2D0      0.257100
      9 S9          1.9410    0.1490   -1.6100 ss        1 2D0      0.149900
     10 N10        -0.0150    0.0110   -3.6020 n4        1 2D0     -0.740600
     11 CL1        -2.3930   -0.2650    1.2960 cl        1 2D0     -0.003400
     12 H1          3.2160    0.2170    1.1610 ha        1 2D0      0.168000
     13 H2         -0.4750   -0.1310    3.3980 ha        1 2D0      0.181000
     14 H3          1.9920    0.0810    3.3280 ha        1 2D0      0.172000
     15 H4         -1.0360   -0.0750   -3.7360 hn        1 2D0      0.475133
     16 H5          0.3040    0.8890   -4.0290 hn        1 2D0      0.475133
     17 H103        0.4470   -0.7880   -4.0540 hn        1 2D0      0.475133
@<TRIPOS>BOND
     1    1    2 ar  
     2    1    3 ar  
     3    1    7 1   
     4    2    4 ar  
     5    2    9 1   
     6    3    5 ar  
     7    3   11 1   
     8    4    6 ar  
     9    4   12 1   
    10    5    6 ar  
    11    5   13 1   
    12    6   14 1   
    13    7    8 2   
    14    8    9 1   
    15    8   10 1   
    16   10   15 1   
    17   10   16 1   
    18   10   17 1   
@<TRIPOS>SUBSTRUCTURE
     1 2D0         1 TEMP              0 ****  ****    0 ROOT
