@<TRIPOS>MOLECULE
2D0
   16    17     1     0     0
SMALL
bcc


@<TRIPOS>ATOM
      1 C1         -0.0540   -0.0070   -0.0040 ca        1 2D0      0.119400
      2 C2          1.3800   -0.0330   -0.0310 ca        1 2D0     -0.090100
      3 C3         -0.7140    0.0200    1.2450 ca        1 2D0      0.052400
      4 C4          2.1130   -0.0250    1.1540 ca        1 2D0     -0.083000
      5 C5          0.0390    0.0250    2.4150 ca        1 2D0     -0.120000
      6 C6          1.4390    0.0030    2.3670 ca        1 2D0     -0.126000
      7 N7         -0.6760    0.0030   -1.2560 nc        1 2D0     -0.581100
      8 C8          0.2550   -0.0410   -2.2180 cd        1 2D0      0.568100
      9 S9          1.9250   -0.0730   -1.6310 ss        1 2D0     -0.067100
     10 N10         0.0170   -0.1640   -3.5800 nh        1 2D0     -0.859800
     11 CL1        -2.4050    0.0460    1.3210 cl        1 2D0     -0.065400
     12 H1          3.2120   -0.0440    1.1260 ha        1 2D0      0.142000
     13 H2         -0.4680    0.0450    3.3930 ha        1 2D0      0.149000
     14 H3          2.0080    0.0080    3.3090 ha        1 2D0      0.140000
     15 H4         -0.9430   -0.1030   -3.8540 hn        1 2D0      0.409800
     16 H5          0.6260    0.3880   -4.1440 hn        1 2D0      0.409800
@<TRIPOS>BOND
     1    1    2 ar  
     2    1    3 ar  
     3    1    7 1   
     4    2    4 ar  
     5    2    9 1   
     6    3    5 ar  
     7    3   11 1   
     8    4    6 ar  
     9    4   12 1   
    10    5    6 ar  
    11    5   13 1   
    12    6   14 1   
    13    7    8 2   
    14    8    9 1   
    15    8   10 1   
    16   10   15 1   
    17   10   16 1   
@<TRIPOS>SUBSTRUCTURE
     1 2D0         1 TEMP              0 ****  ****    0 ROOT
