@<TRIPOS>MOLECULE
2D1
   42    43     1     0     0
SMALL
bcc


@<TRIPOS>ATOM
      1 O2          1.9570    0.0290    0.4630 o         1 2D1     -0.577300
      2 S1          3.1420    0.6350    0.0980 sy        1 2D1      1.496200
      3 O1          4.2190    0.6780    0.9620 o         1 2D1     -0.577300
      4 N1          3.7920   -0.6050   -1.2190 n4        1 2D1     -0.693900
      5 C5          3.9300   -1.9600   -0.6400 c3        1 2D1      0.092800
      6 C4          4.4320   -3.0060   -1.6270 c3        1 2D1     -0.100400
      7 C2          4.5620   -4.3650   -0.9490 c3        1 2D1     -0.062700
      8 C3          3.2070   -4.9950   -0.7020 c3        1 2D1     -0.099100
      9 C1          5.4150   -5.2780   -1.8080 c3        1 2D1     -0.099100
     10 C6          3.0000    1.8860   -0.8740 ca        1 2D1     -0.581500
     11 C11         1.7970    2.1390   -1.5770 ca        1 2D1      0.012000
     12 C10         1.6420    3.2550   -2.3750 ca        1 2D1     -0.149500
     13 C9          2.6910    4.1910   -2.5060 ca        1 2D1      0.056500
     14 C8          3.8950    3.9560   -1.8080 ca        1 2D1     -0.149500
     15 C7          4.0400    2.8360   -1.0140 ca        1 2D1      0.012000
     16 C12         2.5400    5.3700   -3.3360 cc        1 2D1      0.314800
     17 N2          1.5240    5.4560   -4.2930 nc        1 2D1     -0.615000
     18 C14         1.5950    6.6330   -4.9140 cd        1 2D1      0.405700
     19 C15         0.6900    7.0840   -5.9920 c3        1 2D1     -0.142400
     20 S2          2.8730    7.6510   -4.3520 ss        1 2D1      0.028700
     21 C13         3.3570    6.5090   -3.2650 cd        1 2D1     -0.227400
     22 H1          3.1600   -0.6490   -2.0150 hn        1 2D1      0.439800
     23 H2          4.6490   -1.8850    0.2290 hx        1 2D1      0.110700
     24 H3          2.9160   -2.2660   -0.2460 hx        1 2D1      0.110700
     25 H4          5.4340   -2.6990   -2.0290 hc        1 2D1      0.060200
     26 H5          3.7260   -3.0920   -2.4950 hc        1 2D1      0.060200
     27 H6          5.0810   -4.2250    0.0420 hc        1 2D1      0.057700
     28 H7          2.6500   -5.1260   -1.6610 hc        1 2D1      0.046867
     29 H8          3.3360   -6.0010   -0.2320 hc        1 2D1      0.046867
     30 H9          2.5920   -4.3670   -0.0140 hc        1 2D1      0.046867
     31 H10         5.5130   -6.2780   -1.3190 hc        1 2D1      0.046867
     32 H11         6.4360   -4.8500   -1.9450 hc        1 2D1      0.046867
     33 H12         4.9490   -5.4210   -2.8130 hc        1 2D1      0.046867
     34 H13         0.9530    1.4310   -1.4630 ha        1 2D1      0.163500
     35 H14         0.6880    3.4180   -2.9070 ha        1 2D1      0.179000
     36 H15         4.7290    4.6720   -1.8970 ha        1 2D1      0.179000
     37 H16         4.9850    2.6790   -0.4590 ha        1 2D1      0.163500
     38 H17         0.7420    6.3860   -6.8660 hc        1 2D1      0.072700
     39 H18        -0.3700    7.1090   -5.6280 hc        1 2D1      0.072700
     40 H19         0.9760    8.1090   -6.3340 hc        1 2D1      0.072700
     41 H20         4.1910    6.6380   -2.5740 h4        1 2D1      0.191000
     42 H121        4.6970   -0.3060   -1.5740 hn        1 2D1      0.439800
@<TRIPOS>BOND
     1    1    2 2   
     2    2    3 2   
     3    2    4 1   
     4    2   10 1   
     5    4    5 1   
     6    4   22 1   
     7    4   42 1   
     8    5    6 1   
     9    5   23 1   
    10    5   24 1   
    11    6    7 1   
    12    6   25 1   
    13    6   26 1   
    14    7    8 1   
    15    7    9 1   
    16    7   27 1   
    17    8   28 1   
    18    8   29 1   
    19    8   30 1   
    20    9   31 1   
    21    9   32 1   
    22    9   33 1   
    23   10   11 ar  
    24   10   15 ar  
    25   11   12 ar  
    26   11   34 1   
    27   12   13 ar  
    28   12   35 1   
    29   13   14 ar  
    30   13   16 1   
    31   14   15 ar  
    32   14   36 1   
    33   15   37 1   
    34   16   17 1   
    35   16   21 2   
    36   17   18 2   
    37   18   19 1   
    38   18   20 1   
    39   19   38 1   
    40   19   39 1   
    41   19   40 1   
    42   20   21 1   
    43   21   41 1   
@<TRIPOS>SUBSTRUCTURE
     1 2D1         1 TEMP              0 ****  ****    0 ROOT
