@<TRIPOS>MOLECULE
2D1
   42    43     1     0     0
SMALL
bcc


@<TRIPOS>ATOM
      1 O2          1.9480    0.0660    0.4710 o         1 2D1     -0.577300
      2 S1          3.1420    0.6480    0.0930 sy        1 2D1      1.496200
      3 O1          4.2260    0.6760    0.9480 o         1 2D1     -0.577300
      4 N1          3.7570   -0.6120   -1.2220 ny        1 2D1     -0.693900
      5 C5          3.8970   -1.9620   -0.6290 c3        1 2D1      0.092800
      6 C4          4.3740   -3.0230   -1.6120 c3        1 2D1     -0.100400
      7 C2          4.5090   -4.3740   -0.9200 c3        1 2D1     -0.062700
      8 C3          3.1550   -4.9920   -0.6390 c3        1 2D1     -0.099100
      9 C1          5.3390   -5.3030   -1.7840 c3        1 2D1     -0.099100
     10 C6          3.0150    1.8950   -0.8850 ca        1 2D1     -0.581500
     11 C11         1.8100    2.1660   -1.5790 ca        1 2D1      0.012000
     12 C10         1.6700    3.2800   -2.3830 ca        1 2D1     -0.149500
     13 C9          2.7360    4.1950   -2.5290 ca        1 2D1      0.056500
     14 C8          3.9400    3.9420   -1.8390 ca        1 2D1     -0.149500
     15 C7          4.0710    2.8240   -1.0400 ca        1 2D1      0.012000
     16 C12         2.5990    5.3720   -3.3640 cc        1 2D1      0.314800
     17 N2          1.5770    5.4720   -4.3130 nc        1 2D1     -0.615000
     18 C14         1.6650    6.6440   -4.9420 cd        1 2D1      0.405700
     19 C15         0.7580    7.1050   -6.0140 c3        1 2D1     -0.142400
     20 S2          2.9660    7.6400   -4.3970 ss        1 2D1      0.028700
     21 C13         3.4380    6.4960   -3.3070 cd        1 2D1     -0.227400
     22 H1          3.1090   -0.6610   -2.0040 hn        1 2D1      0.439800
     23 H2          4.6320   -1.8810    0.2260 hx        1 2D1      0.110700
     24 H3          2.8880   -2.2560   -0.2130 hx        1 2D1      0.110700
     25 H4          5.3710   -2.7270   -2.0360 hc        1 2D1      0.060200
     26 H5          3.6520   -3.1150   -2.4660 hc        1 2D1      0.060200
     27 H6          5.0470   -4.2250    0.0590 hc        1 2D1      0.057700
     28 H7          2.5790   -5.1310   -1.5860 hc        1 2D1      0.046867
     29 H8          3.2870   -5.9930   -0.1600 hc        1 2D1      0.046867
     30 H9          2.5570   -4.3520    0.0530 hc        1 2D1      0.046867
     31 H10         5.4410   -6.2970   -1.2850 hc        1 2D1      0.046867
     32 H11         6.3610   -4.8820   -1.9460 hc        1 2D1      0.046867
     33 H12         4.8530   -5.4550   -2.7780 hc        1 2D1      0.046867
     34 H13         0.9550    1.4750   -1.4540 ha        1 2D1      0.163500
     35 H14         0.7140    3.4590   -2.9070 ha        1 2D1      0.179000
     36 H15         4.7870    4.6410   -1.9400 ha        1 2D1      0.179000
     37 H16         5.0180    2.6530   -0.4920 ha        1 2D1      0.163500
     38 H17         0.7890    6.4010   -6.8840 hc        1 2D1      0.072700
     39 H18        -0.2970    7.1540   -5.6410 hc        1 2D1      0.072700
     40 H19         1.0610    8.1230   -6.3650 hc        1 2D1      0.072700
     41 H20         4.2800    6.6130   -2.6250 h4        1 2D1      0.191000
     42 H121        4.6570   -0.3250   -1.5990 hn        1 2D1      0.439800
@<TRIPOS>BOND
     1    1    2 2   
     2    2    3 2   
     3    2    4 1   
     4    2   10 1   
     5    4    5 1   
     6    4   22 1   
     7    4   42 1   
     8    5    6 1   
     9    5   23 1   
    10    5   24 1   
    11    6    7 1   
    12    6   25 1   
    13    6   26 1   
    14    7    8 1   
    15    7    9 1   
    16    7   27 1   
    17    8   28 1   
    18    8   29 1   
    19    8   30 1   
    20    9   31 1   
    21    9   32 1   
    22    9   33 1   
    23   10   11 ar  
    24   10   15 ar  
    25   11   12 ar  
    26   11   34 1   
    27   12   13 ar  
    28   12   35 1   
    29   13   14 ar  
    30   13   16 1   
    31   14   15 ar  
    32   14   36 1   
    33   15   37 1   
    34   16   17 1   
    35   16   21 2   
    36   17   18 2   
    37   18   19 1   
    38   18   20 1   
    39   19   38 1   
    40   19   39 1   
    41   19   40 1   
    42   20   21 1   
    43   21   41 1   
@<TRIPOS>SUBSTRUCTURE
     1 2D1         1 TEMP              0 ****  ****    0 ROOT
