@<TRIPOS>MOLECULE
2D1
   42    43     1     0     0
SMALL
bcc


@<TRIPOS>ATOM
      1 O2          1.9940    0.0590    0.4910 o         1 2D1     -0.577300
      2 S1          3.1790    0.6480    0.0990 sy        1 2D1      1.496200
      3 O1          4.2740    0.6830    0.9410 o         1 2D1     -0.577300
      4 N1          3.7870   -0.6070   -1.2240 n4        1 2D1     -0.693900
      5 C5          3.9270   -1.9600   -0.6370 c3        1 2D1      0.092800
      6 C4          4.3960   -3.0170   -1.6270 c3        1 2D1     -0.100400
      7 C2          4.5300   -4.3720   -0.9420 c3        1 2D1     -0.062700
      8 C3          3.1760   -4.9880   -0.6600 c3        1 2D1     -0.099100
      9 C1          5.3550   -5.2990   -1.8130 c3        1 2D1     -0.099100
     10 C6          3.0330    1.8960   -0.8770 ca        1 2D1     -0.581500
     11 C11         1.8190    2.1580   -1.5580 ca        1 2D1      0.012000
     12 C10         1.6620    3.2720   -2.3600 ca        1 2D1     -0.149500
     13 C9          2.7200    4.1940   -2.5180 ca        1 2D1      0.056500
     14 C8          3.9340    3.9490   -1.8420 ca        1 2D1     -0.149500
     15 C7          4.0810    2.8310   -1.0440 ca        1 2D1      0.012000
     16 C12         2.5670    5.3700   -3.3510 cc        1 2D1      0.314800
     17 N2          1.5330    5.4630   -4.2880 nc        1 2D1     -0.615000
     18 C14         1.6060    6.6350   -4.9180 cd        1 2D1      0.405700
     19 C15         0.6840    7.0900   -5.9810 c3        1 2D1     -0.142400
     20 S2          2.9060    7.6410   -4.3870 ss        1 2D1      0.028700
     21 C13         3.3980    6.4990   -3.3030 cd        1 2D1     -0.227400
     22 H1          3.1370   -0.6510   -2.0040 hn        1 2D1      0.439800
     23 H2          4.6650   -1.8840    0.2150 hx        1 2D1      0.110700
     24 H3          2.9180   -2.2530   -0.2180 hx        1 2D1      0.110700
     25 H4          5.3930   -2.7220   -2.0540 hc        1 2D1      0.060200
     26 H5          3.6710   -3.1030   -2.4790 hc        1 2D1      0.060200
     27 H6          5.0720   -4.2290    0.0360 hc        1 2D1      0.057700
     28 H7          2.5810   -4.3490    0.0360 hc        1 2D1      0.046867
     29 H8          2.5960   -5.1210   -1.6060 hc        1 2D1      0.046867
     30 H9          3.3060   -5.9920   -0.1860 hc        1 2D1      0.046867
     31 H10         4.8660   -5.4450   -2.8060 hc        1 2D1      0.046867
     32 H11         6.3780   -4.8800   -1.9760 hc        1 2D1      0.046867
     33 H12         5.4560   -6.2960   -1.3190 hc        1 2D1      0.046867
     34 H13         0.9690    1.4620   -1.4230 ha        1 2D1      0.163500
     35 H14         0.6990    3.4440   -2.8730 ha        1 2D1      0.179000
     36 H15         4.7750    4.6530   -1.9520 ha        1 2D1      0.179000
     37 H16         5.0350    2.6660   -0.5070 ha        1 2D1      0.163500
     38 H17         0.9760    8.1100   -6.3350 hc        1 2D1      0.072700
     39 H18        -0.3670    7.1310   -5.5960 hc        1 2D1      0.072700
     40 H19         0.7110    6.3860   -6.8510 hc        1 2D1      0.072700
     41 H20         4.2470    6.6220   -2.6300 h4        1 2D1      0.191000
     42 H121        4.6870   -0.3200   -1.6020 hn        1 2D1      0.439800
@<TRIPOS>BOND
     1    1    2 2   
     2    2    3 2   
     3    2    4 1   
     4    2   10 1   
     5    4    5 1   
     6    4   22 1   
     7    4   42 1   
     8    5    6 1   
     9    5   23 1   
    10    5   24 1   
    11    6    7 1   
    12    6   25 1   
    13    6   26 1   
    14    7    8 1   
    15    7    9 1   
    16    7   27 1   
    17    8   28 1   
    18    8   29 1   
    19    8   30 1   
    20    9   31 1   
    21    9   32 1   
    22    9   33 1   
    23   10   11 ar  
    24   10   15 ar  
    25   11   12 ar  
    26   11   34 1   
    27   12   13 ar  
    28   12   35 1   
    29   13   14 ar  
    30   13   16 1   
    31   14   15 ar  
    32   14   36 1   
    33   15   37 1   
    34   16   17 1   
    35   16   21 2   
    36   17   18 2   
    37   18   19 1   
    38   18   20 1   
    39   19   38 1   
    40   19   39 1   
    41   19   40 1   
    42   20   21 1   
    43   21   41 1   
@<TRIPOS>SUBSTRUCTURE
     1 2D1         1 TEMP              0 ****  ****    0 ROOT
