@<TRIPOS>MOLECULE
2D2
   24    25     1     0     0
SMALL
bcc


@<TRIPOS>ATOM
      1 C1          0.1230   -0.0170   -0.0900 cc        1 2D2      0.207200
      2 C2         -0.7900    0.0170   -1.1990 ca        1 2D2     -0.069500
      3 C3          1.5060   -0.0950   -0.0010 cd        1 2D2     -0.172300
      4 O4         -0.4330    0.0380    1.2040 os        1 2D2     -0.397800
      5 C5         -2.1790    0.1000   -0.9980 ca        1 2D2     -0.132500
      6 C6         -0.2950   -0.0350   -2.5140 ca        1 2D2     -0.132500
      7 C7          1.8490   -0.0910    1.4010 cd        1 2D2     -0.245900
      8 C8          0.6510   -0.0090    2.0940 cc        1 2D2      0.274000
      9 C9         -3.0460    0.1310   -2.0860 ca        1 2D2     -0.133000
     10 C10        -1.1700   -0.0030   -3.5960 ca        1 2D2     -0.133000
     11 C11         3.2440   -0.1620    1.9570 c         1 2D2      0.931200
     12 C12         0.3350    0.0340    3.5220 c3        1 2D2     -0.138400
     13 C13        -2.5470    0.0800   -3.3880 ca        1 2D2     -0.160000
     14 O14         3.3880   -0.1480    3.2140 o         1 2D2     -0.833300
     15 O15         4.2020   -0.2320    1.1360 o         1 2D2     -0.833300
     16 H1          2.2350   -0.1520   -0.8050 ha        1 2D2      0.166000
     17 H2         -2.5680    0.1400    0.0300 ha        1 2D2      0.141500
     18 H3          0.7910   -0.1000   -2.6800 ha        1 2D2      0.141500
     19 H4         -4.1300    0.1960   -1.9170 ha        1 2D2      0.117000
     20 H5         -0.7720   -0.0440   -4.6200 ha        1 2D2      0.117000
     21 H6         -0.3110   -0.8310    3.8100 hc        1 2D2      0.057033
     22 H7         -0.2060    0.9790    3.7780 hc        1 2D2      0.057033
     23 H8          1.3060   -0.0120    4.0870 hc        1 2D2      0.057033
     24 H9         -3.2340    0.1040   -4.2440 ha        1 2D2      0.115000
@<TRIPOS>BOND
     1    1    2 1   
     2    1    3 2   
     3    1    4 1   
     4    2    5 ar  
     5    2    6 ar  
     6    3    7 1   
     7    3   16 1   
     8    4    8 1   
     9    5    9 ar  
    10    5   17 1   
    11    6   10 ar  
    12    6   18 1   
    13    7    8 2   
    14    7   11 1   
    15    8   12 1   
    16    9   13 ar  
    17    9   19 1   
    18   10   13 ar  
    19   10   20 1   
    20   11   14 1   
    21   11   15 1   
    22   12   21 1   
    23   12   22 1   
    24   12   23 1   
    25   13   24 1   
@<TRIPOS>SUBSTRUCTURE
     1 2D2         1 TEMP              0 ****  ****    0 ROOT
