@<TRIPOS>MOLECULE
2D3
   24    25     1     0     0
SMALL
bcc


@<TRIPOS>ATOM
      1 CAA        -2.0530    3.1940   -0.1600 c3        1 2D3      0.127700
      2 OAI        -1.9700    1.7800   -0.3440 os        1 2D3     -0.448900
      3 CAK        -0.8840    1.1560    0.2280 c         1 2D3      0.679700
      4 OAC        -0.1080    1.8560    0.8810 o         1 2D3     -0.519000
      5 CAO        -0.8310   -0.2700   -0.0170 cc        1 2D3     -0.269900
      6 CAL        -1.8990   -1.1700   -0.2310 cd        1 2D3     -0.019600
      7 CAB        -3.3480   -0.9300   -0.3180 c3        1 2D3     -0.054800
      8 NAG        -1.3080   -2.4330   -0.3470 na        1 2D3     -0.008600
      9 NAH         0.0170   -2.4040   -0.2420 nd        1 2D3     -0.487800
     10 CAN         0.3680   -1.0950   -0.0390 cc        1 2D3      0.313300
     11 CAM         1.7280   -0.6680    0.1170 cc        1 2D3      0.224700
     12 CAE         2.8340   -1.1750    0.7730 cd        1 2D3     -0.322600
     13 CAD         3.8860   -0.2050    0.4910 cd        1 2D3      0.296200
     14 NAF         3.3880    0.7740   -0.2810 nc        1 2D3     -0.345300
     15 OAJ         2.1180    0.5380   -0.5250 os        1 2D3     -0.096100
     16 HAA1       -2.9740    3.4780   -0.7250 h1        1 2D3      0.052033
     17 HAA2       -2.1470    3.4310    0.9270 h1        1 2D3      0.052033
     18 HAA3       -1.1450    3.6880   -0.5820 h1        1 2D3      0.052033
     19 HAB1       -3.7370   -1.2280   -1.3240 hc        1 2D3      0.070700
     20 HAB2       -3.8970   -1.5120    0.4650 hc        1 2D3      0.070700
     21 HAB3       -3.5540    0.1620   -0.1690 hc        1 2D3      0.070700
     22 HAG        -1.7770   -3.2960   -0.5050 hn        1 2D3      0.330700
     23 HAE         2.9230   -2.0780    1.3670 ha        1 2D3      0.180000
     24 HAD         4.9210   -0.2340    0.8340 h4        1 2D3      0.052100
@<TRIPOS>BOND
     1    1    2 1   
     2    1   16 1   
     3    1   17 1   
     4    1   18 1   
     5    2    3 1   
     6    3    4 2   
     7    3    5 1   
     8    5    6 2   
     9    5   10 1   
    10    6    7 1   
    11    6    8 1   
    12    7   19 1   
    13    7   20 1   
    14    7   21 1   
    15    8    9 1   
    16    8   22 1   
    17    9   10 2   
    18   10   11 1   
    19   11   12 2   
    20   11   15 1   
    21   12   13 1   
    22   12   23 1   
    23   13   14 2   
    24   13   24 1   
    25   14   15 1   
@<TRIPOS>SUBSTRUCTURE
     1 2D3         1 TEMP              0 ****  ****    0 ROOT
