@<TRIPOS>MOLECULE
2D3
   24    25     1     0     0
SMALL
bcc


@<TRIPOS>ATOM
      1 CAA         0.1450    0.8400    0.1490 c3        1 2D3      0.128700
      2 OAI         1.5350    0.8820    0.4780 os        1 2D3     -0.414900
      3 CAK         2.0740   -0.2700    0.9820 c         1 2D3      0.682700
      4 OAC         1.3400   -1.2630    1.0610 o         1 2D3     -0.562000
      5 CAO         3.4730   -0.1760    1.3390 cc        1 2D3     -0.275900
      6 CAL         4.3290   -1.2770    1.5850 cd        1 2D3     -0.015600
      7 CAB         4.0390   -2.7190    1.5740 c3        1 2D3     -0.063800
      8 NAG         5.5840   -0.7240    1.8560 na        1 2D3     -0.007600
      9 NAH         5.5900    0.6060    1.8150 nd        1 2D3     -0.491800
     10 CAN         4.3140    0.9980    1.5020 cc        1 2D3      0.317300
     11 CAM         3.9460    2.3780    1.3720 cc        1 2D3      0.228700
     12 CAE         4.5900    3.5060    0.8940 cd        1 2D3     -0.327600
     13 CAD         3.6120    4.5720    1.0710 cd        1 2D3      0.296200
     14 NAF         2.4970    4.0600    1.6190 nc        1 2D3     -0.354300
     15 OAJ         2.6550    2.7690    1.8140 os        1 2D3     -0.088100
     16 HAA1       -0.0290    0.0970   -0.6660 h1        1 2D3      0.052367
     17 HAA2       -0.4540    0.5680    1.0510 h1        1 2D3      0.052367
     18 HAA3       -0.0730    1.8830   -0.1890 h1        1 2D3      0.052367
     19 HAB1        4.2820   -3.1810    2.5650 hc        1 2D3      0.075033
     20 HAB2        2.9470   -2.8730    1.3650 hc        1 2D3      0.075033
     21 HAB3        4.6360   -3.2380    0.7820 hc        1 2D3      0.075033
     22 HAG         6.4170   -1.2190    2.0790 hn        1 2D3      0.331700
     23 HAE         5.5890    3.5980    0.4820 ha        1 2D3      0.181000
     24 HAD         3.7280    5.6250    0.8140 h4        1 2D3      0.052100
@<TRIPOS>BOND
     1    1    2 1   
     2    1   16 1   
     3    1   17 1   
     4    1   18 1   
     5    2    3 1   
     6    3    4 2   
     7    3    5 1   
     8    5    6 2   
     9    5   10 1   
    10    6    7 1   
    11    6    8 1   
    12    7   19 1   
    13    7   20 1   
    14    7   21 1   
    15    8    9 1   
    16    8   22 1   
    17    9   10 2   
    18   10   11 1   
    19   11   12 2   
    20   11   15 1   
    21   12   13 1   
    22   12   23 1   
    23   13   14 2   
    24   13   24 1   
    25   14   15 1   
@<TRIPOS>SUBSTRUCTURE
     1 2D3         1 TEMP              0 ****  ****    0 ROOT
