@<TRIPOS>MOLECULE
2D3
   24    21     1     0     0
SMALL
bcc


@<TRIPOS>ATOM
      1 CAA        -3.1110   -0.6180   -1.4680 c3        1 2D3     -0.062000
      2 OAI        -1.6640   -0.4520   -1.4820 os        1 2D3     -0.287000
      3 CAK        -1.0730   -0.5080   -0.1970 c2        1 2D3      0.380000
      4 OAC        -1.7700   -0.5950    0.7850 o         1 2D3     -0.330000
      5 CAO         0.4440   -0.4840   -0.0560 c2        1 2D3     -0.184000
      6 CAL         1.2880   -1.5280   -0.2980 c1        1 2D3      0.012000
      7 CAB         0.8610   -2.9940   -0.6620 c2        1 2D3     -0.180000
      8 NAG         2.5490   -1.1010   -0.0880 n2        1 2D3     -0.153000
      9 NAH         2.4950    0.2100    0.2870 n2        1 2D3     -0.055000
     10 CAN         1.1980    0.5880    0.3060 c2        1 2D3     -0.015000
     11 CAM         0.7290    1.8170    0.6340 c2        1 2D3      0.030000
     12 CAE         0.9250    2.4670    1.8260 c1        1 2D3     -0.192000
     13 CAD         0.3180    3.7020    1.7370 c1        1 2D3     -0.169000
     14 NAF        -0.2360    3.8040    0.5200 n2        1 2D3     -0.010000
     15 OAJ         0.0190    2.6290   -0.1700 os        1 2D3     -0.039000
     16 HAA1       -3.4460   -0.6110   -2.3760 h1        1 2D3      0.091333
     17 HAA2       -3.5210    0.1190   -0.9610 h1        1 2D3      0.091333
     18 HAA3       -3.3420   -1.4880   -1.0340 h1        1 2D3      0.091333
     19 HAB1        0.4020   -2.9960   -1.5340 ha        1 2D3      0.110000
     20 HAB2        1.6590   -3.5660   -0.7110 ha        1 2D3      0.110000
     21 HAB3        0.2530   -3.3390    0.0290 ha        1 2D3      0.110000
     22 HAG         3.3180   -1.6080   -0.1810 DU        1 2D3      0.216667
     23 HAE         1.4130    2.1150    2.6050 DU        1 2D3      0.216667
     24 HAD         0.2920    4.4340    2.4860 DU        1 2D3      0.216667
@<TRIPOS>BOND
     1    1    2 1   
     2    1   16 1   
     3    1   17 1   
     4    1   18 1   
     5    2    3 1   
     6    3    4 1   
     7    3    5 1   
     8    5    6 1   
     9    5   10 1   
    10    6    8 1   
    11    7   19 1   
    12    7   20 1   
    13    7   21 1   
    14    8    9 1   
    15    9   10 1   
    16   10   11 1   
    17   11   12 1   
    18   11   15 1   
    19   12   13 1   
    20   13   14 1   
    21   14   15 1   
@<TRIPOS>SUBSTRUCTURE
     1 2D3         1 TEMP              0 ****  ****    0 ROOT
