@<TRIPOS>MOLECULE
2D3
   24    25     1     0     0
SMALL
bcc


@<TRIPOS>ATOM
      1 CAA        -0.0320   -0.5560    0.2750 c3        1 2D3      0.127700
      2 OAI         1.3870   -0.6720    0.3880 os        1 2D3     -0.448900
      3 CAK         2.0220    0.3110    1.1110 c         1 2D3      0.679700
      4 OAC         1.3150    1.1750    1.6330 o         1 2D3     -0.519000
      5 CAO         3.4610    0.1650    1.1660 cc        1 2D3     -0.269900
      6 CAL         4.2310   -1.0180    1.1040 cd        1 2D3     -0.019600
      7 CAB         3.8180   -2.4190    0.9210 c3        1 2D3     -0.054800
      8 NAG         5.5590   -0.6110    1.2700 na        1 2D3     -0.008600
      9 NAH         5.6900    0.7050    1.4110 nd        1 2D3     -0.487800
     10 CAN         4.4290    1.2350    1.3540 cc        1 2D3      0.313300
     11 CAM         4.1690    2.6410    1.4640 cc        1 2D3      0.224700
     12 CAE         4.6750    3.6620    2.2480 cd        1 2D3     -0.322600
     13 CAD         3.9380    4.8420    1.8100 cd        1 2D3      0.296200
     14 NAF         3.0820    4.4900    0.8360 nc        1 2D3     -0.345300
     15 OAJ         3.1880    3.2000    0.6030 os        1 2D3     -0.096100
     16 HAA1       -0.5000   -0.6210    1.2870 h1        1 2D3      0.052033
     17 HAA2       -0.2980    0.4150   -0.2080 h1        1 2D3      0.052033
     18 HAA3       -0.3160   -1.4260   -0.3660 h1        1 2D3      0.052033
     19 HAB1        4.1440   -3.0480    1.7870 hc        1 2D3      0.070700
     20 HAB2        2.7020   -2.4700    0.8380 hc        1 2D3      0.070700
     21 HAB3        4.2620   -2.8410   -0.0160 hc        1 2D3      0.070700
     22 HAG         6.3640   -1.1960    1.2750 hn        1 2D3      0.330700
     23 HAE         5.4390    3.6190    3.0170 ha        1 2D3      0.180000
     24 HAD         4.0370    5.8610    2.1860 h4        1 2D3      0.052100
@<TRIPOS>BOND
     1    1    2 1   
     2    1   16 1   
     3    1   17 1   
     4    1   18 1   
     5    2    3 1   
     6    3    4 2   
     7    3    5 1   
     8    5    6 2   
     9    5   10 1   
    10    6    7 1   
    11    6    8 1   
    12    7   19 1   
    13    7   20 1   
    14    7   21 1   
    15    8    9 1   
    16    8   22 1   
    17    9   10 2   
    18   10   11 1   
    19   11   12 2   
    20   11   15 1   
    21   12   13 1   
    22   12   23 1   
    23   13   14 2   
    24   13   24 1   
    25   14   15 1   
@<TRIPOS>SUBSTRUCTURE
     1 2D3         1 TEMP              0 ****  ****    0 ROOT
