@<TRIPOS>MOLECULE
2D4
   42    45     1     0     0
SMALL
bcc


@<TRIPOS>ATOM
      1 C8         -4.0300    0.5160   -1.4460 cc        1 2D4     -0.023000
      2 C11        -4.2670    1.7530   -2.0850 cc        1 2D4     -0.181000
      3 C10        -4.3260    2.7850   -1.1530 cd        1 2D4     -0.175100
      4 S2         -4.1110    2.2380    0.3730 ss        1 2D4      0.269200
      5 C1         -3.9160    0.6500   -0.0520 cd        1 2D4     -0.509600
      6 S1         -3.6760   -0.6850    0.9020 sy        1 2D4      1.558200
      7 O2         -4.3680   -0.5170    2.1220 o         1 2D4     -0.653300
      8 O1         -3.9760   -1.8400    0.1550 o         1 2D4     -0.653300
      9 N          -2.0850   -0.6220    1.2680 nh        1 2D4     -0.777500
     10 C9         -0.9940   -0.8740    0.4190 ca        1 2D4      0.125600
     11 C6          0.1890   -0.1220    0.5520 ca        1 2D4     -0.131000
     12 C16        -1.0490   -1.8880   -0.5670 ca        1 2D4     -0.129000
     13 C15         0.0390   -2.1240   -1.3910 ca        1 2D4     -0.139000
     14 C5          1.2160   -1.3680   -1.2450 ca        1 2D4      0.127100
     15 O3          2.2360   -1.6770   -2.1100 oh        1 2D4     -0.495100
     16 C2          1.2990   -0.3580   -0.2690 cp        1 2D4     -0.109000
     17 C3          2.5030    0.4570   -0.0980 cp        1 2D4     -0.147000
     18 C4          3.7130   -0.1220    0.3990 ca        1 2D4      0.003000
     19 C17         3.8040   -1.5030    0.7290 ca        1 2D4     -0.139000
     20 C19         4.9730   -2.0350    1.2130 ca        1 2D4     -0.110000
     21 C20         6.1140   -1.2180    1.3900 ca        1 2D4     -0.137000
     22 C18         6.0570    0.1180    1.0790 ca        1 2D4     -0.106000
     23 C12         4.8580    0.6950    0.5790 ca        1 2D4     -0.069000
     24 C14         4.7910    2.0810    0.2610 ca        1 2D4     -0.080000
     25 C13         3.6350    2.6370   -0.2130 ca        1 2D4     -0.148000
     26 C7          2.4820    1.8160   -0.3890 ca        1 2D4      0.156100
     27 O4          1.3790    2.4840   -0.8620 oh        1 2D4     -0.498100
     28 H8         -3.9590   -0.4450   -1.9710 ha        1 2D4      0.179000
     29 H11        -4.3880    1.8710   -3.1640 ha        1 2D4      0.165000
     30 H10        -4.5010    3.8320   -1.4080 h4        1 2D4      0.182000
     31 H          -1.8060   -0.3340    2.1810 hn        1 2D4      0.453800
     32 H6          0.2680    0.6620    1.3230 ha        1 2D4      0.142000
     33 H16        -1.9600   -2.5020   -0.6880 ha        1 2D4      0.175000
     34 H15         0.0000   -2.9080   -2.1620 ha        1 2D4      0.158000
     35 H3          3.0190   -1.1630   -1.8510 ho        1 2D4      0.435000
     36 H17         2.9140   -2.1370    0.5890 ha        1 2D4      0.145000
     37 H19         5.0350   -3.1040    1.4690 ha        1 2D4      0.137000
     38 H20         7.0400   -1.6660    1.7790 ha        1 2D4      0.136000
     39 H18         6.9370    0.7660    1.2110 ha        1 2D4      0.134000
     40 H14         5.6910    2.6990    0.4050 ha        1 2D4      0.140000
     41 H13         3.5590    3.7050   -0.4650 ha        1 2D4      0.155000
     42 H4          0.6560    1.8460   -0.9720 ho        1 2D4      0.432000
@<TRIPOS>BOND
     1    1    2 1   
     2    1    5 2   
     3    1   28 1   
     4    2    3 2   
     5    2   29 1   
     6    3    4 1   
     7    3   30 1   
     8    4    5 1   
     9    5    6 1   
    10    6    7 2   
    11    6    8 2   
    12    6    9 1   
    13    9   10 1   
    14    9   31 1   
    15   10   11 ar  
    16   10   12 ar  
    17   11   16 ar  
    18   11   32 1   
    19   12   13 ar  
    20   12   33 1   
    21   13   14 ar  
    22   13   34 1   
    23   14   15 1   
    24   14   16 ar  
    25   15   35 1   
    26   16   17 1   
    27   17   18 ar  
    28   17   26 ar  
    29   18   19 ar  
    30   18   23 ar  
    31   19   20 ar  
    32   19   36 1   
    33   20   21 ar  
    34   20   37 1   
    35   21   22 ar  
    36   21   38 1   
    37   22   23 ar  
    38   22   39 1   
    39   23   24 ar  
    40   24   25 ar  
    41   24   40 1   
    42   25   26 ar  
    43   25   41 1   
    44   26   27 1   
    45   27   42 1   
@<TRIPOS>SUBSTRUCTURE
     1 2D4         1 TEMP              0 ****  ****    0 ROOT
