@<TRIPOS>MOLECULE
2D4
   42    45     1     0     0
SMALL
bcc


@<TRIPOS>ATOM
      1 C8         -0.7380    1.1000    0.2140 cc        1 2D4     -0.021000
      2 C11         0.5660    1.5780   -0.0430 cc        1 2D4     -0.180000
      3 C10         1.4350    1.2160    0.9830 cd        1 2D4     -0.175100
      4 S2          0.6710    0.3630    2.1510 ss        1 2D4      0.265200
      5 C1         -0.8160    0.3910    1.4250 cd        1 2D4     -0.503600
      6 S1         -2.2660   -0.2280    1.9430 sy        1 2D4      1.557200
      7 O2         -2.3580   -0.0870    3.3450 o         1 2D4     -0.655800
      8 O1         -3.3030    0.3450    1.1820 o         1 2D4     -0.655800
      9 N          -2.1390   -1.8280    1.6530 nu        1 2D4     -0.777500
     10 C9         -2.1450   -2.4800    0.4070 ca        1 2D4      0.119600
     11 C6         -1.3280   -3.6130    0.2010 ca        1 2D4     -0.115000
     12 C16        -2.9700   -2.0360   -0.6490 ca        1 2D4     -0.125000
     13 C15        -2.9570   -2.6970   -1.8700 ca        1 2D4     -0.195000
     14 C5         -2.1400   -3.8200   -2.0630 ca        1 2D4      0.130100
     15 O3         -2.1130   -4.5020   -3.2570 oh        1 2D4     -0.484100
     16 C2         -1.3180   -4.2920   -1.0180 cp        1 2D4     -0.027000
     17 C3         -0.4540   -5.4630   -1.1890 cp        1 2D4     -0.058000
     18 C4         -0.8840   -6.7440   -0.7260 ca        1 2D4      0.013000
     19 C17        -2.1470   -6.9240   -0.0930 ca        1 2D4     -0.124000
     20 C19        -2.5430   -8.1630    0.3450 ca        1 2D4     -0.118000
     21 C20        -1.7010   -9.2880    0.1750 ca        1 2D4     -0.137000
     22 C18        -0.4790   -9.1460   -0.4330 ca        1 2D4     -0.109000
     23 C12        -0.0430   -7.8740   -0.8970 ca        1 2D4     -0.069000
     24 C14         1.2190   -7.7190   -1.5310 ca        1 2D4     -0.075000
     25 C13         1.6330   -6.4900   -1.9720 ca        1 2D4     -0.198000
     26 C7          0.7920   -5.3550   -1.7970 ca        1 2D4      0.142100
     27 O4          1.2070   -4.1090   -2.2110 oh        1 2D4     -0.489100
     28 H8         -1.5980    1.2700   -0.4450 ha        1 2D4      0.178000
     29 H11         0.8430    2.1530   -0.9280 ha        1 2D4      0.163000
     30 H10         2.4950    1.4720    1.0070 h4        1 2D4      0.180000
     31 H          -1.9830   -2.4520    2.4140 hn        1 2D4      0.452800
     32 H6         -0.6820   -3.9840    1.0130 ha        1 2D4      0.141000
     33 H16        -3.6300   -1.1600   -0.5170 ha        1 2D4      0.171000
     34 H15        -3.5970   -2.3380   -2.6890 ha        1 2D4      0.138000
     35 H3         -2.7160   -4.0520   -3.8670 ho        1 2D4      0.417000
     36 H17        -2.7990   -6.0460    0.0340 ha        1 2D4      0.142000
     37 H19        -3.5210   -8.2970    0.8310 ha        1 2D4      0.133000
     38 H20        -2.0410  -10.2710    0.5330 ha        1 2D4      0.133000
     39 H18         0.1850  -10.0120   -0.5730 ha        1 2D4      0.131000
     40 H14         1.8580   -8.6060   -1.6610 ha        1 2D4      0.135000
     41 H13         2.6070   -6.3620   -2.4640 ha        1 2D4      0.134000
     42 H4          2.0310   -4.2210   -2.7060 ho        1 2D4      0.417000
@<TRIPOS>BOND
     1    1    2 1   
     2    1    5 2   
     3    1   28 1   
     4    2    3 2   
     5    2   29 1   
     6    3    4 1   
     7    3   30 1   
     8    4    5 1   
     9    5    6 1   
    10    6    7 2   
    11    6    8 2   
    12    6    9 1   
    13    9   10 1   
    14    9   31 1   
    15   10   11 ar  
    16   10   12 ar  
    17   11   16 ar  
    18   11   32 1   
    19   12   13 ar  
    20   12   33 1   
    21   13   14 ar  
    22   13   34 1   
    23   14   15 1   
    24   14   16 ar  
    25   15   35 1   
    26   16   17 1   
    27   17   18 ar  
    28   17   26 ar  
    29   18   19 ar  
    30   18   23 ar  
    31   19   20 ar  
    32   19   36 1   
    33   20   21 ar  
    34   20   37 1   
    35   21   22 ar  
    36   21   38 1   
    37   22   23 ar  
    38   22   39 1   
    39   23   24 ar  
    40   24   25 ar  
    41   24   40 1   
    42   25   26 ar  
    43   25   41 1   
    44   26   27 1   
    45   27   42 1   
@<TRIPOS>SUBSTRUCTURE
     1 2D4         1 TEMP              0 ****  ****    0 ROOT
