@<TRIPOS>MOLECULE
2D4
   43    46     1     0     0
SMALL
bcc


@<TRIPOS>ATOM
      1 C8         -0.1880    0.0550    0.0310 cc        1 2D4      0.019000
      2 C11         1.2070    0.0550    0.0190 cc        1 2D4     -0.161000
      3 C10         1.7130    0.0830    1.3300 cd        1 2D4     -0.139100
      4 S2          0.5450    0.1120    2.4390 ss        1 2D4      0.398200
      5 C1         -0.7270    0.0820    1.3590 cd        1 2D4     -0.696600
      6 S1         -2.2750    0.1750    1.5830 sy        1 2D4      1.543200
      7 O2         -2.6480    0.5000    2.8750 o         1 2D4     -0.583300
      8 O1         -3.0250    0.6190    0.5170 o         1 2D4     -0.583300
      9 N          -2.7510   -1.7070    1.6420 n4        1 2D4     -0.546300
     10 C9         -2.6510   -2.3950    0.3680 ca        1 2D4     -0.110400
     11 C6         -1.7030   -3.4230    0.1950 ca        1 2D4     -0.069000
     12 C16        -3.5220   -2.0540   -0.6840 ca        1 2D4     -0.056000
     13 C15        -3.4220   -2.7170   -1.8970 ca        1 2D4     -0.211000
     14 C5         -2.4640   -3.7320   -2.0780 ca        1 2D4      0.200100
     15 O3         -2.3370   -4.4070   -3.2550 oh        1 2D4     -0.452100
     16 C2         -1.5900   -4.0920   -1.0210 cp        1 2D4     -0.011000
     17 C3         -0.5790   -5.1380   -1.1860 cp        1 2D4     -0.103000
     18 C4         -0.8010   -6.4420   -0.6450 ca        1 2D4      0.016000
     19 C17        -1.9900   -6.7710    0.0630 ca        1 2D4     -0.149000
     20 C19        -2.1830   -8.0340    0.5680 ca        1 2D4     -0.097000
     21 C20        -1.1970   -9.0340    0.3940 ca        1 2D4     -0.131000
     22 C18        -0.0400   -8.7470   -0.2880 ca        1 2D4     -0.096000
     23 C12         0.1830   -7.4490   -0.8230 ca        1 2D4     -0.069000
     24 C14         1.3730   -7.1500   -1.5410 ca        1 2D4     -0.051000
     25 C13         1.5850   -5.8980   -2.0550 ca        1 2D4     -0.203000
     26 C7          0.6020   -4.8850   -1.8720 ca        1 2D4      0.159100
     27 O4          0.8150   -3.6100   -2.3480 oh        1 2D4     -0.510100
     28 H8         -0.8170    0.0500   -0.8700 ha        1 2D4      0.193000
     29 H11         1.8220    0.0360   -0.8870 ha        1 2D4      0.196000
     30 H10         2.7880    0.0920    1.5530 h4        1 2D4      0.215000
     31 H          -2.1730   -2.1920    2.3240 hn        1 2D4      0.440800
     32 H6         -1.0300   -3.7200    1.0170 ha        1 2D4      0.152000
     33 H16        -4.2720   -1.2510   -0.5670 ha        1 2D4      0.169000
     34 H15        -4.0990   -2.4470   -2.7230 ha        1 2D4      0.165000
     35 H3         -3.0050   -4.0760   -3.8800 ho        1 2D4      0.439000
     36 H17        -2.7600   -5.9970    0.1910 ha        1 2D4      0.126000
     37 H19        -3.1080   -8.2850    1.1090 ha        1 2D4      0.140000
     38 H20        -1.3730  -10.0390    0.8060 ha        1 2D4      0.147000
     39 H18         0.7330   -9.5180   -0.4360 ha        1 2D4      0.144000
     40 H14         2.1230   -7.9460   -1.6780 ha        1 2D4      0.150000
     41 H13         2.5010   -5.6600   -2.6160 ha        1 2D4      0.146000
     42 H4          1.5670   -3.6430   -2.9590 ho        1 2D4      0.431000
     43 HN3        -3.7160   -1.7780    1.9670 hn        1 2D4      0.440800
@<TRIPOS>BOND
     1    1    2 1   
     2    1    5 2   
     3    1   28 1   
     4    2    3 2   
     5    2   29 1   
     6    3    4 1   
     7    3   30 1   
     8    4    5 1   
     9    5    6 1   
    10    6    7 2   
    11    6    8 2   
    12    6    9 1   
    13    9   10 1   
    14    9   31 1   
    15    9   43 1   
    16   10   11 ar  
    17   10   12 ar  
    18   11   16 ar  
    19   11   32 1   
    20   12   13 ar  
    21   12   33 1   
    22   13   14 ar  
    23   13   34 1   
    24   14   15 1   
    25   14   16 ar  
    26   15   35 1   
    27   16   17 1   
    28   17   18 ar  
    29   17   26 ar  
    30   18   19 ar  
    31   18   23 ar  
    32   19   20 ar  
    33   19   36 1   
    34   20   21 ar  
    35   20   37 1   
    36   21   22 ar  
    37   21   38 1   
    38   22   23 ar  
    39   22   39 1   
    40   23   24 ar  
    41   24   25 ar  
    42   24   40 1   
    43   25   26 ar  
    44   25   41 1   
    45   26   27 1   
    46   27   42 1   
@<TRIPOS>SUBSTRUCTURE
     1 2D4         1 TEMP              0 ****  ****    0 ROOT
