@<TRIPOS>MOLECULE
2D4
   42    33     1     0     0
SMALL
bcc


@<TRIPOS>ATOM
      1 C8         -2.6330    0.8280   -5.1570 c1        1 2D4     -0.102000
      2 C11        -3.0940    1.6060   -6.4670 c1        1 2D4     -0.102000
      3 C10        -3.6830    2.8690   -6.0630 c1        1 2D4     -0.839000
      4 S2         -3.6240    2.9500   -4.5150 ss        1 2D4      0.825000
      5 C1         -2.9570    1.6450   -4.0030 c1        1 2D4     -0.839000
      6 S1         -2.7300    1.1870   -2.3050 ss        1 2D4      2.910000
      7 O2         -2.7140   -0.2410   -2.1470 o         1 2D4     -0.933500
      8 O1         -3.8740    1.5430   -1.5120 o         1 2D4     -0.933500
      9 N          -1.3590    1.8680   -1.7110 n2        1 2D4     -0.832000
     10 C9         -0.8510    1.4580   -0.4500 c2        1 2D4      0.045000
     11 C6         -0.0910    0.3020   -0.3540 c2        1 2D4     -0.127000
     12 C16        -1.0300    2.2640    0.6630 c1        1 2D4     -0.122000
     13 C15        -0.4500    1.9140    1.8730 c1        1 2D4     -0.189000
     14 C5          0.3090    0.7580    1.9690 c1        1 2D4      0.053000
     15 O3          0.9010    0.4050    3.1960 o         1 2D4     -0.250000
     16 C2          0.4890   -0.0480    0.8560 c1        1 2D4     -0.032000
     17 C3          1.2420   -1.2070    0.9540 c1        1 2D4     -0.122000
     18 C4          2.3050   -1.2850    1.8740 c1        1 2D4     -0.024000
     19 C17         3.3670   -0.3640    1.8040 c2        1 2D4     -0.107000
     20 C19         4.4150   -0.4420    2.7120 c1        1 2D4     -0.132000
     21 C20         4.4160   -1.4310    3.6910 c1        1 2D4     -0.123500
     22 C18         3.3680   -2.3410    3.7610 c1        1 2D4     -0.123500
     23 C12         2.3060   -2.2630    2.8410 c1        1 2D4     -0.024000
     24 C14         1.2440   -3.1840    2.9110 c2        1 2D4     -0.107000
     25 C13         0.1960   -3.1060    2.0030 c1        1 2D4     -0.132000
     26 C7          0.1950   -2.1170    1.0240 c1        1 2D4      0.123000
     27 O4         -0.9130   -2.4730    0.2360 oh        1 2D4     -0.249000
     28 H8         -2.2050   -0.0500   -5.1350 DU        1 2D4      0.174667
     29 H11        -2.9980    1.2880   -7.3850 DU        1 2D4      0.174667
     30 H10        -4.0510    3.5490   -6.6600 DU        1 2D4      0.174667
     31 H          -0.9420    2.5320   -2.1760 hn        1 2D4      0.242000
     32 H6          0.0350   -0.2660   -1.1380 ha        1 2D4      0.183000
     33 H16        -1.5650    3.0780    0.5960 ha        1 2D4      0.137000
     34 H15        -0.5760    2.4810    2.6560 ha        1 2D4      0.138000
     35 H3          0.4420    0.7730    3.8630 ho        1 2D4      0.221000
     36 H17         3.3670    0.3300    1.1180 ha        1 2D4      0.136000
     37 H19         5.1510    0.1970    2.6640 ha        1 2D4      0.140500
     38 H20         5.1530   -1.4860    4.3290 ha        1 2D4      0.130000
     39 H18         3.3690   -3.0350    4.4480 ha        1 2D4      0.130000
     40 H14         1.2440   -3.8780    3.5970 ha        1 2D4      0.136000
     41 H13        -0.5410   -3.7450    2.0510 ha        1 2D4      0.140500
     42 H4         -0.6320   -2.8610   -0.5140 ho        1 2D4      0.231000
@<TRIPOS>BOND
     1    1    2 1   
     2    1    5 1   
     3    2    3 1   
     4    3    4 1   
     5    4    5 1   
     6    6    7 1   
     7    6    8 1   
     8    9   10 1   
     9    9   31 1   
    10   10   11 1   
    11   10   12 1   
    12   11   16 1   
    13   11   32 1   
    14   12   33 1   
    15   13   14 1   
    16   13   34 1   
    17   14   16 1   
    18   15   35 1   
    19   17   26 1   
    20   18   19 1   
    21   18   23 1   
    22   19   20 1   
    23   19   36 1   
    24   20   37 1   
    25   21   22 1   
    26   21   38 1   
    27   22   39 1   
    28   23   24 1   
    29   24   25 1   
    30   24   40 1   
    31   25   41 1   
    32   26   27 1   
    33   27   42 1   
@<TRIPOS>SUBSTRUCTURE
     1 2D4         1 TEMP              0 ****  ****    0 ROOT
