@<TRIPOS>MOLECULE
2D4
   42    45     1     0     0
SMALL
bcc


@<TRIPOS>ATOM
      1 C8         -0.7320    1.1030    0.2060 cc        1 2D4     -0.021000
      2 C11         0.5680    1.5820   -0.0670 cc        1 2D4     -0.180000
      3 C10         1.4500    1.2200    0.9460 cd        1 2D4     -0.175100
      4 S2          0.7020    0.3670    2.1250 ss        1 2D4      0.265200
      5 C1         -0.7950    0.3950    1.4180 cd        1 2D4     -0.503600
      6 S1         -2.2370   -0.2250    1.9540 sy        1 2D4      1.557200
      7 O2         -2.3120   -0.0830    3.3580 o         1 2D4     -0.655800
      8 O1         -3.2840    0.3470    1.2060 o         1 2D4     -0.655800
      9 N          -2.1130   -1.8250    1.6650 nh        1 2D4     -0.777500
     10 C9         -2.1320   -2.4780    0.4190 ca        1 2D4      0.119600
     11 C6         -1.3190   -3.6130    0.2070 ca        1 2D4     -0.115000
     12 C16        -2.9680   -2.0340   -0.6290 ca        1 2D4     -0.125000
     13 C15        -2.9670   -2.6960   -1.8490 ca        1 2D4     -0.195000
     14 C5         -2.1540   -3.8210   -2.0490 ca        1 2D4      0.130100
     15 O3         -2.1400   -4.5040   -3.2430 oh        1 2D4     -0.485100
     16 C2         -1.3230   -4.2930   -1.0120 cp        1 2D4     -0.027000
     17 C3         -0.4620   -5.4660   -1.1910 cp        1 2D4     -0.058000
     18 C4         -0.8900   -6.7460   -0.7240 ca        1 2D4      0.013000
     19 C17        -2.1480   -6.9240   -0.0800 ca        1 2D4     -0.124000
     20 C19        -2.5430   -8.1620    0.3610 ca        1 2D4     -0.118000
     21 C20        -1.7040   -9.2890    0.1840 ca        1 2D4     -0.137000
     22 C18        -0.4870   -9.1490   -0.4340 ca        1 2D4     -0.109000
     23 C12        -0.0530   -7.8780   -0.9020 ca        1 2D4     -0.069000
     24 C14         1.2040   -7.7250   -1.5470 ca        1 2D4     -0.075000
     25 C13         1.6160   -6.4970   -1.9910 ca        1 2D4     -0.198000
     26 C7          0.7790   -5.3600   -1.8090 ca        1 2D4      0.142100
     27 O4          1.1920   -4.1140   -2.2260 oh        1 2D4     -0.489100
     28 H8         -1.6000    1.2730   -0.4420 ha        1 2D4      0.178000
     29 H11         0.8330    2.1570   -0.9570 ha        1 2D4      0.163000
     30 H10         2.5110    1.4760    0.9580 h4        1 2D4      0.180000
     31 H          -1.9480   -2.4480    2.4250 hn        1 2D4      0.452800
     32 H6         -0.6650   -3.9840    1.0120 ha        1 2D4      0.141000
     33 H16        -3.6260   -1.1570   -0.4910 ha        1 2D4      0.171000
     34 H15        -3.6160   -2.3380   -2.6620 ha        1 2D4      0.138000
     35 H3         -2.7480   -4.0530   -3.8480 ho        1 2D4      0.417000
     36 H17        -2.7980   -6.0450    0.0530 ha        1 2D4      0.142000
     37 H19        -3.5170   -8.2940    0.8560 ha        1 2D4      0.133000
     38 H20        -2.0420  -10.2710    0.5450 ha        1 2D4      0.133000
     39 H18         0.1740  -10.0160   -0.5800 ha        1 2D4      0.131000
     40 H14         1.8400   -8.6130   -1.6830 ha        1 2D4      0.135000
     41 H13         2.5870   -6.3700   -2.4910 ha        1 2D4      0.134000
     42 H4          2.0120   -4.2280   -2.7290 ho        1 2D4      0.417000
@<TRIPOS>BOND
     1    1    2 1   
     2    1    5 2   
     3    1   28 1   
     4    2    3 2   
     5    2   29 1   
     6    3    4 1   
     7    3   30 1   
     8    4    5 1   
     9    5    6 1   
    10    6    7 2   
    11    6    8 2   
    12    6    9 1   
    13    9   10 1   
    14    9   31 1   
    15   10   11 ar  
    16   10   12 ar  
    17   11   16 ar  
    18   11   32 1   
    19   12   13 ar  
    20   12   33 1   
    21   13   14 ar  
    22   13   34 1   
    23   14   15 1   
    24   14   16 ar  
    25   15   35 1   
    26   16   17 1   
    27   17   18 ar  
    28   17   26 ar  
    29   18   19 ar  
    30   18   23 ar  
    31   19   20 ar  
    32   19   36 1   
    33   20   21 ar  
    34   20   37 1   
    35   21   22 ar  
    36   21   38 1   
    37   22   23 ar  
    38   22   39 1   
    39   23   24 ar  
    40   24   25 ar  
    41   24   40 1   
    42   25   26 ar  
    43   25   41 1   
    44   26   27 1   
    45   27   42 1   
@<TRIPOS>SUBSTRUCTURE
     1 2D4         1 TEMP              0 ****  ****    0 ROOT
