@<TRIPOS>MOLECULE
2D5
   65    69     1     0     0
SMALL
bcc


@<TRIPOS>ATOM
      1 N01         0.0840   -1.2620   -1.4490 nh        1 2D5     -0.950500
      2 C02         1.4410   -1.2600   -1.2860 ca        1 2D5      0.769200
      3 N03         2.0450   -2.0810   -0.3580 nb        1 2D5     -0.787000
      4 C04         3.3990   -2.0490   -0.2720 ca        1 2D5      0.698900
      5 N05         4.3020   -1.3160   -0.9700 nb        1 2D5     -0.765000
      6 C06         3.7100   -0.4940   -1.8870 ca        1 2D5      0.458800
      7 C07         2.2700   -0.4130   -2.0980 ca        1 2D5     -0.234200
      8 N08         1.9830    0.5340   -3.0940 nc        1 2D5     -0.538100
      9 C09         3.1730    1.0120   -3.4780 cd        1 2D5      0.407700
     10 N10         4.2680    0.4140   -2.8020 na        1 2D5     -0.301000
     11 C11         5.6600    0.7940   -2.8660 c3        1 2D5      0.229800
     12 O12         5.8770    1.6880   -3.9650 os        1 2D5     -0.403600
     13 C13         6.5690    1.0360   -5.0380 c3        1 2D5      0.106100
     14 C14         7.1610   -0.2880   -4.4980 c3        1 2D5      0.131100
     15 O15         8.5600   -0.3020   -4.6160 oh        1 2D5     -0.576800
     16 C16         6.6400   -0.4110   -3.0490 c3        1 2D5      0.086100
     17 O17         7.7280   -0.2360   -2.1670 oh        1 2D5     -0.595800
     18 C18         5.6290    0.8020   -6.2060 c3        1 2D5     -0.015300
     19 S19         5.6010    2.2770   -7.1940 ss        1 2D5     -0.318200
     20 C20         4.9120    1.7060   -8.7230 c3        1 2D5     -0.022300
     21 C21         4.9350    2.8620   -9.6910 c3        1 2D5     -0.088400
     22 C22         6.3800    3.2260  -10.0230 c3        1 2D5      0.085800
     23 N23         6.5010    4.5590  -10.6770 n4        1 2D5     -0.660800
     24 C24         7.9150    4.9210  -11.0710 c         1 2D5      0.528100
     25 C25         8.0980    6.1970  -11.9200 c3        1 2D5      0.125500
     26 N26         6.9960    7.1180  -11.7410 n3        1 2D5     -0.860200
     27 C27         6.2510    7.4630  -12.9410 c3        1 2D5      0.210100
     28 C28         7.0970    7.6710  -14.1580 ca        1 2D5     -0.131300
     29 C29         6.8430    8.6820  -15.0820 ca        1 2D5     -0.101000
     30 C30         7.6700    8.8180  -16.1990 ca        1 2D5     -0.106000
     31 C31         8.7490    7.9550  -16.3840 ca        1 2D5     -0.107000
     32 C32         9.0090    6.9420  -15.4580 ca        1 2D5     -0.103000
     33 C33         8.1790    6.7950  -14.3460 ca        1 2D5     -0.105300
     34 C34         8.3760    5.7050  -13.3580 c3        1 2D5     -0.038100
     35 O35         8.8070    4.1740  -10.7090 o         1 2D5     -0.409100
     36 H011       -0.4950   -1.8000   -0.8520 hn        1 2D5      0.452800
     37 H012       -0.3250   -0.6020   -2.0630 hn        1 2D5      0.452800
     38 H041        3.8300   -2.7310    0.4940 h5        1 2D5      0.058100
     39 H091        3.3440    1.7960   -4.2260 h5        1 2D5      0.080800
     40 H111        5.9270    1.3910   -1.9410 h2        1 2D5      0.111700
     41 H131        7.3940    1.7480   -5.3280 h1        1 2D5      0.099700
     42 H141        6.8160   -1.1680   -5.1080 h1        1 2D5      0.090700
     43 H151        8.9390    0.2080   -3.8850 ho        1 2D5      0.433000
     44 H161        6.1450   -1.4040   -2.8920 h1        1 2D5      0.097700
     45 H171        7.5040   -0.6930   -1.3450 ho        1 2D5      0.441000
     46 H181        5.9870   -0.0550   -6.8260 h1        1 2D5      0.083200
     47 H182        4.5990    0.5710   -5.8360 h1        1 2D5      0.083200
     48 H201        5.4940    0.8380   -9.1180 h1        1 2D5      0.085200
     49 H202        3.8570    1.3650   -8.5740 h1        1 2D5      0.085200
     50 H211        4.3950    3.7350   -9.2320 hc        1 2D5      0.073700
     51 H212        4.3860    2.5760  -10.6280 hc        1 2D5      0.073700
     52 H221        6.8300    2.4570  -10.7140 hx        1 2D5      0.124200
     53 H222        6.9980    3.2440   -9.0710 hx        1 2D5      0.124200
     54 H231        5.9150    4.5910  -11.5200 hn        1 2D5      0.463800
     55 H251        9.0600    6.6490  -11.5160 h1        1 2D5      0.116700
     56 H261        7.3170    7.9480  -11.2750 hn        1 2D5      0.404800
     57 H271        5.5320    6.6160  -13.1470 h1        1 2D5      0.068700
     58 H272        5.6420    8.3860  -12.7190 h1        1 2D5      0.068700
     59 H291        5.9960    9.3700  -14.9340 ha        1 2D5      0.146000
     60 H301        7.4690    9.6140  -16.9340 ha        1 2D5      0.154000
     61 H311        9.4010    8.0690  -17.2640 ha        1 2D5      0.154000
     62 H321        9.8630    6.2630  -15.6080 ha        1 2D5      0.146000
     63 H341        9.4250    5.3060  -13.3980 hc        1 2D5      0.072200
     64 H342        7.6780    4.8630  -13.6140 hc        1 2D5      0.072200
     65 H232        6.1560    5.2850  -10.0340 hn        1 2D5      0.463800
@<TRIPOS>BOND
     1    1    2 1   
     2    1   36 1   
     3    1   37 1   
     4    2    3 ar  
     5    2    7 ar  
     6    3    4 ar  
     7    4    5 ar  
     8    4   38 1   
     9    5    6 ar  
    10    6    7 ar  
    11    6   10 1   
    12    7    8 1   
    13    8    9 2   
    14    9   10 1   
    15    9   39 1   
    16   10   11 1   
    17   11   12 1   
    18   11   16 1   
    19   11   40 1   
    20   12   13 1   
    21   13   14 1   
    22   13   18 1   
    23   13   41 1   
    24   14   15 1   
    25   14   16 1   
    26   14   42 1   
    27   15   43 1   
    28   16   17 1   
    29   16   44 1   
    30   17   45 1   
    31   18   19 1   
    32   18   46 1   
    33   18   47 1   
    34   19   20 1   
    35   20   21 1   
    36   20   48 1   
    37   20   49 1   
    38   21   22 1   
    39   21   50 1   
    40   21   51 1   
    41   22   23 1   
    42   22   52 1   
    43   22   53 1   
    44   23   24 1   
    45   23   54 1   
    46   23   65 1   
    47   24   25 1   
    48   24   35 2   
    49   25   26 1   
    50   25   34 1   
    51   25   55 1   
    52   26   27 1   
    53   26   56 1   
    54   27   28 1   
    55   27   57 1   
    56   27   58 1   
    57   28   29 ar  
    58   28   33 ar  
    59   29   30 ar  
    60   29   59 1   
    61   30   31 ar  
    62   30   60 1   
    63   31   32 ar  
    64   31   61 1   
    65   32   33 ar  
    66   32   62 1   
    67   33   34 1   
    68   34   63 1   
    69   34   64 1   
@<TRIPOS>SUBSTRUCTURE
     1 2D5         1 TEMP              0 ****  ****    0 ROOT
