@<TRIPOS>MOLECULE
2D5
   64    68     1     0     0
SMALL
bcc


@<TRIPOS>ATOM
      1 N01         0.7930    0.3390    0.1330 nh        1 2D5     -0.959500
      2 C02         2.0840   -0.0810   -0.0390 ca        1 2D5      0.766200
      3 N03         2.8260   -0.5440    1.0250 nb        1 2D5     -0.794000
      4 C04         4.0910   -0.9680    0.7710 ca        1 2D5      0.691900
      5 N05         4.7820   -1.0130   -0.3940 nb        1 2D5     -0.735000
      6 C06         4.0560   -0.5480   -1.4520 ca        1 2D5      0.477800
      7 C07         2.6850   -0.0620   -1.3420 ca        1 2D5     -0.239200
      8 N08         2.2150    0.3420   -2.6020 nc        1 2D5     -0.532100
      9 C09         3.2330    0.1200   -3.4410 cd        1 2D5      0.397700
     10 N10         4.3780   -0.4480   -2.8190 na        1 2D5     -0.285000
     11 C11         5.6810   -0.6690   -3.3900 c3        1 2D5      0.217800
     12 O12         6.4360    0.5460   -3.4920 os        1 2D5     -0.406600
     13 C13         6.4770    1.0360   -4.8400 c3        1 2D5      0.129100
     14 C14         6.0180   -0.1130   -5.7630 c3        1 2D5      0.072100
     15 O15         7.1160   -0.4570   -6.5860 oh        1 2D5     -0.590800
     16 C16         5.6350   -1.2810   -4.8260 c3        1 2D5      0.078100
     17 O17         6.5450   -2.3480   -4.9450 oh        1 2D5     -0.576800
     18 C18         5.6230    2.2840   -4.9610 c3        1 2D5     -0.046300
     19 S19         6.2290    3.4560   -6.1230 ss        1 2D5     -0.270200
     20 C20         6.0290    2.6400   -7.6810 c3        1 2D5     -0.024300
     21 C21         6.5050    3.5950   -8.7430 c3        1 2D5     -0.093400
     22 C22         6.4750    2.9000  -10.1090 c3        1 2D5      0.089000
     23 N23         6.8910    3.7350  -11.2000 n         1 2D5     -0.558900
     24 C24         6.0440    4.1120  -12.2140 c         1 2D5      0.654100
     25 C25         6.5770    5.0850  -13.2880 c3        1 2D5      0.103500
     26 N26         7.9020    4.7080  -13.7620 n3        1 2D5     -0.822200
     27 C27         8.4410    5.6030  -14.7690 c3        1 2D5      0.209100
     28 C28         8.1170    7.0540  -14.5820 ca        1 2D5     -0.082300
     29 C29         8.7380    7.9920  -15.4140 ca        1 2D5     -0.126000
     30 C30         8.4490    9.3470  -15.2830 ca        1 2D5     -0.127000
     31 C31         7.5350    9.7750  -14.3190 ca        1 2D5     -0.126000
     32 C32         6.9140    8.8470  -13.4870 ca        1 2D5     -0.124000
     33 C33         7.2020    7.4830  -13.6110 ca        1 2D5     -0.070300
     34 C34         6.5570    6.5030  -12.6980 c3        1 2D5     -0.031100
     35 O35         4.8720    3.6950  -12.2940 o         1 2D5     -0.614100
     36 H011        0.3040    0.7140   -0.6410 hn        1 2D5      0.449800
     37 H012        0.3850    0.3640    1.0340 hn        1 2D5      0.449800
     38 H041        4.6460   -1.3320    1.6640 h5        1 2D5      0.054100
     39 H091        3.2200    0.3200   -4.5190 h5        1 2D5      0.065800
     40 H111        6.2720   -1.3230   -2.6780 h2        1 2D5      0.133700
     41 H131        7.5610    1.2860   -5.0260 h1        1 2D5      0.113700
     42 H141        5.1470    0.1890   -6.4040 h1        1 2D5      0.058700
     43 H151        6.9020   -1.3020   -7.0080 ho        1 2D5      0.423000
     44 H161        4.6380   -1.7280   -5.0830 h1        1 2D5      0.107700
     45 H171        7.4330   -1.9990   -4.7720 ho        1 2D5      0.423000
     46 H181        4.5600    2.0180   -5.1750 h1        1 2D5      0.087700
     47 H182        5.6450    2.8290   -3.9780 h1        1 2D5      0.087700
     48 H201        6.6260    1.6930   -7.6970 h1        1 2D5      0.066700
     49 H202        4.9580    2.3700   -7.8460 h1        1 2D5      0.066700
     50 H211        7.5490    3.9370   -8.5090 hc        1 2D5      0.061200
     51 H212        5.8470    4.5040   -8.7600 hc        1 2D5      0.061200
     52 H221        5.4280    2.5310  -10.3100 h1        1 2D5      0.060700
     53 H222        7.1610    2.0040  -10.0680 h1        1 2D5      0.060700
     54 H231        7.8010    4.1300  -11.1560 hn        1 2D5      0.326500
     55 H251        5.8130    5.0530  -14.1270 h1        1 2D5      0.062700
     56 H261        7.8780    3.7700  -14.1190 hn        1 2D5      0.371800
     57 H271        8.1020    5.3150  -15.8100 h1        1 2D5      0.046200
     58 H272        9.5630    5.4730  -14.7330 h1        1 2D5      0.046200
     59 H291        9.4580    7.6520  -16.1740 ha        1 2D5      0.132000
     60 H301        8.9400   10.0800  -15.9390 ha        1 2D5      0.133000
     61 H311        7.3040   10.8460  -14.2160 ha        1 2D5      0.134000
     62 H321        6.1930    9.1830  -12.7270 ha        1 2D5      0.134000
     63 H341        7.0990    6.5210  -11.7130 hc        1 2D5      0.065700
     64 H342        5.4890    6.7870  -12.5050 hc        1 2D5      0.065700
@<TRIPOS>BOND
     1    1    2 1   
     2    1   36 1   
     3    1   37 1   
     4    2    3 ar  
     5    2    7 ar  
     6    3    4 ar  
     7    4    5 ar  
     8    4   38 1   
     9    5    6 ar  
    10    6    7 ar  
    11    6   10 1   
    12    7    8 1   
    13    8    9 2   
    14    9   10 1   
    15    9   39 1   
    16   10   11 1   
    17   11   12 1   
    18   11   16 1   
    19   11   40 1   
    20   12   13 1   
    21   13   14 1   
    22   13   18 1   
    23   13   41 1   
    24   14   15 1   
    25   14   16 1   
    26   14   42 1   
    27   15   43 1   
    28   16   17 1   
    29   16   44 1   
    30   17   45 1   
    31   18   19 1   
    32   18   46 1   
    33   18   47 1   
    34   19   20 1   
    35   20   21 1   
    36   20   48 1   
    37   20   49 1   
    38   21   22 1   
    39   21   50 1   
    40   21   51 1   
    41   22   23 1   
    42   22   52 1   
    43   22   53 1   
    44   23   24 1   
    45   23   54 1   
    46   24   25 1   
    47   24   35 2   
    48   25   26 1   
    49   25   34 1   
    50   25   55 1   
    51   26   27 1   
    52   26   56 1   
    53   27   28 1   
    54   27   57 1   
    55   27   58 1   
    56   28   29 ar  
    57   28   33 ar  
    58   29   30 ar  
    59   29   59 1   
    60   30   31 ar  
    61   30   60 1   
    62   31   32 ar  
    63   31   61 1   
    64   32   33 ar  
    65   32   62 1   
    66   33   34 1   
    67   34   63 1   
    68   34   64 1   
@<TRIPOS>SUBSTRUCTURE
     1 2D5         1 TEMP              0 ****  ****    0 ROOT
