@<TRIPOS>MOLECULE
2D5
   65    69     1     0     0
SMALL
bcc


@<TRIPOS>ATOM
      1 N01         1.0190    0.3700   -0.6810 nv        1 2D5     -0.951500
      2 C02         2.2980    0.0200   -1.0050 ca        1 2D5      0.772200
      3 N03         3.0400   -0.8000   -0.1810 nb        1 2D5     -0.788000
      4 C04         4.3000   -1.1150   -0.5710 ca        1 2D5      0.700900
      5 N05         4.9900   -0.7480   -1.6790 nb        1 2D5     -0.767000
      6 C06         4.2630    0.0680   -2.4990 ca        1 2D5      0.458800
      7 C07         2.8990    0.4980   -2.2200 ca        1 2D5     -0.234200
      8 N08         2.4410    1.3390   -3.2460 nc        1 2D5     -0.534100
      9 C09         3.4590    1.4260   -4.1110 cd        1 2D5      0.407700
     10 N10         4.5910    0.6610   -3.7300 na        1 2D5     -0.303000
     11 C11         5.8990    0.6370   -4.3390 c3        1 2D5      0.232800
     12 O12         5.8750    1.3210   -5.5980 os        1 2D5     -0.409600
     13 C13         5.9850    0.4030   -6.6940 c3        1 2D5      0.101100
     14 C14         6.3960   -0.9810   -6.1340 c3        1 2D5      0.127100
     15 O15         7.5970   -1.4180   -6.7150 oh        1 2D5     -0.580800
     16 C16         6.4470   -0.8050   -4.6010 c3        1 2D5      0.087100
     17 O17         7.7950   -0.8490   -4.1880 oh        1 2D5     -0.598800
     18 C18         4.6820    0.3420   -7.4650 c3        1 2D5     -0.026300
     19 S19         4.3920    1.7100   -8.5470 ss        1 2D5     -0.304200
     20 C20         5.4750    1.4080   -9.9180 c3        1 2D5     -0.025300
     21 C21         5.6340    2.7050  -10.6710 c3        1 2D5     -0.087400
     22 C22         6.4100    3.7040   -9.8170 c3        1 2D5      0.084800
     23 N23         6.3120    5.0980  -10.3310 ny        1 2D5     -0.662800
     24 C24         7.1330    6.0950   -9.5530 c         1 2D5      0.533100
     25 C25         7.2980    7.4840  -10.2110 c3        1 2D5      0.139500
     26 N26         6.0680    7.8950  -10.8400 n7        1 2D5     -0.871200
     27 C27         6.0330    7.9430  -12.2930 c3        1 2D5      0.202100
     28 C28         6.9420    6.9670  -12.9730 ca        1 2D5     -0.128300
     29 C29         6.5930    6.3850  -14.1910 ca        1 2D5     -0.116000
     30 C30         7.4990    5.5460  -14.8430 ca        1 2D5     -0.109000
     31 C31         8.7480    5.2860  -14.2770 ca        1 2D5     -0.113000
     32 C32         9.0980    5.8590  -13.0540 ca        1 2D5     -0.114000
     33 C33         8.1980    6.7010  -12.3990 ca        1 2D5     -0.135300
     34 C34         8.5360    7.3790  -11.1230 c3        1 2D5     -0.062100
     35 O35         7.6280    5.7360   -8.4990 o         1 2D5     -0.412100
     36 H011        0.6040    0.0570    0.1620 hn        1 2D5      0.454800
     37 H012        0.5190    0.9790   -1.2800 hn        1 2D5      0.454800
     38 H041        4.8510   -1.7770    0.1340 h5        1 2D5      0.058100
     39 H091        3.4720    2.0180   -5.0340 h5        1 2D5      0.076800
     40 H111        6.6220    1.2250   -3.6940 h2        1 2D5      0.108700
     41 H131        6.8100    0.8170   -7.3400 h1        1 2D5      0.074700
     42 H141        5.6410   -1.7690   -6.4090 h1        1 2D5      0.095700
     43 H151        8.3390   -1.0200   -6.2380 ho        1 2D5      0.432000
     44 H161        5.8400   -1.6000   -4.0930 h1        1 2D5      0.099700
     45 H171        7.8030   -1.1590   -3.2720 ho        1 2D5      0.442000
     46 H181        4.6380   -0.6110   -8.0470 h1        1 2D5      0.099700
     47 H182        3.8140    0.3680   -6.7550 h1        1 2D5      0.099700
     48 H201        6.4630    1.0200   -9.5680 h1        1 2D5      0.087200
     49 H202        5.0300    0.6360  -10.5950 h1        1 2D5      0.087200
     50 H211        6.1810    2.5140  -11.6330 hc        1 2D5      0.071700
     51 H212        4.6160    3.1050  -10.9320 hc        1 2D5      0.071700
     52 H221        6.0060    3.6870   -8.7560 hx        1 2D5      0.123200
     53 H222        7.5010    3.4240   -9.7810 hx        1 2D5      0.123200
     54 H231        6.6170    5.1410  -11.3150 hn        1 2D5      0.468300
     55 H251        7.5500    8.1700   -9.3410 h1        1 2D5      0.118700
     56 H261        5.7200    8.7480  -10.4460 hn        1 2D5      0.417800
     57 H271        4.9600    7.7500  -12.5870 h1        1 2D5      0.073700
     58 H272        6.3060    8.9750  -12.6730 h1        1 2D5      0.073700
     59 H291        5.6140    6.6020  -14.6480 ha        1 2D5      0.153000
     60 H301        7.2300    5.1000  -15.8140 ha        1 2D5      0.159000
     61 H311        9.4650    4.6350  -14.8030 ha        1 2D5      0.159000
     62 H321       10.0910    5.6660  -12.6180 ha        1 2D5      0.152000
     63 H341        8.8960    8.4230  -11.3430 hc        1 2D5      0.093700
     64 H342        9.3620    6.8500  -10.5790 hc        1 2D5      0.093700
     65 H232        5.3300    5.4030  -10.2950 hn        1 2D5      0.468300
@<TRIPOS>BOND
     1    1    2 1   
     2    1   36 1   
     3    1   37 1   
     4    2    3 ar  
     5    2    7 ar  
     6    3    4 ar  
     7    4    5 ar  
     8    4   38 1   
     9    5    6 ar  
    10    6    7 ar  
    11    6   10 1   
    12    7    8 1   
    13    8    9 2   
    14    9   10 1   
    15    9   39 1   
    16   10   11 1   
    17   11   12 1   
    18   11   16 1   
    19   11   40 1   
    20   12   13 1   
    21   13   14 1   
    22   13   18 1   
    23   13   41 1   
    24   14   15 1   
    25   14   16 1   
    26   14   42 1   
    27   15   43 1   
    28   16   17 1   
    29   16   44 1   
    30   17   45 1   
    31   18   19 1   
    32   18   46 1   
    33   18   47 1   
    34   19   20 1   
    35   20   21 1   
    36   20   48 1   
    37   20   49 1   
    38   21   22 1   
    39   21   50 1   
    40   21   51 1   
    41   22   23 1   
    42   22   52 1   
    43   22   53 1   
    44   23   24 1   
    45   23   54 1   
    46   23   65 1   
    47   24   25 1   
    48   24   35 2   
    49   25   26 1   
    50   25   34 1   
    51   25   55 1   
    52   26   27 1   
    53   26   56 1   
    54   27   28 1   
    55   27   57 1   
    56   27   58 1   
    57   28   29 ar  
    58   28   33 ar  
    59   29   30 ar  
    60   29   59 1   
    61   30   31 ar  
    62   30   60 1   
    63   31   32 ar  
    64   31   61 1   
    65   32   33 ar  
    66   32   62 1   
    67   33   34 1   
    68   34   63 1   
    69   34   64 1   
@<TRIPOS>SUBSTRUCTURE
     1 2D5         1 TEMP              0 ****  ****    0 ROOT
