@<TRIPOS>MOLECULE
2D6
   56    59     1     0     0
SMALL
bcc


@<TRIPOS>ATOM
      1 N4         -0.7000    1.5370    0.0960 n         1 2D6     -0.573900
      2 C8          0.5080    1.1980   -0.4760 c         1 2D6      0.665100
      3 O2          0.5700    0.5070   -1.5120 o         1 2D6     -0.600100
      4 C9          1.7610    1.7370    0.1990 c3        1 2D6     -0.149400
      5 C10         2.9350    0.8310   -0.0730 c3        1 2D6     -0.003300
      6 S1          4.3590    1.7510    0.4540 ss        1 2D6     -0.190300
      7 C11         5.7060    0.6810    0.2220 cc        1 2D6      0.505800
      8 N2          6.9450    1.2320    0.5550 n         1 2D6     -0.484400
      9 C12         8.1230    0.4750    0.4180 c         1 2D6      0.713100
     10 O3          9.2060    1.0000    0.7260 o         1 2D6     -0.618500
     11 N3          5.5220   -0.5460   -0.2330 nd        1 2D6     -0.642100
     12 C13         6.6460   -1.3630   -0.4010 ca        1 2D6      0.191400
     13 C14         7.9530   -0.8990   -0.0900 ca        1 2D6     -0.191600
     14 C15         9.0680   -1.7290   -0.2630 ca        1 2D6     -0.058000
     15 C16         8.8980   -3.0190   -0.7430 ca        1 2D6     -0.155000
     16 C17         7.6150   -3.4890   -1.0540 ca        1 2D6     -0.092000
     17 C18         6.4990   -2.6840   -0.8900 ca        1 2D6     -0.125000
     18 C19        -4.1430    1.8320   -1.4790 c3        1 2D6     -0.092900
     19 C20        -2.8600    2.3110   -0.8370 c3        1 2D6     -0.090900
     20 C21        -1.9710    1.1150   -0.4470 c3        1 2D6      0.097700
     21 C22        -2.7500    0.2130    0.5300 c3        1 2D6     -0.090900
     22 C23        -4.0340   -0.2680   -0.1070 c3        1 2D6     -0.092900
     23 C24        -4.9040    0.9110   -0.5260 c3        1 2D6      0.140100
     24 O1         -6.0350    0.4480   -1.2840 os        1 2D6     -0.325900
     25 C1         -7.1320   -0.0060   -0.5880 ca        1 2D6      0.158100
     26 C2         -7.2160   -0.1370    0.8040 ca        1 2D6     -0.191500
     27 C3         -8.3930   -0.6100    1.3790 ca        1 2D6     -0.055500
     28 C4         -9.4850   -0.9560    0.5740 ca        1 2D6     -0.060000
     29 C5         -9.3940   -0.8270   -0.8230 ca        1 2D6     -0.055500
     30 C6         -8.2280   -0.3550   -1.4060 ca        1 2D6     -0.191500
     31 C7        -10.6830   -1.4370    1.1650 cg        1 2D6      0.238800
     32 N1        -11.6640   -1.8310    1.6500 n1        1 2D6     -0.369800
     33 H1         -0.7170    2.0790    0.9240 hn        1 2D6      0.308500
     34 H2          1.9510    2.7610   -0.2260 hc        1 2D6      0.075700
     35 H3          1.6110    1.8450    1.3060 hc        1 2D6      0.075700
     36 H4          2.8440   -0.1290    0.4900 h1        1 2D6      0.105200
     37 H5          3.0000    0.5750   -1.1610 h1        1 2D6      0.105200
     38 H6          7.0030    2.1690    0.8870 hn        1 2D6      0.343500
     39 H7         10.0680   -1.3390   -0.0130 ha        1 2D6      0.158000
     40 H8          9.7700   -3.6760   -0.8810 ha        1 2D6      0.140000
     41 H9          7.4930   -4.5150   -1.4350 ha        1 2D6      0.138000
     42 H10         5.4960   -3.0640   -1.1390 ha        1 2D6      0.153000
     43 H12        -3.9210    1.2780   -2.4280 hc        1 2D6      0.062200
     44 H13        -2.3150    2.9690   -1.5610 hc        1 2D6      0.049200
     45 H14        -3.0960    2.9240    0.0720 hc        1 2D6      0.049200
     46 H15        -1.7600    0.5140   -1.3850 h1        1 2D6      0.097700
     47 H16        -2.1240   -0.6730    0.8100 hc        1 2D6      0.049200
     48 H17        -2.9810    0.7790    1.4700 hc        1 2D6      0.049200
     49 H18        -3.8070   -0.8940   -1.0100 hc        1 2D6      0.062200
     50 H19        -4.5970   -0.9150    0.6150 hc        1 2D6      0.062200
     51 H20        -5.2510    1.4940    0.3700 h1        1 2D6      0.052700
     52 H21        -6.3680    0.1210    1.4540 ha        1 2D6      0.150500
     53 H22        -8.4620   -0.7120    2.4730 ha        1 2D6      0.146500
     54 H23       -10.2520   -1.1010   -1.4560 ha        1 2D6      0.146500
     55 H24        -8.1400   -0.2480   -2.4970 ha        1 2D6      0.150500
     56 H11        -4.7900    2.7080   -1.7420 hc        1 2D6      0.062200
@<TRIPOS>BOND
     1    1    2 1   
     2    1   20 1   
     3    1   33 1   
     4    2    3 2   
     5    2    4 1   
     6    4    5 1   
     7    4   34 1   
     8    4   35 1   
     9    5    6 1   
    10    5   36 1   
    11    5   37 1   
    12    6    7 1   
    13    7    8 1   
    14    7   11 2   
    15    8    9 1   
    16    8   38 1   
    17    9   10 2   
    18    9   13 1   
    19   11   12 1   
    20   12   13 ar  
    21   12   17 ar  
    22   13   14 ar  
    23   14   15 ar  
    24   14   39 1   
    25   15   16 ar  
    26   15   40 1   
    27   16   17 ar  
    28   16   41 1   
    29   17   42 1   
    30   18   19 1   
    31   18   23 1   
    32   18   43 1   
    33   18   56 1   
    34   19   20 1   
    35   19   44 1   
    36   19   45 1   
    37   20   21 1   
    38   20   46 1   
    39   21   22 1   
    40   21   47 1   
    41   21   48 1   
    42   22   23 1   
    43   22   49 1   
    44   22   50 1   
    45   23   24 1   
    46   23   51 1   
    47   24   25 1   
    48   25   26 ar  
    49   25   30 ar  
    50   26   27 ar  
    51   26   52 1   
    52   27   28 ar  
    53   27   53 1   
    54   28   29 ar  
    55   28   31 1   
    56   29   30 ar  
    57   29   54 1   
    58   30   55 1   
    59   31   32 3   
@<TRIPOS>SUBSTRUCTURE
     1 2D6         1 TEMP              0 ****  ****    0 ROOT
