@<TRIPOS>MOLECULE
2D6
   57    60     1     0     0
SMALL
bcc


@<TRIPOS>ATOM
      1 N4         -0.3900   -1.5390   -0.7240 n4        1 2D6     -0.688800
      2 C8          0.8410   -2.4190   -0.8490 c         1 2D6      0.550100
      3 O2          0.7980   -3.4670   -0.2270 o         1 2D6     -0.403100
      4 C9          1.9330   -1.8890   -1.7320 c3        1 2D6     -0.145400
      5 C10         3.2120   -2.6680   -1.5150 c3        1 2D6     -0.045300
      6 S1          4.5680   -1.9520   -2.3650 ss        1 2D6     -0.107300
      7 C11         5.1440   -0.6710   -1.3280 cc        1 2D6      0.497800
      8 N2          6.3890   -0.1650   -1.6780 n         1 2D6     -0.478400
      9 C12         6.9740    0.8780   -0.9230 c         1 2D6      0.711100
     10 O3          8.0790    1.3130   -1.2780 o         1 2D6     -0.578500
     11 N3          4.4060   -0.2500   -0.3150 nd        1 2D6     -0.690100
     12 C13         4.9270    0.7620    0.5040 ca        1 2D6      0.179400
     13 C14         6.1920    1.3510    0.2340 ca        1 2D6     -0.179600
     14 C15         6.7040    2.3600    1.0580 ca        1 2D6     -0.047000
     15 C16         5.9700    2.7930    2.1550 ca        1 2D6     -0.138000
     16 C17         4.7250    2.2190    2.4350 ca        1 2D6     -0.084000
     17 C18         4.2000    1.2190    1.6280 ca        1 2D6     -0.144000
     18 C19        -1.9300    0.2100    2.3180 c3        1 2D6     -0.098400
     19 C20        -1.8850   -0.3920    0.9300 c3        1 2D6     -0.100900
     20 C21        -0.4530   -0.8450    0.6190 c3        1 2D6      0.122500
     21 C22         0.4990    0.3540    0.6800 c3        1 2D6     -0.100900
     22 C23         0.4600    0.9630    2.0650 c3        1 2D6     -0.098400
     23 C24        -0.9590    1.3800    2.4460 c3        1 2D6      0.142100
     24 O1         -0.8790    1.7770    3.8220 os        1 2D6     -0.331900
     25 C1         -1.8270    2.7110    4.2230 ca        1 2D6      0.100100
     26 C2         -1.9490    3.9590    3.5980 ca        1 2D6     -0.156000
     27 C3         -2.8400    4.8950    4.1160 ca        1 2D6     -0.071000
     28 C4         -3.6010    4.5870    5.2540 ca        1 2D6     -0.012000
     29 C5         -3.4620    3.3390    5.8790 ca        1 2D6     -0.071000
     30 C6         -2.5790    2.3940    5.3640 ca        1 2D6     -0.156000
     31 C7         -4.5130    5.5440    5.7760 cg        1 2D6      0.216800
     32 N1         -5.2600    6.3270    6.2020 n1        1 2D6     -0.328800
     33 H1         -1.2300   -2.1240   -0.8170 hn        1 2D6      0.455800
     34 H2          1.5980   -1.9810   -2.8030 hc        1 2D6      0.115700
     35 H3          2.1040   -0.7970   -1.5140 hc        1 2D6      0.115700
     36 H4          3.1180   -3.7010   -1.9460 h1        1 2D6      0.117200
     37 H5          3.4170   -2.7840   -0.4190 h1        1 2D6      0.117200
     38 H6          6.8960   -0.5510   -2.4460 hn        1 2D6      0.353500
     39 H7          7.6900    2.7970    0.8230 ha        1 2D6      0.172000
     40 H8          6.3690    3.5850    2.8080 ha        1 2D6      0.156000
     41 H9          4.1550    2.5640    3.3120 ha        1 2D6      0.145000
     42 H10         3.2220    0.7750    1.8690 ha        1 2D6      0.129000
     43 H13        -2.5920   -1.2630    0.8870 hc        1 2D6      0.069450
     44 H14        -2.2210    0.3690    0.1770 hc        1 2D6      0.069450
     45 H15        -0.1370   -1.6180    1.3850 hx        1 2D6      0.121700
     46 H16         1.5530    0.0350    0.4560 hc        1 2D6      0.069450
     47 H17         0.1970    1.1240   -0.0790 hc        1 2D6      0.069450
     48 H18         0.8480    0.2350    2.8260 hc        1 2D6      0.082700
     49 H19         1.1300    1.8630    2.0920 hc        1 2D6      0.082700
     50 H20        -1.3000    2.2360    1.8010 h1        1 2D6      0.060700
     51 H21        -1.3360    4.2090    2.7210 ha        1 2D6      0.149500
     52 H22        -2.9420    5.8820    3.6370 ha        1 2D6      0.157500
     53 H23        -4.0530    3.1050    6.7790 ha        1 2D6      0.157500
     54 H24        -2.4510    1.4170    5.8520 ha        1 2D6      0.149500
     55 H11        -2.9720    0.5670    2.5320 hc        1 2D6      0.082700
     56 H42        -0.3930   -0.8350   -1.4680 hn        1 2D6      0.455800
     57 H12        -1.6780   -0.5650    3.0890 hc        1 2D6      0.082700
@<TRIPOS>BOND
     1    1    2 1   
     2    1   20 1   
     3    1   33 1   
     4    1   56 1   
     5    2    3 2   
     6    2    4 1   
     7    4    5 1   
     8    4   34 1   
     9    4   35 1   
    10    5    6 1   
    11    5   36 1   
    12    5   37 1   
    13    6    7 1   
    14    7    8 1   
    15    7   11 2   
    16    8    9 1   
    17    8   38 1   
    18    9   10 2   
    19    9   13 1   
    20   11   12 1   
    21   12   13 ar  
    22   12   17 ar  
    23   13   14 ar  
    24   14   15 ar  
    25   14   39 1   
    26   15   16 ar  
    27   15   40 1   
    28   16   17 ar  
    29   16   41 1   
    30   17   42 1   
    31   18   19 1   
    32   18   23 1   
    33   18   55 1   
    34   18   57 1   
    35   19   20 1   
    36   19   43 1   
    37   19   44 1   
    38   20   21 1   
    39   20   45 1   
    40   21   22 1   
    41   21   46 1   
    42   21   47 1   
    43   22   23 1   
    44   22   48 1   
    45   22   49 1   
    46   23   24 1   
    47   23   50 1   
    48   24   25 1   
    49   25   26 ar  
    50   25   30 ar  
    51   26   27 ar  
    52   26   51 1   
    53   27   28 ar  
    54   27   52 1   
    55   28   29 ar  
    56   28   31 1   
    57   29   30 ar  
    58   29   53 1   
    59   30   54 1   
    60   31   32 3   
@<TRIPOS>SUBSTRUCTURE
     1 2D6         1 TEMP              0 ****  ****    0 ROOT
