@<TRIPOS>MOLECULE
2D6
   57    60     1     0     0
SMALL
bcc


@<TRIPOS>ATOM
      1 N4          0.0000    0.0000    0.0000 ny        1 2D6      0.068200
      2 C8          1.3490    0.0000    0.0000 c         1 2D6      0.380100
      3 O2          1.9540    0.0000    1.0510 o         1 2D6     -0.413100
      4 C9          2.1020   -0.0020   -1.3050 c3        1 2D6     -0.143400
      5 C10         3.6060   -0.0020   -1.0250 c3        1 2D6      0.102700
      6 S1          4.5110   -0.0040   -2.5920 ss        1 2D6     -0.311300
      7 C11         6.1670   -0.0040   -1.9890 cc        1 2D6      0.344800
      8 N2          7.1890   -0.0050   -2.8940 ns        1 2D6      0.019600
      9 C12         8.4770   -0.0060   -2.4760 c         1 2D6      0.609100
     10 O3          9.3990   -0.0060   -3.2700 o         1 2D6     -0.625500
     11 N3          6.3600    0.0020   -0.6940 nd        1 2D6     -0.557100
     12 C13         7.5990    0.0030   -0.1630 ca        1 2D6      0.146400
     13 C14         8.7180   -0.0050   -1.0270 ca        1 2D6     -0.178600
     14 C15        10.0070   -0.0030   -0.4950 ca        1 2D6      0.021000
     15 C16        10.1760    0.0040    0.8620 ca        1 2D6     -0.149000
     16 C17         9.0790    0.0100    1.7140 ca        1 2D6     -0.084000
     17 C18         7.8050    0.0100    1.2190 ca        1 2D6     -0.112000
     18 C19        -2.8870   -0.6000    2.3800 c3        1 2D6     -0.031900
     19 C20        -2.1220   -0.6000    1.0560 c3        1 2D6     -0.034400
     20 C21        -0.7330    0.0010    1.2690 c3        1 2D6      0.023500
     21 C22        -0.8720    1.4390    1.7750 c3        1 2D6     -0.034400
     22 C23        -1.6370    1.4400    3.1010 c3        1 2D6     -0.031900
     23 C24        -3.0270    0.8370    2.8880 c3        1 2D6      0.210100
     24 O1         -3.7420    0.8390    4.1240 os        1 2D6     -0.281900
     25 C1         -4.3990    1.9790    4.4550 ca        1 2D6      0.147100
     26 C2         -4.2680    3.1100    3.6580 ca        1 2D6     -0.188500
     27 C3         -4.9340    4.2690    3.9900 ca        1 2D6     -0.019500
     28 C4         -5.7420    4.3070    5.1300 ca        1 2D6     -0.023000
     29 C5         -5.8710    3.1670    5.9280 ca        1 2D6     -0.019500
     30 C6         -5.2060    2.0110    5.5860 ca        1 2D6     -0.188500
     31 C7         -6.4360    5.5110    5.4790 cg        1 2D6      0.210800
     32 N1         -6.9940    6.4560    5.7700 n1        1 2D6     -0.346800
     33 H1         -0.1060    0.8350   -0.5410 hn        1 2D6      0.262300
     34 H2          1.5370   -0.2630   -2.1920 hc        1 2D6      0.078700
     35 H3          2.2800    1.0240   -1.6050 hc        1 2D6      0.078700
     36 H4          3.6870    0.8180   -0.3220 h1        1 2D6      0.087200
     37 H5          4.0790   -0.9650   -0.8770 h1        1 2D6      0.087200
     38 H6          7.0500   -0.0340   -3.8850 hn        1 2D6      0.194500
     39 H7         11.0390    0.0400   -0.8240 ha        1 2D6      0.137000
     40 H8         10.9340    0.1640    1.6190 ha        1 2D6      0.133000
     41 H9          9.1680   -0.1180    2.7860 ha        1 2D6      0.108000
     42 H10         7.0540   -0.5020    1.8090 ha        1 2D6      0.115000
     43 H13        -2.0920   -1.6160    0.6790 hc        1 2D6      0.023700
     44 H14        -2.8040   -0.2250    0.3020 hc        1 2D6      0.023700
     45 H15         0.1120   -0.4850    1.7430 hx        1 2D6      0.090700
     46 H16         0.0660    1.9800    1.8180 hc        1 2D6      0.023700
     47 H17        -1.1870    1.9870    0.8960 hc        1 2D6      0.023700
     48 H18        -1.0410    1.2840    3.9920 hc        1 2D6      0.050700
     49 H19        -1.9260    2.4740    3.2450 hc        1 2D6      0.050700
     50 H20        -3.5650    1.4260    2.1540 h1        1 2D6      0.036700
     51 H21        -4.0810    2.5580    2.7460 ha        1 2D6      0.136000
     52 H22        -5.0740    5.0280    3.2290 ha        1 2D6      0.123500
     53 H23        -6.5090    3.5250    6.7270 ha        1 2D6      0.123500
     54 H24        -5.5000    1.3630    6.4030 ha        1 2D6      0.136000
     55 H11        -3.8320   -1.0660    2.1270 hc        1 2D6      0.050700
     56 H42        -0.5000   -0.5610   -0.6610 hn        1 2D6      0.262300
     57 H12        -2.2960   -1.4230    2.7640 hc        1 2D6      0.050700
@<TRIPOS>BOND
     1    1    2 1   
     2    1   20 1   
     3    1   33 1   
     4    1   56 1   
     5    2    3 2   
     6    2    4 1   
     7    4    5 1   
     8    4   34 1   
     9    4   35 1   
    10    5    6 1   
    11    5   36 1   
    12    5   37 1   
    13    6    7 1   
    14    7    8 1   
    15    7   11 2   
    16    8    9 1   
    17    8   38 1   
    18    9   10 2   
    19    9   13 1   
    20   11   12 1   
    21   12   13 ar  
    22   12   17 ar  
    23   13   14 ar  
    24   14   15 ar  
    25   14   39 1   
    26   15   16 ar  
    27   15   40 1   
    28   16   17 ar  
    29   16   41 1   
    30   17   42 1   
    31   18   19 1   
    32   18   23 1   
    33   18   55 1   
    34   18   57 1   
    35   19   20 1   
    36   19   43 1   
    37   19   44 1   
    38   20   21 1   
    39   20   45 1   
    40   21   22 1   
    41   21   46 1   
    42   21   47 1   
    43   22   23 1   
    44   22   48 1   
    45   22   49 1   
    46   23   24 1   
    47   23   50 1   
    48   24   25 1   
    49   25   26 ar  
    50   25   30 ar  
    51   26   27 ar  
    52   26   51 1   
    53   27   28 ar  
    54   27   52 1   
    55   28   29 ar  
    56   28   31 1   
    57   29   30 ar  
    58   29   53 1   
    59   30   54 1   
    60   31   32 3   
@<TRIPOS>SUBSTRUCTURE
     1 2D6         1 TEMP              0 ****  ****    0 ROOT
