@<TRIPOS>MOLECULE
2D6
   56    52     1     0     0
SMALL
bcc


@<TRIPOS>ATOM
      1 N4          0.0470    1.1660   -0.1330 n3        1 2D6     -0.383000
      2 C8          0.8910    0.0400   -0.4730 c1        1 2D6      0.309000
      3 O2          1.0040   -0.8960    0.3060 o         1 2D6     -0.361000
      4 C9          1.7100    0.0540   -1.8010 c2        1 2D6     -0.179000
      5 C10         2.0120   -1.3570   -2.2170 c3        1 2D6     -0.264000
      6 S1          3.0710   -1.3410   -3.6520 ss        1 2D6      0.216000
      7 C11         3.6790   -3.0120   -3.9710 c2        1 2D6     -0.013000
      8 N2          3.0970   -3.7950   -5.0160 n3        1 2D6     -0.324000
      9 C12         3.6050   -5.0830   -5.3010 c1        1 2D6      0.350000
     10 O3          3.1130   -5.7470   -6.1900 o         1 2D6     -0.344000
     11 N3          4.7860   -3.5360   -3.2040 n1        1 2D6     -0.215000
     12 C13         5.3150   -4.8720   -3.4970 c1        1 2D6     -0.059500
     13 C14         4.7560   -5.6290   -4.5040 c1        1 2D6     -0.059500
     14 C15         5.2750   -6.9070   -4.7940 c1        1 2D6     -0.091500
     15 C16         6.3480   -7.4040   -4.0650 c1        1 2D6     -0.123500
     16 C17         6.9120   -6.6380   -3.0470 c1        1 2D6     -0.123500
     17 C18         6.4020   -5.3760   -2.7590 c1        1 2D6     -0.091500
     18 C19        -2.9850    1.1860    2.1140 c3        1 2D6     -0.171500
     19 C20        -2.1460    1.0030    0.8640 c3        1 2D6     -0.169500
     20 C21        -0.6620    1.1790    1.1310 c3        1 2D6      0.021000
     21 C22        -0.3540    2.4730    1.8490 c3        1 2D6     -0.169500
     22 C23        -1.1950    2.6590    3.1000 c3        1 2D6     -0.171500
     23 C24        -2.6740    2.4850    2.8350 c3        1 2D6      0.029000
     24 O1         -3.3730    2.5030    4.0790 os        1 2D6     -0.209000
     25 C1         -4.3530    3.5400    4.0600 c2        1 2D6      0.113000
     26 C2         -4.0800    4.7660    4.6660 c2        1 2D6     -0.166000
     27 C3         -5.0090    5.8040    4.5870 c1        1 2D6     -0.058000
     28 C4         -6.2030    5.6170    3.9070 c1        1 2D6     -0.056000
     29 C5         -6.4740    4.3920    3.3020 c1        1 2D6     -0.053000
     30 C6         -5.5450    3.3530    3.3810 c1        1 2D6     -0.217000
     31 C7         -7.1670    6.7850    3.7260 c1        1 2D6     -0.091000
     32 N1         -7.8960    7.6680    3.5880 n1        1 2D6     -0.044000
     33 H1          0.0490    1.9180   -0.6660 hn        1 2D6      0.222000
     34 H2          2.5550    0.5430   -1.6610 ha        1 2D6      0.115000
     35 H3          1.1860    0.4980   -2.5040 ha        1 2D6      0.115000
     36 H4          2.4600   -1.8230   -1.4870 h1        1 2D6      0.144500
     37 H5          1.1850   -1.8140   -2.4320 h1        1 2D6      0.144500
     38 H6          2.4290   -3.4540   -5.5150 hn        1 2D6      0.257000
     39 H7          4.8790   -7.4450   -5.5090 ha        1 2D6      0.155500
     40 H8          6.7090   -8.2960   -4.2680 ha        1 2D6      0.139000
     41 H9          7.6650   -6.9860   -2.5360 ha        1 2D6      0.139000
     42 H10         6.7960   -4.8420   -2.0490 ha        1 2D6      0.155500
     43 H11        -3.9390    1.1820    1.8630 hc        1 2D6      0.101250
     44 H12        -2.8140    0.4390    2.7220 hc        1 2D6      0.101250
     45 H13        -2.4270    1.6580    0.1980 hc        1 2D6      0.088500
     46 H14        -2.3010    0.0990    0.5060 hc        1 2D6      0.088500
     47 H15        -0.3450    0.4250    1.6830 h1        1 2D6      0.137000
     48 H16         0.5850    2.4790    2.0980 hc        1 2D6      0.088500
     49 H17        -0.5250    3.2220    1.2390 hc        1 2D6      0.088500
     50 H18        -0.9160    2.0030    3.7690 hc        1 2D6      0.101250
     51 H19        -1.0420    3.5500    3.4520 hc        1 2D6      0.101250
     52 H20        -2.9860    3.2340    2.2870 h1        1 2D6      0.092000
     53 H21        -3.2420    4.8980    5.1430 ha        1 2D6      0.157000
     54 H22        -4.8150    6.6730    5.0170 ha        1 2D6      0.148000
     55 H23        -7.3190    4.2590    2.8210 ha        1 2D6      0.145000
     56 H24        -5.7350    2.4990    2.9590 ha        1 2D6      0.144000
@<TRIPOS>BOND
     1    1    2 1   
     2    1   20 1   
     3    1   33 1   
     4    2    3 1   
     5    4    5 1   
     6    4   34 1   
     7    4   35 1   
     8    5    6 1   
     9    5   36 1   
    10    5   37 1   
    11    6    7 1   
    12    7    8 1   
    13    7   11 1   
    14    8    9 1   
    15    8   38 1   
    16    9   10 1   
    17   12   13 1   
    18   12   17 1   
    19   13   14 1   
    20   14   39 1   
    21   15   16 1   
    22   15   40 1   
    23   16   41 1   
    24   17   42 1   
    25   18   19 1   
    26   18   23 1   
    27   18   43 1   
    28   18   44 1   
    29   19   20 1   
    30   19   45 1   
    31   19   46 1   
    32   20   21 1   
    33   20   47 1   
    34   21   22 1   
    35   21   48 1   
    36   21   49 1   
    37   22   23 1   
    38   22   50 1   
    39   22   51 1   
    40   23   24 1   
    41   23   52 1   
    42   24   25 1   
    43   25   26 1   
    44   25   30 1   
    45   26   27 1   
    46   26   53 1   
    47   27   54 1   
    48   28   29 1   
    49   28   31 1   
    50   29   55 1   
    51   30   56 1   
    52   31   32 1   
@<TRIPOS>SUBSTRUCTURE
     1 2D6         1 TEMP              0 ****  ****    0 ROOT
