@<TRIPOS>MOLECULE
2D6
   57    58     1     0     0
SMALL
bcc


@<TRIPOS>ATOM
      1 N4          0.4830    0.1440    1.9210 n4        1 2D6     -0.687800
      2 C8          1.9980    0.1770    1.9550 c         1 2D6      0.544100
      3 O2          2.5020   -0.0670    3.0390 o         1 2D6     -0.397100
      4 C9          2.6840    0.4950    0.6580 c3        1 2D6     -0.155400
      5 C10         2.7580   -0.7220   -0.2350 c3        1 2D6     -0.041300
      6 S1          3.4210   -0.3400   -1.8180 ss        1 2D6     -0.129300
      7 C11         5.1580   -0.3320   -1.6180 cc        1 2D6      0.493800
      8 N2          5.8760   -0.2790   -2.8070 n         1 2D6     -0.481400
      9 C12         7.2900   -0.2570   -2.7810 c         1 2D6      0.713100
     10 O3          7.8940   -0.2020   -3.8610 o         1 2D6     -0.584500
     11 N3          5.6810   -0.3610   -0.4080 nd        1 2D6     -0.664100
     12 C13         7.0790   -0.3590   -0.2930 ca        1 2D6      0.173400
     13 C14         7.9110   -0.3030   -1.4450 ca        1 2D6     -0.178600
     14 C15         9.3050   -0.2980   -1.3190 ca        1 2D6     -0.053000
     15 C16         9.8840   -0.3480   -0.0570 ca        1 2D6     -0.136000
     16 C17         9.0750   -0.4040    1.0840 ca        1 2D6     -0.086000
     17 C18         7.6910   -0.4100    0.9810 ca        1 2D6     -0.125000
     18 C19        -2.1700   -1.2060    2.9290 c1        1 2D6     -0.176500
     19 C20        -1.5140   -2.1550    3.2520 c1        1 2D6     -0.176500
     20 C21        -0.1220    1.4460    2.3400 c3        1 2D6      0.094800
     21 C22        -0.1760    2.4940    1.2340 c3        1 2D6     -0.094400
     22 C23        -1.2330    3.5330    1.5550 c3        1 2D6     -0.109400
     23 C24        -2.6350    3.1020    1.1550 c3        1 2D6      0.122400
     24 O1         -3.0600    1.9740    1.9280 os        1 2D6     -0.380900
     25 C1         -4.0220    2.2270    2.8980 ca        1 2D6      0.101100
     26 C2         -4.0040    3.3700    3.7070 ca        1 2D6     -0.171500
     27 C3         -4.9580    3.5060    4.7120 ca        1 2D6     -0.060000
     28 C4         -5.9200    2.5050    4.9100 ca        1 2D6     -0.013000
     29 C5         -5.9320    1.3670    4.0890 ca        1 2D6     -0.060000
     30 C6         -4.9870    1.2240    3.0780 ca        1 2D6     -0.171500
     31 C7         -6.8870    2.6450    5.9410 cg        1 2D6      0.212800
     32 N1         -7.6780    2.7590    6.7870 n1        1 2D6     -0.319800
     33 H1          0.1370   -0.5860    2.5680 hn        1 2D6      0.462800
     34 H2          3.7280    0.8450    0.9190 hc        1 2D6      0.125200
     35 H3          2.1590    1.3420    0.1360 hc        1 2D6      0.125200
     36 H4          3.3420   -1.5350    0.2710 h1        1 2D6      0.098700
     37 H5          1.7350   -1.1190   -0.4640 h1        1 2D6      0.098700
     38 H6          5.4060   -0.2780   -3.6860 hn        1 2D6      0.349500
     39 H7          9.9260   -0.2550   -2.2310 ha        1 2D6      0.169000
     40 H8         10.9800   -0.3440    0.0470 ha        1 2D6      0.154000
     41 H9          9.5450   -0.4450    2.0800 ha        1 2D6      0.147000
     42 H10         7.0700   -0.4580    1.8880 ha        1 2D6      0.146000
     43 H13        -1.1770    1.2180    2.6910 hx        1 2D6      0.123200
     44 H14        -0.9670   -3.0160    3.5570 ha        1 2D6      0.183000
     45 H15         0.4700    1.8330    3.2190 hx        1 2D6      0.123200
     46 H16        -0.4140    2.0250    0.2410 hc        1 2D6      0.062700
     47 H17         0.8240    2.9950    1.1410 hc        1 2D6      0.062700
     48 H18        -0.9910    4.4730    0.9880 hc        1 2D6      0.076700
     49 H19        -1.2070    3.7810    2.6490 hc        1 2D6      0.076700
     50 H20        -3.3480    3.9620    1.2570 h1        1 2D6      0.075200
     51 H21        -3.2530    4.1570    3.5510 ha        1 2D6      0.147500
     52 H22        -4.9560    4.4030    5.3530 ha        1 2D6      0.161000
     53 H23        -6.6960    0.5870    4.2410 ha        1 2D6      0.161000
     54 H24        -4.9980    0.3450    2.4180 ha        1 2D6      0.147500
     55 H11        -2.6520    2.7310    0.0930 h1        1 2D6      0.075200
     56 H42         0.1680   -0.0870    0.9730 hn        1 2D6      0.462800
     57 H12        -2.8000   -0.3860    2.6640 ha        1 2D6      0.183000
@<TRIPOS>BOND
     1    1    2 1   
     2    1   20 1   
     3    1   33 1   
     4    1   56 1   
     5    2    3 2   
     6    2    4 1   
     7    4    5 1   
     8    4   34 1   
     9    4   35 1   
    10    5    6 1   
    11    5   36 1   
    12    5   37 1   
    13    6    7 1   
    14    7    8 1   
    15    7   11 2   
    16    8    9 1   
    17    8   38 1   
    18    9   10 2   
    19    9   13 1   
    20   11   12 1   
    21   12   13 ar  
    22   12   17 ar  
    23   13   14 ar  
    24   14   15 ar  
    25   14   39 1   
    26   15   16 ar  
    27   15   40 1   
    28   16   17 ar  
    29   16   41 1   
    30   17   42 1   
    31   18   19 3   
    32   18   57 1   
    33   19   44 1   
    34   20   21 1   
    35   20   43 1   
    36   20   45 1   
    37   21   22 1   
    38   21   46 1   
    39   21   47 1   
    40   22   23 1   
    41   22   48 1   
    42   22   49 1   
    43   23   24 1   
    44   23   50 1   
    45   23   55 1   
    46   24   25 1   
    47   25   26 ar  
    48   25   30 ar  
    49   26   27 ar  
    50   26   51 1   
    51   27   28 ar  
    52   27   52 1   
    53   28   29 ar  
    54   28   31 1   
    55   29   30 ar  
    56   29   53 1   
    57   30   54 1   
    58   31   32 3   
@<TRIPOS>SUBSTRUCTURE
     1 2D6         1 TEMP              0 ****  ****    0 ROOT
