@<TRIPOS>MOLECULE
2D7
   40    34     1     0     0
SMALL
bcc


@<TRIPOS>ATOM
      1 O6         -2.5330   -0.4980    5.6300 o         1 2D7     -0.303000
      2 C17        -1.3730   -0.1380    5.6210 c1        1 2D7      0.271000
      3 C18        -0.7050    0.2930    6.9060 c2        1 2D7     -0.266000
      4 C14        -0.6060   -0.0970    4.3200 c2        1 2D7     -0.191000
      5 C15         0.0590   -1.2280    3.8730 c2        1 2D7     -0.045000
      6 C16         0.7510   -1.1950    2.6730 c1        1 2D7     -0.177000
      7 C13        -0.5780    1.0660    3.5680 c1        1 2D7     -0.061000
      8 C12         0.1140    1.0990    2.3680 c1        1 2D7     -0.208000
      9 C11         0.7790   -0.0320    1.9200 c1        1 2D7      0.114000
     10 N3          1.5610    0.0280    0.7370 n         1 2D7     -0.326000
     11 C10         1.0400   -0.4750   -0.4850 c2        1 2D7      0.394000
     12 O5         -0.0760   -0.9570   -0.5170 o         1 2D7     -0.347000
     13 C8          1.9100   -0.4980   -1.7260 c2        1 2D7     -0.250000
     14 C9          3.2440   -0.7810   -1.7640 c1        1 2D7     -0.148000
     15 N1          3.6690   -0.6120   -3.0340 n2        1 2D7     -0.070000
     16 N2          2.5960   -0.2210   -3.7940 n2        1 2D7     -0.142000
     17 C7          1.5170   -0.1520   -2.9870 c2        1 2D7      0.077000
     18 C5          0.2240    0.1490   -3.3830 c1        1 2D7     -0.096000
     19 C6         -0.1880    1.4710   -3.4470 c1        1 2D7     -0.013000
     20 C1         -1.4440    1.7820   -3.9430 c1        1 2D7     -0.124000
     21 CL1        -1.9510    3.4470   -4.0530 cl        1 2D7      0.027000
     22 C2         -2.2880    0.7710   -4.3760 c2        1 2D7      0.146000
     23 O2         -3.5340    1.0910   -4.9450 oh        1 2D7     -0.225000
     24 C3         -1.8750   -0.5510   -4.3120 c1        1 2D7     -0.303000
     25 C4         -0.6190   -0.8620   -3.8150 c1        1 2D7      0.139000
     26 O4         -0.2110   -2.2060   -3.7270 oh        1 2D7     -0.267000
     27 H181       -1.1540    1.0910    7.2560 ha        1 2D7      0.102333
     28 H182        0.2370    0.4980    6.7320 ha        1 2D7      0.102333
     29 H183       -0.7650   -0.4300    7.5640 ha        1 2D7      0.102333
     30 H15         0.0390   -2.0470    4.4030 ha        1 2D7      0.159000
     31 H16         1.2200   -1.9910    2.3580 ha        1 2D7      0.179000
     32 H13        -1.0470    1.8620    3.8830 ha        1 2D7      0.133000
     33 H12         0.1330    1.9180    1.8380 ha        1 2D7      0.131000
     34 H3          2.3980    0.3870    0.7620 hn        1 2D7      0.233000
     35 H9          3.7940   -1.0570   -1.0070 DU        1 2D7      0.236000
     36 H2          2.6100   -0.0400   -4.6880 DU        1 2D7      0.236000
     37 H6          0.4070    2.1840   -3.1430 ha        1 2D7      0.173000
     38 HA         -4.1820    0.8930   -4.3700 ho        1 2D7      0.226000
     39 HB         -2.4690   -1.2620   -4.6170 ha        1 2D7      0.144000
     40 H4         -0.7020   -2.7020   -4.2770 ho        1 2D7      0.235000
@<TRIPOS>BOND
     1    1    2 1   
     2    2    4 1   
     3    3   27 1   
     4    3   28 1   
     5    3   29 1   
     6    4    5 1   
     7    4    7 1   
     8    5    6 1   
     9    5   30 1   
    10    6   31 1   
    11    7   32 1   
    12    8    9 1   
    13    8   33 1   
    14    9   10 1   
    15   10   11 1   
    16   10   34 1   
    17   11   12 1   
    18   11   13 1   
    19   13   14 1   
    20   13   17 1   
    21   14   15 1   
    22   15   16 1   
    23   16   17 1   
    24   17   18 1   
    25   18   25 1   
    26   19   20 1   
    27   19   37 1   
    28   20   22 1   
    29   22   23 1   
    30   22   24 1   
    31   23   38 1   
    32   24   39 1   
    33   25   26 1   
    34   26   40 1   
@<TRIPOS>SUBSTRUCTURE
     1 2D7         1 TEMP              0 ****  ****    0 ROOT
