@<TRIPOS>MOLECULE
2D7
   40    42     1     0     0
SMALL
bcc


@<TRIPOS>ATOM
      1 O6          0.0090   -0.9410    0.4230 o         1 2D7     -0.542100
      2 C17         1.2120   -0.6580    0.3290 c         1 2D7      0.580700
      3 C18         2.0770   -0.5620    1.5470 c3        1 2D7     -0.198100
      4 C14         1.8470   -0.4040   -0.9780 ca        1 2D7     -0.211600
      5 C15         1.0730   -0.4900   -2.1430 ca        1 2D7     -0.053000
      6 C16         1.6240   -0.2600   -3.3980 ca        1 2D7     -0.191500
      7 C13         3.2030   -0.0790   -1.0970 ca        1 2D7     -0.053000
      8 C12         3.7730    0.1550   -2.3390 ca        1 2D7     -0.191500
      9 C11         2.9920    0.0690   -3.5220 ca        1 2D7      0.105600
     10 N3          3.6230    0.3060   -4.7480 n         1 2D7     -0.468100
     11 C10         3.0370    0.3600   -6.0130 c         1 2D7      0.729700
     12 O5          1.8170    0.1930   -6.1930 o         1 2D7     -0.594100
     13 C8          3.9810    0.6090   -7.1070 cc        1 2D7     -0.334900
     14 C9          5.2930    0.0060   -7.2290 cc        1 2D7      0.315200
     15 N1          5.9060    0.4500   -8.3530 nd        1 2D7     -0.501800
     16 N2          5.0560    1.2800   -8.9540 na        1 2D7      0.003400
     17 C7          3.8570    1.4440   -8.2450 cd        1 2D7      0.047700
     18 C5          2.7880    2.3140   -8.6970 ca        1 2D7     -0.110000
     19 C6          1.4550    1.8990   -8.5840 ca        1 2D7     -0.010000
     20 C1          0.4080    2.7210   -9.0020 ca        1 2D7     -0.108600
     21 CL1        -1.1940    2.1750   -8.8450 cl        1 2D7     -0.075400
     22 C2          0.6840    3.9910   -9.5450 ca        1 2D7      0.194100
     23 O2         -0.2730    4.8700   -9.9750 oh        1 2D7     -0.484100
     24 C3          2.0120    4.4230   -9.6800 ca        1 2D7     -0.251000
     25 C4          3.0500    3.5830   -9.2660 ca        1 2D7      0.179100
     26 O4          4.3640    3.9620   -9.4120 oh        1 2D7     -0.511100
     27 H181        2.9130   -1.2990    1.4810 hc        1 2D7      0.063033
     28 H182        1.4780   -0.7780    2.4650 hc        1 2D7      0.063033
     29 H183        2.5050    0.4670    1.6300 hc        1 2D7      0.063033
     30 H15         0.0030   -0.7470   -2.0540 ha        1 2D7      0.146000
     31 H16         0.9800   -0.3370   -4.2890 ha        1 2D7      0.155000
     32 H13         3.8370   -0.0040   -0.1990 ha        1 2D7      0.146000
     33 H12         4.8430    0.4100   -2.3960 ha        1 2D7      0.155000
     34 H3          4.6000    0.5020   -4.7010 hn        1 2D7      0.322500
     35 H9          5.7550   -0.7220   -6.5610 h4        1 2D7      0.048100
     36 H2          5.3420    1.8290   -9.7360 hn        1 2D7      0.337700
     37 H6          1.2330    0.9060   -8.1460 ha        1 2D7      0.198000
     38 HA         -1.1470    4.4730   -9.8240 ho        1 2D7      0.439000
     39 HB          2.2150    5.4140  -10.1080 ha        1 2D7      0.162000
     40 H4          4.3840    4.8840   -9.7100 ho        1 2D7      0.437000
@<TRIPOS>BOND
     1    1    2 2   
     2    2    3 1   
     3    2    4 1   
     4    3   27 1   
     5    3   28 1   
     6    3   29 1   
     7    4    5 ar  
     8    4    7 ar  
     9    5    6 ar  
    10    5   30 1   
    11    6    9 ar  
    12    6   31 1   
    13    7    8 ar  
    14    7   32 1   
    15    8    9 ar  
    16    8   33 1   
    17    9   10 1   
    18   10   11 1   
    19   10   34 1   
    20   11   12 2   
    21   11   13 1   
    22   13   14 1   
    23   13   17 2   
    24   14   15 2   
    25   14   35 1   
    26   15   16 1   
    27   16   17 1   
    28   16   36 1   
    29   17   18 1   
    30   18   19 ar  
    31   18   25 ar  
    32   19   20 ar  
    33   19   37 1   
    34   20   21 1   
    35   20   22 ar  
    36   22   23 1   
    37   22   24 ar  
    38   23   38 1   
    39   24   25 ar  
    40   24   39 1   
    41   25   26 1   
    42   26   40 1   
@<TRIPOS>SUBSTRUCTURE
     1 2D7         1 TEMP              0 ****  ****    0 ROOT
