@<TRIPOS>MOLECULE
2D7
   40    42     1     0     0
SMALL
bcc


@<TRIPOS>ATOM
      1 O6          6.8880    2.2490   -1.0140 o         1 2D7     -0.539100
      2 C17         6.6970    1.3110   -0.2270 c         1 2D7      0.580700
      3 C18         7.7790    0.8510    0.7000 c3        1 2D7     -0.198100
      4 C14         5.4020    0.6060   -0.1650 ca        1 2D7     -0.206600
      5 C15         4.3600    1.0150   -1.0070 ca        1 2D7     -0.054000
      6 C16         3.1220    0.3830   -0.9870 ca        1 2D7     -0.188000
      7 C13         5.1770   -0.4620    0.7110 ca        1 2D7     -0.054000
      8 C12         3.9490   -1.1060    0.7480 ca        1 2D7     -0.188000
      9 C11         2.8920   -0.6950   -0.1050 ca        1 2D7      0.099600
     10 N3          1.6770   -1.3890   -0.0310 n         1 2D7     -0.461100
     11 C10         0.5000   -1.1140   -0.7180 c         1 2D7      0.725700
     12 O5          0.3860   -0.1740   -1.5300 o         1 2D7     -0.599100
     13 C8         -0.6120   -2.0290   -0.4390 cc        1 2D7     -0.342900
     14 C9         -0.5280   -3.4680   -0.3020 cc        1 2D7      0.321200
     15 N1         -1.7610   -3.9820   -0.0700 nd        1 2D7     -0.497800
     16 N2         -2.6100   -2.9560   -0.0470 na        1 2D7     -0.005600
     17 C7         -1.9820   -1.7220   -0.2690 cd        1 2D7      0.032700
     18 C5         -2.7130   -0.4690   -0.2380 ca        1 2D7     -0.178000
     19 C6         -3.3730   -0.1070    0.9440 ca        1 2D7     -0.031000
     20 C1         -4.1170    1.0660    1.0170 ca        1 2D7     -0.115600
     21 CL1        -4.9010    1.4700    2.4720 cl        1 2D7     -0.087400
     22 C2         -4.2110    1.9070   -0.1150 ca        1 2D7      0.191100
     23 O2         -4.9240    3.0750   -0.1390 oh        1 2D7     -0.480100
     24 C3         -3.5520    1.5690   -1.3010 ca        1 2D7     -0.197000
     25 C4         -2.8010    0.3840   -1.3610 ca        1 2D7      0.228100
     26 O4         -2.2320    0.1100   -2.5710 oh        1 2D7     -0.486100
     27 H181        8.6990    1.4680    0.5570 hc        1 2D7      0.063367
     28 H182        7.4400    0.9490    1.7600 hc        1 2D7      0.063367
     29 H183        8.0270   -0.2180    0.4940 hc        1 2D7      0.063367
     30 H15         4.5320    1.8570   -1.7000 ha        1 2D7      0.148000
     31 H16         2.3280    0.7380   -1.6650 ha        1 2D7      0.155500
     32 H13         5.9770   -0.8060    1.3860 ha        1 2D7      0.148000
     33 H12         3.8060   -1.9420    1.4500 ha        1 2D7      0.155500
     34 H3          1.6450   -2.1380    0.6260 hn        1 2D7      0.323500
     35 H9          0.3610   -4.0960   -0.3850 h4        1 2D7      0.051100
     36 H2         -3.5830   -3.1030    0.1070 hn        1 2D7      0.333700
     37 H6         -3.2960   -0.7590    1.8290 ha        1 2D7      0.151000
     38 HA         -5.3110    3.2210    0.7400 ho        1 2D7      0.435000
     39 HB         -3.6190    2.2250   -2.1820 ha        1 2D7      0.180000
     40 H4         -1.4850   -0.5010   -2.4370 ho        1 2D7      0.457000
@<TRIPOS>BOND
     1    1    2 2   
     2    2    3 1   
     3    2    4 1   
     4    3   27 1   
     5    3   28 1   
     6    3   29 1   
     7    4    5 ar  
     8    4    7 ar  
     9    5    6 ar  
    10    5   30 1   
    11    6    9 ar  
    12    6   31 1   
    13    7    8 ar  
    14    7   32 1   
    15    8    9 ar  
    16    8   33 1   
    17    9   10 1   
    18   10   11 1   
    19   10   34 1   
    20   11   12 2   
    21   11   13 1   
    22   13   14 1   
    23   13   17 2   
    24   14   15 2   
    25   14   35 1   
    26   15   16 1   
    27   16   17 1   
    28   16   36 1   
    29   17   18 1   
    30   18   19 ar  
    31   18   25 ar  
    32   19   20 ar  
    33   19   37 1   
    34   20   21 1   
    35   20   22 ar  
    36   22   23 1   
    37   22   24 ar  
    38   23   38 1   
    39   24   25 ar  
    40   24   39 1   
    41   25   26 1   
    42   26   40 1   
@<TRIPOS>SUBSTRUCTURE
     1 2D7         1 TEMP              0 ****  ****    0 ROOT
