@<TRIPOS>MOLECULE
2D7
   41    43     1     0     0
SMALL
bcc


@<TRIPOS>ATOM
      1 O6          1.7380   -2.7650   -0.0900 o         1 2D7     -0.490100
      2 C17         1.7910   -1.5330   -0.1460 c         1 2D7      0.567700
      3 C18         1.1960   -0.6500    0.8970 c3        1 2D7     -0.200100
      4 C14         2.4780   -0.8670   -1.2900 ca        1 2D7     -0.120600
      5 C15         3.3470   -1.6270   -2.0870 ca        1 2D7     -0.067000
      6 C16         4.0080   -1.0520   -3.1680 ca        1 2D7     -0.116500
      7 C13         2.2720    0.4830   -1.5880 ca        1 2D7     -0.067000
      8 C12         2.9210    1.0780   -2.6690 ca        1 2D7     -0.116500
      9 C11         3.7920    0.3070   -3.4580 ca        1 2D7     -0.031400
     10 N3          4.4900    0.9310   -4.5830 n4        1 2D7     -0.555200
     11 C10         3.5180    1.5340   -5.6160 c         1 2D7      0.643700
     12 O5          3.2530    2.7090   -5.4030 o         1 2D7     -0.450100
     13 C8          3.1240    0.6390   -6.6470 cc        1 2D7     -0.401900
     14 C9          3.1470   -0.8170   -6.6390 cc        1 2D7      0.342200
     15 N1          2.6490   -1.2890   -7.7990 nd        1 2D7     -0.454800
     16 N2          2.3220   -0.2280   -8.5510 na        1 2D7      0.003400
     17 C7          2.5730    0.9870   -7.9220 cd        1 2D7      0.149700
     18 C5          2.2980    2.2680   -8.5330 ca        1 2D7     -0.169000
     19 C6          1.0510    2.4920   -9.1400 ca        1 2D7     -0.020000
     20 C1          0.7540    3.7080   -9.7440 ca        1 2D7     -0.109600
     21 CL1        -0.7670    3.9380  -10.4570 cl        1 2D7     -0.046400
     22 C2          1.7230    4.7400   -9.7580 ca        1 2D7      0.228100
     23 O2          1.5330    5.9630  -10.3250 oh        1 2D7     -0.463100
     24 C3          2.9770    4.5350   -9.1610 ca        1 2D7     -0.246000
     25 C4          3.2550    3.3080   -8.5510 ca        1 2D7      0.219100
     26 O4          4.4660    3.0640   -7.9530 oh        1 2D7     -0.512100
     27 H181        0.2820   -0.1490    0.4920 hc        1 2D7      0.078367
     28 H182        0.9000   -1.2560    1.7910 hc        1 2D7      0.078367
     29 H183        1.9290    0.1300    1.2170 hc        1 2D7      0.078367
     30 H15         3.4970   -2.6970   -1.8500 ha        1 2D7      0.179500
     31 H16         4.6910   -1.6700   -3.7730 ha        1 2D7      0.163000
     32 H13         1.5880    1.0930   -0.9730 ha        1 2D7      0.179500
     33 H12         2.7410    2.1430   -2.8970 ha        1 2D7      0.163000
     34 H3          5.0850    0.2380   -5.0470 hn        1 2D7      0.459300
     35 H9          3.4690   -1.4820   -5.8350 h4        1 2D7      0.053100
     36 H2          1.9330   -0.3590   -9.4630 hn        1 2D7      0.354700
     37 H6          0.2870    1.6960   -9.1250 ha        1 2D7      0.160000
     38 HA          0.6390    6.0040  -10.7100 ho        1 2D7      0.452000
     39 HB          3.7210    5.3450   -9.1830 ha        1 2D7      0.177000
     40 H4          5.0380    3.8360   -8.0980 ho        1 2D7      0.448000
     41 H32         5.0780    1.6900   -4.2140 hn        1 2D7      0.459300
@<TRIPOS>BOND
     1    1    2 2   
     2    2    3 1   
     3    2    4 1   
     4    3   27 1   
     5    3   28 1   
     6    3   29 1   
     7    4    5 ar  
     8    4    7 ar  
     9    5    6 ar  
    10    5   30 1   
    11    6    9 ar  
    12    6   31 1   
    13    7    8 ar  
    14    7   32 1   
    15    8    9 ar  
    16    8   33 1   
    17    9   10 1   
    18   10   11 1   
    19   10   34 1   
    20   10   41 1   
    21   11   12 2   
    22   11   13 1   
    23   13   14 1   
    24   13   17 2   
    25   14   15 2   
    26   14   35 1   
    27   15   16 1   
    28   16   17 1   
    29   16   36 1   
    30   17   18 1   
    31   18   19 ar  
    32   18   25 ar  
    33   19   20 ar  
    34   19   37 1   
    35   20   21 1   
    36   20   22 ar  
    37   22   23 1   
    38   22   24 ar  
    39   23   38 1   
    40   24   25 ar  
    41   24   39 1   
    42   25   26 1   
    43   26   40 1   
@<TRIPOS>SUBSTRUCTURE
     1 2D7         1 TEMP              0 ****  ****    0 ROOT
