@<TRIPOS>MOLECULE
2D7
   40    42     1     0     0
SMALL
bcc


@<TRIPOS>ATOM
      1 O6         -0.0470   -1.0400    0.3600 o         1 2D7     -0.542100
      2 C17         1.1580   -0.7620    0.2820 c         1 2D7      0.580700
      3 C18         2.0130   -0.6960    1.5090 c3        1 2D7     -0.198100
      4 C14         1.8050   -0.4840   -1.0140 ca        1 2D7     -0.211600
      5 C15         1.0420   -0.5440   -2.1870 ca        1 2D7     -0.053000
      6 C16         1.6050   -0.2910   -3.4320 ca        1 2D7     -0.191500
      7 C13         3.1630   -0.1590   -1.1140 ca        1 2D7     -0.053000
      8 C12         3.7450    0.0980   -2.3470 ca        1 2D7     -0.191500
      9 C11         2.9740    0.0370   -3.5380 ca        1 2D7      0.105600
     10 N3          3.6160    0.2970   -4.7530 ns        1 2D7     -0.468100
     11 C10         3.0430    0.3750   -6.0230 c         1 2D7      0.729700
     12 O5          1.8240    0.2120   -6.2170 o         1 2D7     -0.594100
     13 C8          3.9970    0.6430   -7.1030 cc        1 2D7     -0.334900
     14 C9          5.3100    0.0410   -7.2230 cc        1 2D7      0.315200
     15 N1          5.9340    0.5050   -8.3330 nd        1 2D7     -0.501800
     16 N2          5.0900    1.3460   -8.9280 na        1 2D7      0.003400
     17 C7          3.8840    1.4980   -8.2260 cd        1 2D7      0.047700
     18 C5          2.8210    2.3760   -8.6740 ca        1 2D7     -0.110000
     19 C6          1.4860    1.9610   -8.5810 ca        1 2D7     -0.010000
     20 C1          0.4440    2.7910   -8.9930 ca        1 2D7     -0.108600
     21 Cl1        -1.1600    2.2430   -8.8630 cl        1 2D7     -0.075400
     22 C2          0.7260    4.0700   -9.5110 ca        1 2D7      0.194100
     23 O2         -0.2270    4.9570   -9.9340 oh        1 2D7     -0.484100
     24 C3          2.0540    4.5030   -9.6260 ca        1 2D7     -0.251000
     25 C4          3.0880    3.6550   -9.2170 ca        1 2D7      0.179100
     26 O4          4.4030    4.0360   -9.3430 oh        1 2D7     -0.511100
     27 H181        2.4430    0.3290    1.6190 hc        1 2D7      0.063033
     28 H182        2.8470   -1.4350    1.4330 hc        1 2D7      0.063033
     29 H183        1.4050   -0.9300    2.4170 hc        1 2D7      0.063033
     30 H15        -0.0300   -0.8000   -2.1130 ha        1 2D7      0.146000
     31 H16         0.9680   -0.3490   -4.3300 ha        1 2D7      0.155000
     32 H13         3.7890   -0.1040   -0.2090 ha        1 2D7      0.146000
     33 H12         4.8150    0.3510   -2.3880 ha        1 2D7      0.155000
     34 H3          4.5930    0.4900   -4.6930 hn        1 2D7      0.322500
     35 H9          5.7660   -0.6990   -6.5630 h4        1 2D7      0.048100
     36 H2          5.3840    1.9090   -9.6960 hn        1 2D7      0.337700
     37 H6          1.2590    0.9610   -8.1630 ha        1 2D7      0.198000
     38 HA         -1.1030    4.5580   -9.8000 ho        1 2D7      0.439000
     39 HB          2.2630    5.5020  -10.0340 ha        1 2D7      0.162000
     40 H4          4.4270    4.9630   -9.6250 ho        1 2D7      0.437000
@<TRIPOS>BOND
     1    1    2 2   
     2    2    3 1   
     3    2    4 1   
     4    3   27 1   
     5    3   28 1   
     6    3   29 1   
     7    4    5 ar  
     8    4    7 ar  
     9    5    6 ar  
    10    5   30 1   
    11    6    9 ar  
    12    6   31 1   
    13    7    8 ar  
    14    7   32 1   
    15    8    9 ar  
    16    8   33 1   
    17    9   10 1   
    18   10   11 1   
    19   10   34 1   
    20   11   12 2   
    21   11   13 1   
    22   13   14 1   
    23   13   17 2   
    24   14   15 2   
    25   14   35 1   
    26   15   16 1   
    27   16   17 1   
    28   16   36 1   
    29   17   18 1   
    30   18   19 ar  
    31   18   25 ar  
    32   19   20 ar  
    33   19   37 1   
    34   20   21 1   
    35   20   22 ar  
    36   22   23 1   
    37   22   24 ar  
    38   23   38 1   
    39   24   25 ar  
    40   24   39 1   
    41   25   26 1   
    42   26   40 1   
@<TRIPOS>SUBSTRUCTURE
     1 2D7         1 TEMP              0 ****  ****    0 ROOT
