@<TRIPOS>MOLECULE
2D8
   25    23     1     0     0
SMALL
bcc


@<TRIPOS>ATOM
      1 C4          0.3920   -0.9480    0.0390 c3        1 2D8     -0.416600
      2 C5          1.9030   -0.9400   -0.0350 c3        1 2D8     -0.179700
      3 C6          2.4760   -0.8710    1.3640 c         1 2D8      0.913600
      4 C7          2.3820   -2.2040   -0.7140 c3        1 2D8     -0.060100
      5 N1         -2.6680    0.8760   -1.2210 nh        1 2D8     -0.452100
      6 P          -0.2330    0.7420   -0.1760 p4        1 2D8      1.934900
      7 C1         -2.4260    1.9230    0.9210 c3        1 2D8     -0.187400
      8 C2         -2.0340    0.7540    0.0470 c2        1 2D8     -0.534800
      9 O31         0.3940    1.6320    0.8280 o         1 2D8     -0.908300
     10 O32         0.1210    1.2550   -1.6280 oh        1 2D8     -0.810400
     11 O61         2.2040   -1.7720    2.2000 o         1 2D8     -0.836800
     12 O62         3.2240    0.0870    1.6910 o         1 2D8     -0.836800
     13 H1          0.0340   -1.5210   -0.6690 hc        1 2D8      0.106700
     14 H2          0.1100   -1.2920    0.9100 hc        1 2D8      0.106700
     15 H3          2.2000   -0.1630   -0.5460 hc        1 2D8      0.042700
     16 H4          2.1410   -2.1760   -1.6640 hc        1 2D8      0.022367
     17 H5          3.3560   -2.2740   -0.6260 hc        1 2D8      0.022367
     18 H6          1.9590   -2.9820   -0.2930 hc        1 2D8      0.022367
     19 H7         -2.9200    0.0460   -1.5170 hn        1 2D8      0.185700
     20 H8         -3.4080    1.4100   -1.1420 hn        1 2D8      0.185700
     21 H10        -2.2270    2.7610    0.4530 hc        1 2D8      0.041700
     22 H11        -3.3850    1.8770    1.1160 hc        1 2D8      0.041700
     23 H12        -1.9200    1.8880    1.7590 hc        1 2D8      0.041700
     24 H13        -2.3150   -0.0800    0.4730 h4        1 2D8      0.103800
     25 H14         0.6390    1.9730   -1.5710 ho        1 2D8      0.452000
@<TRIPOS>BOND
     1    1    2 1   
     2    1    6 1   
     3    1   13 1   
     4    1   14 1   
     5    2    3 1   
     6    2    4 1   
     7    2   15 1   
     8    3   11 1   
     9    3   12 1   
    10    4   16 1   
    11    4   17 1   
    12    4   18 1   
    13    5    8 2   
    14    5   19 1   
    15    5   20 1   
    16    6    9 2   
    17    6   10 1   
    18    7    8 1   
    19    7   21 1   
    20    7   22 1   
    21    7   23 1   
    22    8   24 1   
    23   10   25 1   
@<TRIPOS>SUBSTRUCTURE
     1 2D8         1 TEMP              0 ****  ****    0 ROOT
