@<TRIPOS>MOLECULE
2D8
   25    24     1     0     0
SMALL
bcc


@<TRIPOS>ATOM
      1 C4         -0.0040    0.4340   -1.3200 c3        1 2D8     -0.430600
      2 C5          1.1580    0.3700   -0.3470 c3        1 2D8     -0.176700
      3 C6          1.5340   -1.0830    0.0720 c         1 2D8      0.906600
      4 C7          2.3950    1.0190   -0.9250 c3        1 2D8     -0.062100
      5 N1         -1.8770   -1.8180   -0.3640 n3        1 2D8     -0.901800
      6 P          -1.4100    0.6930   -0.5400 p5        1 2D8      1.519100
      7 C1         -2.9890   -0.2600    1.2200 c3        1 2D8     -0.094100
      8 C2         -1.7370   -0.6190    0.4400 c3        1 2D8     -0.134700
      9 O31        -1.6030    1.9890    0.1270 o         1 2D8     -0.914300
     10 O32        -2.5390    0.7940   -1.7060 oh        1 2D8     -0.794400
     11 O61         2.2580   -1.2140    1.0950 o         1 2D8     -0.835800
     12 O62         1.0920   -2.0520   -0.6130 o         1 2D8     -0.835800
     13 H1          0.1880    1.2440   -2.0720 hc        1 2D8      0.113700
     14 H2          0.0240   -0.5230   -1.9170 hc        1 2D8      0.113700
     15 H3          0.8730    0.9250    0.5910 hc        1 2D8      0.039700
     16 H4          2.2230    2.1050   -1.1200 hc        1 2D8      0.024033
     17 H5          3.2410    0.9090   -0.2040 hc        1 2D8      0.024033
     18 H6          2.6780    0.5250   -1.8850 hc        1 2D8      0.024033
     19 H10        -3.2840   -1.0640    1.9330 hc        1 2D8      0.044700
     20 H11        -2.7900    0.6840    1.7860 hc        1 2D8      0.044700
     21 H12        -3.8330   -0.0780    0.5090 hc        1 2D8      0.044700
     22 H13        -0.8980   -0.7430    1.1970 h1        1 2D8      0.090700
     23 H14        -3.0900    1.5670   -1.6210 ho        1 2D8      0.451000
     24 H7         -0.9600   -2.0920   -0.6900 hn        1 2D8      0.370300
     25 H8         -2.2500   -2.5640    0.1910 hn        1 2D8      0.370300
@<TRIPOS>BOND
     1    1    2 1   
     2    1    6 1   
     3    1   13 1   
     4    1   14 1   
     5    2    3 1   
     6    2    4 1   
     7    2   15 1   
     8    3   11 1   
     9    3   12 1   
    10    4   16 1   
    11    4   17 1   
    12    4   18 1   
    13    5    8 1   
    14    5   24 1   
    15    5   25 1   
    16    6    8 1   
    17    6    9 2   
    18    6   10 1   
    19    7    8 1   
    20    7   19 1   
    21    7   20 1   
    22    7   21 1   
    23    8   22 1   
    24   10   23 1   
@<TRIPOS>SUBSTRUCTURE
     1 2D8         1 TEMP              0 ****  ****    0 ROOT
