@<TRIPOS>MOLECULE
2D9
   54    57     1     0     0
SMALL
bcc


@<TRIPOS>ATOM
      1 C31         8.4010    1.6940   -0.4770 c3        1 2D9     -0.356300
      2 S28         7.8000    0.1630   -0.0710 sy        1 2D9      1.398300
      3 O29         8.3740   -0.2400    1.1440 o         1 2D9     -0.658300
      4 O30         7.9520   -0.6890   -1.1740 o         1 2D9     -0.658300
      5 C25         6.1840    0.5380    0.1520 ca        1 2D9     -0.391500
      6 C26         5.2780    0.4760   -0.9150 ca        1 2D9     -0.020500
      7 C27         3.9300    0.7690   -0.7330 ca        1 2D9     -0.147500
      8 C24         5.6960    0.8890    1.4180 ca        1 2D9     -0.020500
      9 C23         4.3500    1.1800    1.6120 ca        1 2D9     -0.147500
     10 C19         3.4570    1.1250    0.5350 ca        1 2D9     -0.019300
     11 C18         2.0190    1.5000    0.7510 c3        1 2D9      0.202100
     12 N15         1.0680    0.6050    0.1030 n3        1 2D9     -0.730600
     13 C16        -0.2780    1.1650    0.0940 c3        1 2D9      0.163800
     14 C17        -1.3080    0.2270   -0.5650 c3        1 2D9      0.175800
     15 C14         1.0990   -0.7420    0.6570 c3        1 2D9      0.163800
     16 C13         0.0720   -1.6840   -0.0010 c3        1 2D9      0.175800
     17 N12        -1.2730   -1.1190    0.0020 nh        1 2D9     -0.599000
     18 C3         -2.2570   -1.9840   -0.4940 cc        1 2D9     -0.044700
     19 C2         -2.0810   -3.3190   -1.0520 cc        1 2D9      0.262200
     20 N1         -3.2900   -3.8730   -1.3220 nd        1 2D9     -0.488800
     21 N5         -4.2130   -2.9850   -0.9860 na        1 2D9     -0.005600
     22 C4         -3.6670   -1.8000   -0.4590 cd        1 2D9     -0.099300
     23 C6         -4.4820   -0.6810   -0.0330 ca        1 2D9     -0.141000
     24 C7         -5.3450   -0.0660   -0.9470 ca        1 2D9     -0.038000
     25 C8         -6.1480    1.0060   -0.5640 ca        1 2D9     -0.115600
     26 CL20       -7.1820    1.7250   -1.7080 cl        1 2D9     -0.090400
     27 C9         -6.0960    1.4810    0.7630 ca        1 2D9      0.182100
     28 O21        -6.8450    2.5280    1.2310 oh        1 2D9     -0.484100
     29 C10        -5.2420    0.8800    1.6950 ca        1 2D9     -0.200000
     30 C11        -4.4400   -0.2000    1.2950 ca        1 2D9      0.202100
     31 O22        -3.6520   -0.7380    2.2740 oh        1 2D9     -0.486100
     32 H311        7.9240    2.1240   -1.3910 h1        1 2D9      0.113367
     33 H312        8.2670    2.4470    0.3380 h1        1 2D9      0.113367
     34 H313        9.5000    1.6520   -0.6870 h1        1 2D9      0.113367
     35 H26         5.6440    0.1750   -1.9130 ha        1 2D9      0.155500
     36 H27         3.2340    0.7140   -1.5840 ha        1 2D9      0.150000
     37 H24         6.3940    0.9160    2.2740 ha        1 2D9      0.155500
     38 H23         3.9890    1.4490    2.6170 ha        1 2D9      0.150000
     39 H181        1.8210    1.5770    1.8620 h1        1 2D9      0.048700
     40 H182        1.8720    2.5300    0.3100 h1        1 2D9      0.048700
     41 H161       -0.6310    1.4190    1.1360 h1        1 2D9      0.044450
     42 H162       -0.2540    2.1160   -0.5070 h1        1 2D9      0.044450
     43 H171       -2.3350    0.6520   -0.3810 h1        1 2D9      0.049700
     44 H172       -1.1260    0.2100   -1.6780 h1        1 2D9      0.049700
     45 H141        2.1250   -1.1650    0.4660 h1        1 2D9      0.044450
     46 H142        0.9240   -0.7390    1.7720 h1        1 2D9      0.044450
     47 H131        0.0500   -2.6410    0.5920 h1        1 2D9      0.049700
     48 H132        0.4170   -1.9280   -1.0480 h1        1 2D9      0.049700
     49 H2         -1.1440   -3.8430   -1.2380 h4        1 2D9      0.048100
     50 H5         -5.1810   -3.1820   -1.0930 hn        1 2D9      0.327700
     51 H7         -5.3810   -0.4320   -1.9870 ha        1 2D9      0.154000
     52 H21        -7.4010    2.8580    0.5050 ho        1 2D9      0.434000
     53 H10        -5.2030    1.2470    2.7310 ha        1 2D9      0.176000
     54 H22        -3.0990   -1.4360    1.8830 ho        1 2D9      0.450000
@<TRIPOS>BOND
     1    1    2 1   
     2    1   32 1   
     3    1   33 1   
     4    1   34 1   
     5    2    3 2   
     6    2    4 2   
     7    2    5 1   
     8    5    6 ar  
     9    5    8 ar  
    10    6    7 ar  
    11    6   35 1   
    12    7   10 ar  
    13    7   36 1   
    14    8    9 ar  
    15    8   37 1   
    16    9   10 ar  
    17    9   38 1   
    18   10   11 1   
    19   11   12 1   
    20   11   39 1   
    21   11   40 1   
    22   12   13 1   
    23   12   15 1   
    24   13   14 1   
    25   13   41 1   
    26   13   42 1   
    27   14   17 1   
    28   14   43 1   
    29   14   44 1   
    30   15   16 1   
    31   15   45 1   
    32   15   46 1   
    33   16   17 1   
    34   16   47 1   
    35   16   48 1   
    36   17   18 1   
    37   18   19 1   
    38   18   22 2   
    39   19   20 2   
    40   19   49 1   
    41   20   21 1   
    42   21   22 1   
    43   21   50 1   
    44   22   23 1   
    45   23   24 ar  
    46   23   30 ar  
    47   24   25 ar  
    48   24   51 1   
    49   25   26 1   
    50   25   27 ar  
    51   27   28 1   
    52   27   29 ar  
    53   28   52 1   
    54   29   30 ar  
    55   29   53 1   
    56   30   31 1   
    57   31   54 1   
@<TRIPOS>SUBSTRUCTURE
     1 2D9         1 TEMP              0 ****  ****    0 ROOT
