@<TRIPOS>MOLECULE
2D9
   54    57     1     0     0
SMALL
bcc


@<TRIPOS>ATOM
      1 C31         0.4690   -0.2610    0.5270 c3        1 2D9     -0.356300
      2 S28         1.1710   -1.5000    1.4440 sy        1 2D9      1.398300
      3 O29         0.1530   -2.2170    2.0900 o         1 2D9     -0.658800
      4 O30         2.1850   -0.9510    2.2430 o         1 2D9     -0.658800
      5 C25         1.8370   -2.4230    0.2170 ca        1 2D9     -0.392500
      6 C26         3.1390   -2.1800   -0.2400 ca        1 2D9     -0.020500
      7 C27         3.7040   -2.9560   -1.2470 ca        1 2D9     -0.148000
      8 C24         1.1190   -3.4810   -0.3550 ca        1 2D9     -0.020500
      9 C23         1.6750   -4.2660   -1.3590 ca        1 2D9     -0.148000
     10 C19         2.9740   -4.0060   -1.8160 ca        1 2D9     -0.018300
     11 C18         3.5340   -4.8260   -2.9420 c3        1 2D9      0.203100
     12 N15         4.9280   -5.2110   -2.7640 n3        1 2D9     -0.730600
     13 C16         5.4970   -5.7500   -3.9920 c3        1 2D9      0.163800
     14 C17         6.9640   -6.1930   -3.8250 c3        1 2D9      0.174300
     15 C14         5.1220   -6.1030   -1.6290 c3        1 2D9      0.163800
     16 C13         6.5870   -6.5500   -1.4600 c3        1 2D9      0.174300
     17 N12         7.1410   -7.1000   -2.6960 nh        1 2D9     -0.593000
     18 C3          8.4480   -7.5930   -2.5650 cc        1 2D9     -0.049700
     19 C2          9.6440   -7.1570   -3.2740 cc        1 2D9      0.261200
     20 N1         10.7020   -7.9310   -2.9220 nd        1 2D9     -0.495800
     21 N5         10.2570   -8.8380   -2.0650 na        1 2D9      0.006400
     22 C4          8.8880   -8.6930   -1.7750 cd        1 2D9     -0.065300
     23 C6          8.1630   -9.5620   -0.8740 ca        1 2D9     -0.066000
     24 C7          6.8480   -9.9340   -1.1810 ca        1 2D9     -0.031000
     25 C8          6.1090  -10.7530   -0.3270 ca        1 2D9     -0.108600
     26 CL20        4.5120  -11.1670   -0.7440 cl        1 2D9     -0.088400
     27 C9          6.6880  -11.2310    0.8640 ca        1 2D9      0.182100
     28 O21         6.0450  -12.0350    1.7670 oh        1 2D9     -0.485100
     29 C10         8.0090  -10.8880    1.1850 ca        1 2D9     -0.245000
     30 C11         8.7360  -10.0680    0.3170 ca        1 2D9      0.168100
     31 O22        10.0420   -9.7360    0.5920 oh        1 2D9     -0.507100
     32 H311        1.2100    0.3010   -0.0910 h1        1 2D9      0.113367
     33 H312       -0.0260    0.4960    1.1870 h1        1 2D9      0.113367
     34 H313       -0.3200   -0.6280   -0.1740 h1        1 2D9      0.113367
     35 H26         3.7280   -1.3670    0.2220 ha        1 2D9      0.155000
     36 H27         4.7300   -2.7500   -1.5920 ha        1 2D9      0.150500
     37 H24         0.1010   -3.7020    0.0140 ha        1 2D9      0.155000
     38 H23         1.0930   -5.0940   -1.7910 ha        1 2D9      0.150500
     39 H181        3.4720   -4.1940   -3.8780 h1        1 2D9      0.047700
     40 H182        2.8720   -5.7300   -3.1020 h1        1 2D9      0.047700
     41 H161        4.8970   -6.6220   -4.3840 h1        1 2D9      0.041950
     42 H162        5.4760   -4.9360   -4.7700 h1        1 2D9      0.041950
     43 H171        7.2720   -6.7390   -4.7600 h1        1 2D9      0.048700
     44 H172        7.6110   -5.2740   -3.7260 h1        1 2D9      0.048700
     45 H141        4.8240   -5.5400   -0.7000 h1        1 2D9      0.041950
     46 H142        4.4700   -7.0220   -1.7040 h1        1 2D9      0.041950
     47 H131        7.1940   -5.6770   -1.0850 h1        1 2D9      0.048700
     48 H132        6.6180   -7.3620   -0.6800 h1        1 2D9      0.048700
     49 H2          9.7300   -6.3480   -3.9980 h4        1 2D9      0.043100
     50 H5         10.8880   -9.4160   -1.5540 hn        1 2D9      0.332700
     51 H7          6.3910   -9.5710   -2.1190 ha        1 2D9      0.178000
     52 H21         5.1460  -12.2090    1.4400 ho        1 2D9      0.436000
     53 H10         8.4530  -11.2710    2.1150 ha        1 2D9      0.160000
     54 H22        10.2620  -10.0720    1.4740 ho        1 2D9      0.434000
@<TRIPOS>BOND
     1    1    2 1   
     2    1   32 1   
     3    1   33 1   
     4    1   34 1   
     5    2    3 2   
     6    2    4 2   
     7    2    5 1   
     8    5    6 ar  
     9    5    8 ar  
    10    6    7 ar  
    11    6   35 1   
    12    7   10 ar  
    13    7   36 1   
    14    8    9 ar  
    15    8   37 1   
    16    9   10 ar  
    17    9   38 1   
    18   10   11 1   
    19   11   12 1   
    20   11   39 1   
    21   11   40 1   
    22   12   13 1   
    23   12   15 1   
    24   13   14 1   
    25   13   41 1   
    26   13   42 1   
    27   14   17 1   
    28   14   43 1   
    29   14   44 1   
    30   15   16 1   
    31   15   45 1   
    32   15   46 1   
    33   16   17 1   
    34   16   47 1   
    35   16   48 1   
    36   17   18 1   
    37   18   19 1   
    38   18   22 2   
    39   19   20 2   
    40   19   49 1   
    41   20   21 1   
    42   21   22 1   
    43   21   50 1   
    44   22   23 1   
    45   23   24 ar  
    46   23   30 ar  
    47   24   25 ar  
    48   24   51 1   
    49   25   26 1   
    50   25   27 ar  
    51   27   28 1   
    52   27   29 ar  
    53   28   52 1   
    54   29   30 ar  
    55   29   53 1   
    56   30   31 1   
    57   31   54 1   
@<TRIPOS>SUBSTRUCTURE
     1 2D9         1 TEMP              0 ****  ****    0 ROOT
