@<TRIPOS>MOLECULE
2D9
   54    57     1     0     0
SMALL
bcc


@<TRIPOS>ATOM
      1 C31         0.4010   -0.3000    0.4720 c3        1 2D9     -0.356300
      2 S28         1.0650   -1.5630    1.3860 sy        1 2D9      1.398300
      3 O29         0.0200   -2.2950    1.9700 o         1 2D9     -0.658800
      4 O30         2.0430   -1.0360    2.2420 o         1 2D9     -0.658800
      5 C25         1.7820   -2.4540    0.1660 ca        1 2D9     -0.392500
      6 C26         3.1030   -2.2020   -0.2280 ca        1 2D9     -0.020500
      7 C27         3.7110   -2.9520   -1.2300 ca        1 2D9     -0.148000
      8 C24         1.0890   -3.4960   -0.4650 ca        1 2D9     -0.020500
      9 C23         1.6880   -4.2540   -1.4650 ca        1 2D9     -0.148000
     10 C19         3.0050   -3.9840   -1.8570 ca        1 2D9     -0.018300
     11 C18         3.6140   -4.7750   -2.9800 c3        1 2D9      0.203100
     12 N15         4.9980   -5.1680   -2.7520 n3        1 2D9     -0.730600
     13 C16         5.6210   -5.6730   -3.9690 c3        1 2D9      0.163800
     14 C17         7.0790   -6.1230   -3.7500 c3        1 2D9      0.174300
     15 C14         5.1430   -6.0900   -1.6340 c3        1 2D9      0.163800
     16 C13         6.5980   -6.5440   -1.4150 c3        1 2D9      0.174300
     17 N12         7.2050   -7.0610   -2.6400 nh        1 2D9     -0.593000
     18 C3          8.5060   -7.5590   -2.4660 cc        1 2D9     -0.049700
     19 C2          9.7320   -7.1060   -3.1100 cc        1 2D9      0.261200
     20 N1         10.7730   -7.8900   -2.7340 nd        1 2D9     -0.495800
     21 N5         10.2910   -8.8210   -1.9230 na        1 2D9      0.006400
     22 C4          8.9100   -8.6810   -1.6880 cd        1 2D9     -0.065300
     23 C6          8.1460   -9.5740   -0.8450 ca        1 2D9     -0.066000
     24 C7          6.8460   -9.9350   -1.2190 ca        1 2D9     -0.031000
     25 C8          6.0710  -10.7770   -0.4210 ca        1 2D9     -0.108600
     26 CL20        4.4930  -11.1760   -0.9190 cl        1 2D9     -0.088400
     27 C9          6.5970  -11.2880    0.7800 ca        1 2D9      0.182100
     28 O21         5.9150  -12.1170    1.6320 oh        1 2D9     -0.485100
     29 C10         7.9030  -10.9570    1.1690 ca        1 2D9     -0.245000
     30 C11         8.6670  -10.1140    0.3560 ca        1 2D9      0.168100
     31 O22         9.9600   -9.7920    0.6960 oh        1 2D9     -0.507100
     32 H311        1.1680    0.2770   -0.0990 h1        1 2D9      0.113367
     33 H312       -0.3570   -0.6480   -0.2700 h1        1 2D9      0.113367
     34 H313       -0.1210    0.4400    1.1300 h1        1 2D9      0.113367
     35 H26         3.6710   -1.4020    0.2800 ha        1 2D9      0.155000
     36 H27         4.7510   -2.7370   -1.5250 ha        1 2D9      0.150500
     37 H24         0.0560   -3.7250   -0.1460 ha        1 2D9      0.155000
     38 H23         1.1260   -5.0710   -1.9430 ha        1 2D9      0.150500
     39 H181        2.9590   -5.6740   -3.1930 h1        1 2D9      0.047700
     40 H182        3.5930   -4.1190   -3.9000 h1        1 2D9      0.047700
     41 H161        5.0380   -6.5330   -4.4100 h1        1 2D9      0.041950
     42 H162        5.6330   -4.8380   -4.7240 h1        1 2D9      0.041950
     43 H171        7.4270   -6.6430   -4.6860 h1        1 2D9      0.048700
     44 H172        7.7210   -5.2070   -3.5980 h1        1 2D9      0.048700
     45 H141        4.4940   -7.0060   -1.7630 h1        1 2D9      0.041950
     46 H142        4.8050   -5.5530   -0.7040 h1        1 2D9      0.041950
     47 H131        7.1890   -5.6830   -0.9900 h1        1 2D9      0.048700
     48 H132        6.5950   -7.3770   -0.6570 h1        1 2D9      0.048700
     49 H2          9.8500   -6.2760   -3.8060 h4        1 2D9      0.043100
     50 H5         10.8980   -9.4130   -1.4010 hn        1 2D9      0.332700
     51 H7          6.4310   -9.5460   -2.1660 ha        1 2D9      0.178000
     52 H21         5.0320  -12.2800    1.2620 ho        1 2D9      0.436000
     53 H10         8.3060  -11.3660    2.1060 ha        1 2D9      0.160000
     54 H22        10.1420  -10.1520    1.5770 ho        1 2D9      0.434000
@<TRIPOS>BOND
     1    1    2 1   
     2    1   32 1   
     3    1   33 1   
     4    1   34 1   
     5    2    3 2   
     6    2    4 2   
     7    2    5 1   
     8    5    6 ar  
     9    5    8 ar  
    10    6    7 ar  
    11    6   35 1   
    12    7   10 ar  
    13    7   36 1   
    14    8    9 ar  
    15    8   37 1   
    16    9   10 ar  
    17    9   38 1   
    18   10   11 1   
    19   11   12 1   
    20   11   39 1   
    21   11   40 1   
    22   12   13 1   
    23   12   15 1   
    24   13   14 1   
    25   13   41 1   
    26   13   42 1   
    27   14   17 1   
    28   14   43 1   
    29   14   44 1   
    30   15   16 1   
    31   15   45 1   
    32   15   46 1   
    33   16   17 1   
    34   16   47 1   
    35   16   48 1   
    36   17   18 1   
    37   18   19 1   
    38   18   22 2   
    39   19   20 2   
    40   19   49 1   
    41   20   21 1   
    42   21   22 1   
    43   21   50 1   
    44   22   23 1   
    45   23   24 ar  
    46   23   30 ar  
    47   24   25 ar  
    48   24   51 1   
    49   25   26 1   
    50   25   27 ar  
    51   27   28 1   
    52   27   29 ar  
    53   28   52 1   
    54   29   30 ar  
    55   29   53 1   
    56   30   31 1   
    57   31   54 1   
@<TRIPOS>SUBSTRUCTURE
     1 2D9         1 TEMP              0 ****  ****    0 ROOT
