@<TRIPOS>MOLECULE
2D9
   54    49     1     0     0
SMALL
bcc


@<TRIPOS>ATOM
      1 C31        -0.8880    6.0570    4.7370 c3        1 2D9     -0.935000
      2 S28        -0.5090    4.6850    5.8680 s4        1 2D9      2.078800
      3 O29        -1.4980    4.5760    6.9100 o         1 2D9     -0.545900
      4 O30         0.6340    4.9470    6.6100 o         1 2D9     -0.545900
      5 C25        -0.3560    3.1920    4.9820 c1        1 2D9     -0.837000
      6 C26        -1.4240    2.3090    4.9180 c2        1 2D9     -0.019000
      7 C27        -1.3220    1.1440    4.1510 c1        1 2D9     -0.158000
      8 C24         0.8350    2.9150    4.2710 c1        1 2D9     -0.022000
      9 C23         0.9360    1.7590    3.5100 c1        1 2D9     -0.137000
     10 C19        -0.1400    0.8680    3.4450 c1        1 2D9     -0.010000
     11 C18        -0.0440   -0.4290    2.5400 c3        1 2D9     -0.042000
     12 N15         0.1440   -0.0540    1.1990 n3        1 2D9     -0.253000
     13 C16         1.3200   -0.6880    0.6860 c3        1 2D9     -0.103500
     14 C17         1.5050   -0.4490   -0.7970 c3        1 2D9     -0.063000
     15 C14        -1.0290   -0.3750    0.4470 c3        1 2D9     -0.103500
     16 C13        -0.8430   -0.1360   -1.0380 c3        1 2D9     -0.063000
     17 N12         0.3320   -0.7700   -1.5510 n3        1 2D9     -0.191000
     18 C3          0.1420   -2.2030   -1.5690 c2        1 2D9     -0.104000
     19 C2          0.0550   -3.0210   -0.4680 c1        1 2D9     -0.196000
     20 N1         -0.0230   -4.3000   -0.8990 n2        1 2D9     -0.073000
     21 N5          0.0140   -4.2890   -2.2740 n2        1 2D9     -0.142000
     22 C4          0.1160   -2.9920   -2.6810 c2        1 2D9      0.002000
     23 C6          0.2850   -2.5410   -4.0410 c1        1 2D9     -0.070000
     24 C7          1.4350   -1.8400   -4.4070 c1        1 2D9     -0.015000
     25 C8          1.5680   -1.3520   -5.7090 c1        1 2D9     -0.187000
     26 CL20        2.9700   -0.3900   -6.1440 cl        1 2D9     -0.009000
     27 C9          0.5570   -1.5630   -6.6370 c2        1 2D9      0.139000
     28 O21         0.6430   -0.9710   -7.9150 oh        1 2D9     -0.240000
     29 C10        -0.5890   -2.2620   -6.2730 c1        1 2D9     -0.246000
     30 C11        -0.7260   -2.7510   -4.9730 c1        1 2D9      0.124000
     31 O22        -1.8840   -3.4600   -4.6090 oh        1 2D9     -0.264000
     32 H311       -0.3640    5.9500    3.9040 h1        1 2D9      0.151667
     33 H312       -1.8080    6.0520    4.5320 h1        1 2D9      0.151667
     34 H313       -0.6500    6.9180    5.1690 h1        1 2D9      0.151667
     35 H26        -2.2550    2.5030    5.4150 ha        1 2D9      0.155000
     36 H27        -2.0810    0.5150    4.1050 ha        1 2D9      0.142000
     37 H24         1.5640    3.5190    4.3150 ha        1 2D9      0.155000
     38 H23         1.7800    1.5640    3.0060 ha        1 2D9      0.158000
     39 H181       -0.8360   -0.9240    2.6180 h1        1 2D9      0.087000
     40 H182        0.6940   -0.9650    2.8270 h1        1 2D9      0.087000
     41 H161        1.2540   -1.6830    0.8520 h1        1 2D9      0.078250
     42 H162        2.1130   -0.3340    1.1690 h1        1 2D9      0.078250
     43 H171        2.2380   -0.9980   -1.1130 h1        1 2D9      0.102750
     44 H172        1.7350    0.5200   -0.9450 h1        1 2D9      0.102750
     45 H141       -1.8120    0.2090    0.7840 h1        1 2D9      0.078250
     46 H142       -1.2550   -1.3340    0.5930 h1        1 2D9      0.078250
     47 H131       -0.7720    0.8460   -1.1960 h1        1 2D9      0.102750
     48 H132       -1.6260   -0.4790   -1.5150 h1        1 2D9      0.102750
     49 H2          0.0510   -2.7250    0.4740 DU        1 2D9      0.230500
     50 H5         -0.0230   -5.0350   -2.8280 DU        1 2D9      0.230500
     51 H7          2.2320   -1.8060   -3.7730 ha        1 2D9      0.174000
     52 H21         1.0370   -1.5280   -8.4710 ho        1 2D9      0.235000
     53 H10        -1.3050   -2.4100   -6.9330 ha        1 2D9      0.160000
     54 H22        -2.1270   -3.9900   -5.2760 ho        1 2D9      0.233000
@<TRIPOS>BOND
     1    1    2 1   
     2    1   32 1   
     3    1   33 1   
     4    1   34 1   
     5    2    3 1   
     6    2    4 1   
     7    5    6 1   
     8    5    8 1   
     9    6    7 1   
    10    6   35 1   
    11    7   36 1   
    12    8   37 1   
    13    9   10 1   
    14    9   38 1   
    15   10   11 1   
    16   11   12 1   
    17   11   39 1   
    18   11   40 1   
    19   12   13 1   
    20   12   15 1   
    21   13   14 1   
    22   13   41 1   
    23   13   42 1   
    24   14   17 1   
    25   14   43 1   
    26   14   44 1   
    27   15   16 1   
    28   15   45 1   
    29   15   46 1   
    30   16   17 1   
    31   16   47 1   
    32   16   48 1   
    33   17   18 1   
    34   18   19 1   
    35   18   22 1   
    36   19   20 1   
    37   20   21 1   
    38   21   22 1   
    39   22   23 1   
    40   23   30 1   
    41   24   25 1   
    42   24   51 1   
    43   25   27 1   
    44   27   28 1   
    45   27   29 1   
    46   28   52 1   
    47   29   53 1   
    48   30   31 1   
    49   31   54 1   
@<TRIPOS>SUBSTRUCTURE
     1 2D9         1 TEMP              0 ****  ****    0 ROOT
