@<TRIPOS>MOLECULE
2D9
   54    57     1     0     0
SMALL
bcc


@<TRIPOS>ATOM
      1 C31         0.4080   -0.2940    0.4690 c3        1 2D9     -0.356300
      2 S28         1.1010   -1.5340    1.3930 sy        1 2D9      1.398300
      3 O29         0.0760   -2.2590    2.0180 o         1 2D9     -0.658800
      4 O30         2.0970   -0.9830    2.2120 o         1 2D9     -0.658800
      5 C25         1.7930   -2.4480    0.1740 ca        1 2D9     -0.392500
      6 C26         3.1020   -2.1960   -0.2590 ca        1 2D9     -0.020500
      7 C27         3.6890   -2.9640   -1.2590 ca        1 2D9     -0.148000
      8 C24         1.0910   -3.5070   -0.4160 ca        1 2D9     -0.020500
      9 C23         1.6690   -4.2830   -1.4140 ca        1 2D9     -0.148000
     10 C19         2.9740   -4.0140   -1.8460 ca        1 2D9     -0.018300
     11 C18         3.5590   -4.8260   -2.9660 c3        1 2D9      0.203100
     12 N15         4.9510   -5.2050   -2.7650 n3        1 2D9     -0.730600
     13 C16         5.5460   -5.7340   -3.9860 c3        1 2D9      0.163800
     14 C17         7.0120   -6.1700   -3.7940 c3        1 2D9      0.174300
     15 C14         5.1300   -6.1020   -1.6310 c3        1 2D9      0.163800
     16 C13         6.5940   -6.5420   -1.4390 c3        1 2D9      0.174300
     17 N12         7.1730   -7.0820   -2.6670 nh        1 2D9     -0.593000
     18 C3          8.4810   -7.5690   -2.5160 cc        1 2D9     -0.049700
     19 C2          9.6870   -7.1230   -3.2000 cc        1 2D9      0.261200
     20 N1         10.7420   -7.8930   -2.8340 nd        1 2D9     -0.495800
     21 N5         10.2870   -8.8070   -1.9900 na        1 2D9      0.006400
     22 C4          8.9120   -8.6710   -1.7240 cd        1 2D9     -0.065300
     23 C6          8.1750   -9.5490   -0.8420 ca        1 2D9     -0.066000
     24 C7          6.8680   -9.9260   -1.1750 ca        1 2D9     -0.031000
     25 C8          6.1190  -10.7540   -0.3380 ca        1 2D9     -0.108600
     26 Cl20        4.5320  -11.1740   -0.7870 cl        1 2D9     -0.088400
     27 C9          6.6790  -11.2360    0.8600 ca        1 2D9      0.182100
     28 O21         6.0240  -12.0490    1.7470 oh        1 2D9     -0.485100
     29 C10         7.9920  -10.8890    1.2070 ca        1 2D9     -0.245000
     30 C11         8.7300  -10.0590    0.3570 ca        1 2D9      0.168100
     31 O22        10.0290   -9.7220    0.6570 oh        1 2D9     -0.507100
     32 H311        1.1570    0.2740   -0.1340 h1        1 2D9      0.113367
     33 H312       -0.3670   -0.6620   -0.2460 h1        1 2D9      0.113367
     34 H313       -0.1020    0.4570    1.1240 h1        1 2D9      0.113367
     35 H26         3.6780   -1.3810    0.2160 ha        1 2D9      0.155000
     36 H27         4.7190   -2.7500   -1.5850 ha        1 2D9      0.150500
     37 H24         0.0680   -3.7340   -0.0660 ha        1 2D9      0.155000
     38 H23         1.1000   -5.1130   -1.8600 ha        1 2D9      0.150500
     39 H181        2.9050   -5.7330   -3.1420 h1        1 2D9      0.047700
     40 H182        3.5100   -4.1900   -3.8990 h1        1 2D9      0.047700
     41 H161        4.9570   -6.6080   -4.3930 h1        1 2D9      0.041950
     42 H162        5.5340   -4.9170   -4.7600 h1        1 2D9      0.041950
     43 H171        7.6520   -5.2480   -3.6790 h1        1 2D9      0.048700
     44 H172        7.3390   -6.7090   -4.7270 h1        1 2D9      0.048700
     45 H141        4.8130   -5.5460   -0.7050 h1        1 2D9      0.041950
     46 H142        4.4840   -7.0240   -1.7230 h1        1 2D9      0.041950
     47 H131        6.6150   -7.3580   -0.6630 h1        1 2D9      0.048700
     48 H132        7.1900   -5.6680   -1.0490 h1        1 2D9      0.048700
     49 H2          9.7810   -6.3080   -3.9180 h4        1 2D9      0.043100
     50 H5         10.9110   -9.3840   -1.4710 hn        1 2D9      0.332700
     51 H7          6.4270   -9.5610   -2.1190 ha        1 2D9      0.178000
     52 H21         5.1320  -12.2250    1.4030 ho        1 2D9      0.436000
     53 H10         8.4210  -11.2740    2.1430 ha        1 2D9      0.160000
     54 H22        10.2350  -10.0620    1.5410 ho        1 2D9      0.434000
@<TRIPOS>BOND
     1    1    2 1   
     2    1   32 1   
     3    1   33 1   
     4    1   34 1   
     5    2    3 2   
     6    2    4 2   
     7    2    5 1   
     8    5    6 ar  
     9    5    8 ar  
    10    6    7 ar  
    11    6   35 1   
    12    7   10 ar  
    13    7   36 1   
    14    8    9 ar  
    15    8   37 1   
    16    9   10 ar  
    17    9   38 1   
    18   10   11 1   
    19   11   12 1   
    20   11   39 1   
    21   11   40 1   
    22   12   13 1   
    23   12   15 1   
    24   13   14 1   
    25   13   41 1   
    26   13   42 1   
    27   14   17 1   
    28   14   43 1   
    29   14   44 1   
    30   15   16 1   
    31   15   45 1   
    32   15   46 1   
    33   16   17 1   
    34   16   47 1   
    35   16   48 1   
    36   17   18 1   
    37   18   19 1   
    38   18   22 2   
    39   19   20 2   
    40   19   49 1   
    41   20   21 1   
    42   21   22 1   
    43   21   50 1   
    44   22   23 1   
    45   23   24 ar  
    46   23   30 ar  
    47   24   25 ar  
    48   24   51 1   
    49   25   26 1   
    50   25   27 ar  
    51   27   28 1   
    52   27   29 ar  
    53   28   52 1   
    54   29   30 ar  
    55   29   53 1   
    56   30   31 1   
    57   31   54 1   
@<TRIPOS>SUBSTRUCTURE
     1 2D9         1 TEMP              0 ****  ****    0 ROOT
