@<TRIPOS>MOLECULE
2DA
   33    30     1     0     0
SMALL
bcc


@<TRIPOS>ATOM
      1 P          -1.3320   -5.1740    1.7240 p4        1 2DA      1.712200
      2 OP1         0.0560   -5.4100    2.1310 o         1 2DA     -0.684500
      3 OP2        -2.2740   -5.6150    2.8420 os        1 2DA     -1.140000
      4 OP3        -1.6250   -5.9520    0.4910 o         1 2DA     -0.733300
      5 O5'        -1.5460   -3.6060    1.4340 os        1 2DA     -0.581200
      6 C5'        -0.7560   -2.9820    0.4190 c3        1 2DA      0.189400
      7 C4'        -1.3980   -1.6970    0.0070 c3        1 2DA      0.125100
      8 O4'        -0.8560   -0.7050    0.6420 os        1 2DA     -0.440600
      9 C3'        -1.1310   -1.4370   -1.5360 c3        1 2DA     -0.111400
     10 C2'        -1.2350   -0.2150   -1.7020 c3        1 2DA     -0.106400
     11 C1'        -0.8720    0.4150   -0.3220 c3        1 2DA      0.277800
     12 N9          0.3540    1.0100   -0.3830 n3        1 2DA     -0.139400
     13 C8          1.5510    0.5730   -0.7740 c1        1 2DA      0.085400
     14 N7          2.4460    1.5660   -0.5660 ne        1 2DA     -0.598400
     15 C5          1.7930    2.6050   -0.0470 cg        1 2DA     -0.077000
     16 C6          2.2040    3.8820    0.3030 c1        1 2DA      0.427600
     17 N6          3.4770    4.4950    0.2630 n3        1 2DA     -0.760400
     18 N1          1.3200    4.7590    0.7480 n1        1 2DA     -0.579800
     19 C2          0.0220    4.4090    0.8580 c1        1 2DA      0.293300
     20 N3         -0.3820    3.1440    0.5110 n1        1 2DA     -0.517800
     21 C4          0.4980    2.2640    0.0660 c1        1 2DA     -0.064300
     22 H5'         0.1530   -2.7990    0.7730 h1        1 2DA      0.033200
     23 H5''       -0.6910   -3.5650   -0.3430 h1        1 2DA      0.033200
     24 H4'        -2.3650   -1.7270    0.1850 h1        1 2DA      0.044700
     25 H3'1       -0.1930   -1.7480   -1.7860 hc        1 2DA      0.061200
     26 H3'2       -1.7960   -1.9040   -2.0730 hc        1 2DA      0.061200
     27 H2'        -0.5630    0.1080   -2.4320 hc        1 2DA      0.060700
     28 H2''       -2.1790    0.0250   -1.9620 hc        1 2DA      0.060700
     29 H1'        -1.5480    1.0660   -0.0650 h2        1 2DA      0.034700
     30 H8          1.7280   -0.2550   -1.1940 DU        1 2DA      0.221000
     31 HN61        4.2180    3.9950    0.0600 hn        1 2DA      0.364800
     32 HN62        3.5760    5.3990    0.5350 hn        1 2DA      0.364800
     33 H2         -0.6550    5.0780    1.1940 ha        1 2DA      0.084500
@<TRIPOS>BOND
     1    1    2 1   
     2    1    4 2   
     3    1    5 1   
     4    5    6 1   
     5    6    7 1   
     6    6   22 1   
     7    6   23 1   
     8    7    8 1   
     9    7    9 1   
    10    7   24 1   
    11    8   11 1   
    12    9   10 1   
    13    9   25 1   
    14    9   26 1   
    15   10   11 1   
    16   10   27 1   
    17   10   28 1   
    18   11   12 1   
    19   11   29 1   
    20   12   13 2   
    21   12   21 1   
    22   13   14 2   
    23   14   15 1   
    24   15   21 3   
    25   16   17 1   
    26   16   18 3   
    27   17   31 1   
    28   17   32 1   
    29   19   20 3   
    30   19   33 1   
@<TRIPOS>SUBSTRUCTURE
     1 2DA         1 TEMP              0 ****  ****    0 ROOT
