@<TRIPOS>MOLECULE
2DA
   33    35     1     0     0
SMALL
bcc


@<TRIPOS>ATOM
      1 P           0.0960   -0.2490   -4.7260 p5        1 2DA      1.427800
      2 OP1         1.3310    0.5570   -4.5990 o         1 2DA     -0.842000
      3 OP2        -0.2640   -1.1230   -5.8580 o         1 2DA     -0.842000
      4 OP3        -1.0770    0.8660   -4.4690 oh        1 2DA     -0.786400
      5 O5'        -0.0880   -1.1150   -3.3350 os        1 2DA     -0.581200
      6 C5'         0.3130   -0.5210   -2.1370 c3        1 2DA      0.183400
      7 C4'        -0.9150   -0.2380   -1.2590 c3        1 2DA      0.116100
      8 O4'        -0.5910   -0.5520    0.1040 os        1 2DA     -0.433600
      9 C3'        -1.3950    1.2140   -1.2920 c3        1 2DA     -0.107400
     10 C2'        -1.7980    1.5400    0.1350 c3        1 2DA     -0.105400
     11 C1'        -1.3550    0.3190    0.9840 c3        1 2DA      0.278800
     12 N9         -0.6180    0.6560    2.1630 nh        1 2DA     -0.258200
     13 C8          0.1000    1.8670    2.4220 c1        1 2DA      0.079400
     14 N7          0.6850    1.8330    3.6400 ne        1 2DA     -0.683800
     15 C5          0.3750    0.6000    4.2120 ca        1 2DA     -0.121200
     16 C6          0.6910   -0.0130    5.4510 ca        1 2DA      0.570200
     17 N6          1.4170    0.7120    6.4340 nh        1 2DA     -0.897500
     18 N1          0.2470   -1.2840    5.7250 nb        1 2DA     -0.780000
     19 C2         -0.5250   -1.8810    4.7840 ca        1 2DA      0.574900
     20 N3         -0.9300   -1.4280    3.5680 nb        1 2DA     -0.717000
     21 C4         -0.4660   -0.1870    3.2780 ca        1 2DA      0.383800
     22 H5'         0.8910    0.4220   -2.3440 h1        1 2DA      0.043700
     23 H5''        0.9760   -1.2490   -1.5910 h1        1 2DA      0.043700
     24 H4'        -1.7490   -0.9290   -1.5690 h1        1 2DA      0.044700
     25 H3'1       -2.2420    1.3260   -2.0120 hc        1 2DA      0.049700
     26 H3'2       -0.5720    1.8930   -1.6310 hc        1 2DA      0.049700
     27 H2'        -2.9040    1.6670    0.2290 hc        1 2DA      0.057700
     28 H2''       -1.3010    2.4780    0.4910 hc        1 2DA      0.057700
     29 H1'        -2.2590   -0.2910    1.2920 h2        1 2DA      0.035700
     30 H8         -0.7450    1.6240   -4.0030 ho        1 2DA      0.420000
     31 HN61        2.0450    0.1300    6.9510 hn        1 2DA      0.364800
     32 HN62        1.9080    1.4740    6.0100 hn        1 2DA      0.364800
     33 H2         -0.8740   -2.8980    5.0450 h5        1 2DA      0.006100
@<TRIPOS>BOND
     1    1    2 1   
     2    1    3 1   
     3    1    4 1   
     4    1    5 1   
     5    4   30 1   
     6    5    6 1   
     7    6    7 1   
     8    6   22 1   
     9    6   23 1   
    10    7    8 1   
    11    7    9 1   
    12    7   24 1   
    13    8   11 1   
    14    9   10 1   
    15    9   25 1   
    16    9   26 1   
    17   10   11 1   
    18   10   27 1   
    19   10   28 1   
    20   11   12 1   
    21   11   29 1   
    22   12   13 2   
    23   12   21 1   
    24   13   14 2   
    25   14   15 1   
    26   15   16 ar  
    27   15   21 ar  
    28   16   17 1   
    29   16   18 ar  
    30   17   31 1   
    31   17   32 1   
    32   18   19 ar  
    33   19   20 ar  
    34   19   33 1   
    35   20   21 ar  
@<TRIPOS>SUBSTRUCTURE
     1 2DA         1 TEMP              0 ****  ****    0 ROOT
