@<TRIPOS>MOLECULE
2DC
   76    79     1     0     0
SMALL
bcc


@<TRIPOS>ATOM
      1 C1         -0.0930    0.1020   -0.0390 c3        1 2DC     -0.066400
      2 O1          3.0150    1.2620    1.7200 oh        1 2DC     -0.602800
      3 C2          1.3130    0.6360    0.0980 c3        1 2DC     -0.113400
      4 O2         -5.7950   -5.9420   -0.4280 oh        1 2DC     -0.582800
      5 C3          1.6560    0.8670    1.5640 c3        1 2DC      0.145100
      6 O3         -8.0980   -4.6500    1.0550 oh        1 2DC     -0.587800
      7 C4          1.4910   -0.4220    2.3630 c3        1 2DC     -0.038200
      8 C5          0.1430   -1.0290    2.1610 c2        1 2DC     -0.112400
      9 C6         -0.5750   -1.4270    3.2220 c2        1 2DC     -0.164200
     10 C7         -1.9050   -2.0660    3.1410 c3        1 2DC     -0.043200
     11 C8         -2.2190   -2.5770    1.7420 c3        1 2DC     -0.047700
     12 C9         -1.8360   -1.5180    0.7000 c3        1 2DC     -0.048700
     13 C10        -0.3220   -1.2060    0.7370 c3        1 2DC      0.001200
     14 C11        -2.3060   -1.9010   -0.6990 c3        1 2DC     -0.074400
     15 C12        -3.7710   -2.2980   -0.7780 c3        1 2DC     -0.067400
     16 C13        -4.0860   -3.4090    0.2120 c3        1 2DC     -0.043000
     17 C14        -3.7000   -2.8640    1.6130 c3        1 2DC     -0.064700
     18 C15        -4.3380   -3.8520    2.5780 c3        1 2DC     -0.075400
     19 C16        -5.6260   -4.2860    1.8770 c3        1 2DC     -0.066400
     20 C17        -5.5880   -3.7240    0.4410 c3        1 2DC     -0.030700
     21 C18        -3.3290   -4.6780   -0.1370 c3        1 2DC     -0.078100
     22 C19         0.4880   -2.3260    0.0890 c3        1 2DC     -0.084100
     23 C20        -6.3090   -4.6250   -0.5780 c3        1 2DC      0.175800
     24 C21        -6.0820   -4.1210   -2.0060 c3        1 2DC     -0.135100
     25 C22        -7.8520   -4.6030   -0.3430 c3        1 2DC      0.114100
     26 C23        -8.5670   -5.7600   -1.0420 c3        1 2DC     -0.126400
     27 C24       -10.0430   -5.4740   -1.2230 c3        1 2DC     -0.077400
     28 C25       -10.7670   -6.6120   -1.9300 c3        1 2DC     -0.066700
     29 C26       -10.9720   -7.7950   -1.0080 c3        1 2DC     -0.091600
     30 C27       -12.1010   -6.1270   -2.4610 c3        1 2DC     -0.091600
     31 H1         -0.8170    0.8750    0.3310 hc        1 2DC      0.043200
     32 H1A        -0.3100   -0.0740   -1.1250 hc        1 2DC      0.043200
     33 HO1         3.1430    2.0360    1.1600 ho        1 2DC      0.398000
     34 H2          2.0490   -0.0840   -0.3450 hc        1 2DC      0.046200
     35 H2A         1.4050    1.6010   -0.4660 hc        1 2DC      0.046200
     36 HO2        -6.1900   -6.4830   -1.1230 ho        1 2DC      0.394000
     37 H3          0.9900    1.6710    1.9890 h1        1 2DC      0.035700
     38 HO3        -9.0530   -4.7360    1.1680 ho        1 2DC      0.397000
     39 H4          2.2840   -1.1510    2.0450 hc        1 2DC      0.059700
     40 H4A         1.6690   -0.1970    3.4480 hc        1 2DC      0.059700
     41 H6         -0.1930   -1.2770    4.2450 ha        1 2DC      0.121000
     42 H7         -1.9620   -2.9240    3.8650 hc        1 2DC      0.049700
     43 H7A        -2.6830   -1.3180    3.4580 hc        1 2DC      0.049700
     44 H8         -1.6270   -3.5150    1.5650 hc        1 2DC      0.059700
     45 H9         -2.3750   -0.5690    0.9890 hc        1 2DC      0.046700
     46 H11        -2.1410   -1.0290   -1.3860 hc        1 2DC      0.040200
     47 H11A       -1.6870   -2.7530   -1.0870 hc        1 2DC      0.040200
     48 H12        -4.4200   -1.4090   -0.5630 hc        1 2DC      0.037200
     49 H12A       -3.9900   -2.6310   -1.8250 hc        1 2DC      0.037200
     50 H14        -4.2380   -1.8780    1.7450 hc        1 2DC      0.042700
     51 H15        -4.5480   -3.3740    3.5660 hc        1 2DC      0.039700
     52 H15A       -3.6650   -4.7260    2.7590 hc        1 2DC      0.039700
     53 H16        -5.7130   -5.4000    1.8510 hc        1 2DC      0.060700
     54 H16A       -6.5200   -3.8870    2.4180 hc        1 2DC      0.060700
     55 H17        -6.1480   -2.7470    0.4200 hc        1 2DC      0.045700
     56 H18        -3.6080   -5.4970    0.5720 hc        1 2DC      0.038367
     57 H18A       -2.2250   -4.5230   -0.0900 hc        1 2DC      0.038367
     58 H18B       -3.5900   -5.0160   -1.1680 hc        1 2DC      0.038367
     59 H19         0.3720   -2.3010   -1.0210 hc        1 2DC      0.037367
     60 H19A        1.5740   -2.2120    0.3250 hc        1 2DC      0.037367
     61 H19B        0.1490   -3.3220    0.4630 hc        1 2DC      0.037367
     62 H21        -5.0590   -4.4000   -2.3540 hc        1 2DC      0.046033
     63 H21A       -6.1890   -3.0110   -2.0380 hc        1 2DC      0.046033
     64 H21B       -6.8190   -4.5670   -2.7160 hc        1 2DC      0.046033
     65 H22        -8.2410   -3.6210   -0.7410 h1        1 2DC      0.034700
     66 H23        -8.4280   -6.6890   -0.4270 hc        1 2DC      0.055700
     67 H23A       -8.1060   -5.9480   -2.0460 hc        1 2DC      0.055700
     68 H24       -10.5250   -5.2940   -0.2270 hc        1 2DC      0.039700
     69 H24A      -10.1630   -4.5330   -1.8250 hc        1 2DC      0.039700
     70 H25       -10.1380   -6.9460   -2.8040 hc        1 2DC      0.046700
     71 H26       -11.4930   -8.6200   -1.5500 hc        1 2DC      0.035200
     72 H26A       -9.9920   -8.1800   -0.6360 hc        1 2DC      0.035200
     73 H26B      -11.5940   -7.5040   -0.1270 hc        1 2DC      0.035200
     74 H27       -11.9530   -5.2990   -3.1960 hc        1 2DC      0.035200
     75 H27A      -12.7410   -5.7500   -1.6270 hc        1 2DC      0.035200
     76 H27B      -12.6400   -6.9610   -2.9700 hc        1 2DC      0.035200
@<TRIPOS>BOND
     1    1    3 1   
     2    1   13 1   
     3    1   31 1   
     4    1   32 1   
     5    2    5 1   
     6    2   33 1   
     7    3    5 1   
     8    3   34 1   
     9    3   35 1   
    10    4   23 1   
    11    4   36 1   
    12    5    7 1   
    13    5   37 1   
    14    6   25 1   
    15    6   38 1   
    16    7    8 1   
    17    7   39 1   
    18    7   40 1   
    19    8    9 2   
    20    8   13 1   
    21    9   10 1   
    22    9   41 1   
    23   10   11 1   
    24   10   42 1   
    25   10   43 1   
    26   11   12 1   
    27   11   17 1   
    28   11   44 1   
    29   12   13 1   
    30   12   14 1   
    31   12   45 1   
    32   13   22 1   
    33   14   15 1   
    34   14   46 1   
    35   14   47 1   
    36   15   16 1   
    37   15   48 1   
    38   15   49 1   
    39   16   17 1   
    40   16   20 1   
    41   16   21 1   
    42   17   18 1   
    43   17   50 1   
    44   18   19 1   
    45   18   51 1   
    46   18   52 1   
    47   19   20 1   
    48   19   53 1   
    49   19   54 1   
    50   20   23 1   
    51   20   55 1   
    52   21   56 1   
    53   21   57 1   
    54   21   58 1   
    55   22   59 1   
    56   22   60 1   
    57   22   61 1   
    58   23   24 1   
    59   23   25 1   
    60   24   62 1   
    61   24   63 1   
    62   24   64 1   
    63   25   26 1   
    64   25   65 1   
    65   26   27 1   
    66   26   66 1   
    67   26   67 1   
    68   27   28 1   
    69   27   68 1   
    70   27   69 1   
    71   28   29 1   
    72   28   30 1   
    73   28   70 1   
    74   29   71 1   
    75   29   72 1   
    76   29   73 1   
    77   30   74 1   
    78   30   75 1   
    79   30   76 1   
@<TRIPOS>SUBSTRUCTURE
     1 2DC         1 TEMP              0 ****  ****    0 ROOT
