@<TRIPOS>MOLECULE
2DC
   76    78     1     0     0
SMALL
bcc


@<TRIPOS>ATOM
      1 C1          4.6150    1.4960    0.6310 c3        1 2DC     -0.145000
      2 O1          8.0890    1.3610    1.9260 oh        1 2DC     -0.330000
      3 C2          6.1150    1.5100    0.6370 c3        1 2DC     -0.192000
      4 O2         -1.4270   -0.9280   -1.7550 oh        1 2DC     -0.325000
      5 C3          6.6970    1.4920    2.0270 c3        1 2DC      0.033000
      6 O3         -4.2660    0.5750   -0.1580 oh        1 2DC     -0.325000
      7 C4          6.1430    0.3240    2.9130 c3        1 2DC     -0.121000
      8 C5          4.5860    0.3520    2.8600 c2        1 2DC     -0.102000
      9 C6          3.6240   -0.4890    4.0590 c1        1 2DC     -0.161000
     10 C7          2.0750   -0.4570    3.8070 c2        1 2DC     -0.126000
     11 C8          1.7210   -0.4990    2.1910 c3        1 2DC     -0.085000
     12 C9          2.4300    0.4710    1.3830 c3        1 2DC     -0.088000
     13 C10         4.0240    0.3710    1.4740 c3        1 2DC     -0.004000
     14 C11         1.9690    0.4200   -0.2200 c3        1 2DC     -0.154000
     15 C12         0.3710    0.5140   -0.4000 c3        1 2DC     -0.142000
     16 C13        -0.3120   -0.4470    0.4190 c3        1 2DC     -0.031000
     17 C14         0.1620   -0.3870    2.0060 c3        1 2DC     -0.109000
     18 C15        -0.5170   -1.3790    2.5250 c3        1 2DC     -0.153000
     19 C16        -2.0140   -1.1740    1.8170 c3        1 2DC     -0.151000
     20 C17        -1.6290   -0.2360    0.5250 c3        1 2DC     -0.078000
     21 C18        -0.0640   -1.8840   -0.1390 c3        1 2DC     -0.201000
     22 C19         4.4390   -0.9900    0.7910 c3        1 2DC     -0.201000
     23 C20        -2.3580   -0.7100   -0.7270 c3        1 2DC      0.107000
     24 C21        -3.0950   -2.0200   -0.4270 c3        1 2DC     -0.242000
     25 C22        -3.3570    0.3560   -1.1660 c3        1 2DC     -0.002000
     26 C23        -4.1110   -0.1250   -2.4650 c3        1 2DC     -0.197000
     27 C24        -5.1080    0.9760   -2.9240 c3        1 2DC     -0.157000
     28 C25        -5.7280    0.5740   -4.2490 c3        1 2DC     -0.106000
     29 C26        -7.2220    0.2960   -4.0520 c3        1 2DC     -0.209000
     30 C27        -5.5560    1.6850   -5.2440 c3        1 2DC     -0.209000
     31 H1          4.2920    1.3880   -0.3360 hc        1 2DC      0.083500
     32 H1A         4.2970    2.3380    0.9710 hc        1 2DC      0.083500
     33 HO1         8.5080    2.1130    2.3320 ho        1 2DC      0.197000
     34 H2          6.4290    2.3310    0.1710 hc        1 2DC      0.085500
     35 H2A         6.4280    0.7510    0.1660 hc        1 2DC      0.085500
     36 HO2        -1.8270   -1.3080   -2.4360 ho        1 2DC      0.196000
     37 H3          6.4960    2.3290    2.4580 h1        1 2DC      0.075000
     38 HO3        -4.4180    1.4490   -0.0800 ho        1 2DC      0.200000
     39 H4          6.4990   -0.5520    2.6970 hc        1 2DC      0.099000
     40 H4A         6.4740    0.4370    3.8640 hc        1 2DC      0.099000
     41 H6          3.9610   -0.6070    4.9430 ha        1 2DC      0.120000
     42 H7          1.6440    0.2740    4.3220 ha        1 2DC      0.088000
     43 H7A         1.6440   -1.2550    4.2290 ha        1 2DC      0.088000
     44 H8          1.9930   -1.4050    1.8580 hc        1 2DC      0.098000
     45 H9          2.1850    1.3490    1.7190 hc        1 2DC      0.086000
     46 H11         2.3850    1.1720   -0.6920 hc        1 2DC      0.078500
     47 H11A        2.2770   -0.3950   -0.6050 hc        1 2DC      0.078500
     48 H12         0.1410    0.3470   -1.3590 hc        1 2DC      0.088000
     49 H12A        0.0710    1.4240   -0.1490 hc        1 2DC      0.088000
     50 H14        -0.1590    0.4810    2.4130 hc        1 2DC      0.085000
     51 H15        -0.1160   -2.2610    2.2630 hc        1 2DC      0.079500
     52 H15A       -0.5720   -1.2950    3.4850 hc        1 2DC      0.079500
     53 H16        -2.3800   -2.0140    1.5370 hc        1 2DC      0.089500
     54 H16A       -2.6350   -0.6980    2.4290 hc        1 2DC      0.089500
     55 H17        -1.8290    0.7570    0.7190 hc        1 2DC      0.092000
     56 H18         0.0890   -1.8400   -1.1110 hc        1 2DC      0.075333
     57 H18A       -0.8410   -2.4380    0.0400 hc        1 2DC      0.075333
     58 H18B        0.7210   -2.2730    0.3000 hc        1 2DC      0.075333
     59 H19         3.9800   -1.7660    1.2710 hc        1 2DC      0.076333
     60 H19A        4.1650   -0.9810   -0.1460 hc        1 2DC      0.076333
     61 H19B        5.4230   -1.1020    0.8470 hc        1 2DC      0.076333
     62 H21        -3.7090   -1.8840    0.3190 hc        1 2DC      0.087667
     63 H21A       -3.5930   -2.2980   -1.2070 hc        1 2DC      0.087667
     64 H21B       -2.4430   -2.7150   -0.1920 hc        1 2DC      0.087667
     65 H22        -2.8790    1.1860   -1.3580 h1        1 2DC      0.086000
     66 H23        -3.4760   -0.2900   -3.1620 hc        1 2DC      0.091000
     67 H23A       -4.5900   -0.9280   -2.2750 hc        1 2DC      0.091000
     68 H24        -4.6290    1.8280   -3.0310 hc        1 2DC      0.079500
     69 H24A       -5.8090    1.0790   -2.2560 hc        1 2DC      0.079500
     70 H25        -5.2830   -0.2400   -4.5850 hc        1 2DC      0.086000
     71 H26        -7.3370   -0.4760   -3.4340 hc        1 2DC      0.074167
     72 H26A       -7.6440    0.0800   -4.9450 hc        1 2DC      0.074167
     73 H26B       -7.6600    1.0950   -3.6660 hc        1 2DC      0.074167
     74 H27        -4.6190    1.8590   -5.3710 hc        1 2DC      0.074167
     75 H27A       -5.9620    1.4210   -6.1060 hc        1 2DC      0.074167
     76 H27B       -5.9920    2.4860   -4.9130 hc        1 2DC      0.074167
@<TRIPOS>BOND
     1    1    3 1   
     2    1   13 1   
     3    1   31 1   
     4    1   32 1   
     5    2    5 1   
     6    2   33 1   
     7    3    5 1   
     8    3   34 1   
     9    3   35 1   
    10    4   23 1   
    11    4   36 1   
    12    5    7 1   
    13    5   37 1   
    14    6   25 1   
    15    6   38 1   
    16    7    8 1   
    17    7   39 1   
    18    7   40 1   
    19    8    9 1   
    20    8   13 1   
    21    9   41 1   
    22   10   11 1   
    23   10   42 1   
    24   10   43 1   
    25   11   12 1   
    26   11   17 1   
    27   11   44 1   
    28   12   13 1   
    29   12   14 1   
    30   12   45 1   
    31   13   22 1   
    32   14   15 1   
    33   14   46 1   
    34   14   47 1   
    35   15   16 1   
    36   15   48 1   
    37   15   49 1   
    38   16   17 1   
    39   16   20 1   
    40   16   21 1   
    41   17   18 1   
    42   17   50 1   
    43   18   19 1   
    44   18   51 1   
    45   18   52 1   
    46   19   20 1   
    47   19   53 1   
    48   19   54 1   
    49   20   23 1   
    50   20   55 1   
    51   21   56 1   
    52   21   57 1   
    53   21   58 1   
    54   22   59 1   
    55   22   60 1   
    56   22   61 1   
    57   23   24 1   
    58   23   25 1   
    59   24   62 1   
    60   24   63 1   
    61   24   64 1   
    62   25   26 1   
    63   25   65 1   
    64   26   27 1   
    65   26   66 1   
    66   26   67 1   
    67   27   28 1   
    68   27   68 1   
    69   27   69 1   
    70   28   29 1   
    71   28   30 1   
    72   28   70 1   
    73   29   71 1   
    74   29   72 1   
    75   29   73 1   
    76   30   74 1   
    77   30   75 1   
    78   30   76 1   
@<TRIPOS>SUBSTRUCTURE
     1 2DC         1 TEMP              0 ****  ****    0 ROOT
