@<TRIPOS>MOLECULE
2DC
   76    79     1     0     0
SMALL
bcc


@<TRIPOS>ATOM
      1 C1         -4.6890    1.5430   -0.9880 c3        1 2DC     -0.070400
      2 O1         -8.2630    0.5560   -0.9650 oh        1 2DC     -0.600800
      3 C2         -6.1890    1.6880   -0.8780 c3        1 2DC     -0.075400
      4 O2          2.8610    0.2500    2.1720 oh        1 2DC     -0.606800
      5 C3         -6.8660    0.3480   -1.1340 c3        1 2DC      0.145100
      6 O3          4.5610   -1.3130    1.2430 oh        1 2DC     -0.606800
      7 C4         -6.3530   -0.7060   -0.1560 c3        1 2DC     -0.075200
      8 C5         -4.8640   -0.7940   -0.1580 c2        1 2DC     -0.105400
      9 C6         -4.2640   -1.9910   -0.2420 c2        1 2DC     -0.167200
     10 C7         -2.8010   -2.1980   -0.2270 c3        1 2DC     -0.042200
     11 C8         -2.0490   -0.9710    0.2680 c3        1 2DC     -0.046700
     12 C9         -2.6180    0.2940   -0.3890 c3        1 2DC     -0.048700
     13 C10        -4.1050    0.5030   -0.0180 c3        1 2DC      0.000200
     14 C11        -1.7770    1.5300   -0.0910 c3        1 2DC     -0.075400
     15 C12        -0.2850    1.3490   -0.3220 c3        1 2DC     -0.065400
     16 C13         0.2400    0.1320    0.4280 c3        1 2DC     -0.039000
     17 C14        -0.5820   -1.0750   -0.0930 c3        1 2DC     -0.066700
     18 C15         0.2090   -2.2890    0.3670 c3        1 2DC     -0.074400
     19 C16         1.6670   -1.8460    0.2490 c3        1 2DC     -0.084400
     20 C17         1.6770   -0.3150    0.0600 c3        1 2DC     -0.084700
     21 C18         0.0990    0.3260    1.9270 c3        1 2DC     -0.085100
     22 C19        -4.2530    1.0070    1.4150 c3        1 2DC     -0.084100
     23 C20         2.8800    0.3570    0.7500 c3        1 2DC      0.140800
     24 C21         2.8920    1.8540    0.4670 c3        1 2DC     -0.088100
     25 C22         4.1790   -0.3610    0.2590 c3        1 2DC      0.113100
     26 C23         5.3360    0.5780   -0.0620 c3        1 2DC     -0.107400
     27 C24         6.5310   -0.1990   -0.5760 c3        1 2DC     -0.077400
     28 C25         7.7310    0.6980   -0.8380 c3        1 2DC     -0.067700
     29 C26         8.4220    1.0910    0.4510 c3        1 2DC     -0.090100
     30 C27         8.7110   -0.0000   -1.7600 c3        1 2DC     -0.090100
     31 H1         -4.4230    1.2510   -2.0380 hc        1 2DC      0.044700
     32 H1A        -4.2150    2.5390   -0.7820 hc        1 2DC      0.044700
     33 HO1        -8.6870   -0.3020   -1.0770 ho        1 2DC      0.398000
     34 H2         -6.4760    2.0590    0.1400 hc        1 2DC      0.055200
     35 H2A        -6.5580    2.4370   -1.6260 hc        1 2DC      0.055200
     36 HO2         2.6260   -0.6610    2.3920 ho        1 2DC      0.414000
     37 H3         -6.6690    0.0130   -2.1920 h1        1 2DC      0.035700
     38 HO3         4.8810   -0.8190    2.0100 ho        1 2DC      0.410000
     39 H4         -6.7090   -0.4450    0.8770 hc        1 2DC      0.051700
     40 H4A        -6.8060   -1.6990   -0.4190 hc        1 2DC      0.051700
     41 H6         -4.8620   -2.9120   -0.3420 ha        1 2DC      0.119000
     42 H7         -2.5450   -3.0740    0.4280 hc        1 2DC      0.049200
     43 H7A        -2.4640   -2.4570   -1.2680 hc        1 2DC      0.049200
     44 H8         -2.1670   -0.9070    1.3840 hc        1 2DC      0.060700
     45 H9         -2.5790    0.1220   -1.5050 hc        1 2DC      0.047700
     46 H11        -2.1310    2.3700   -0.7480 hc        1 2DC      0.042700
     47 H11A       -1.9360    1.8520    0.9710 hc        1 2DC      0.042700
     48 H12        -0.0840    1.2270   -1.4190 hc        1 2DC      0.040200
     49 H12A        0.2430    2.2770    0.0150 hc        1 2DC      0.040200
     50 H14        -0.5210   -1.0570   -1.2230 hc        1 2DC      0.045700
     51 H15        -0.0460   -2.5590    1.4220 hc        1 2DC      0.044200
     52 H15A       -0.0030   -3.1800   -0.2730 hc        1 2DC      0.044200
     53 H16         2.2530   -2.1510    1.1510 hc        1 2DC      0.049200
     54 H16A        2.1500   -2.3370   -0.6330 hc        1 2DC      0.049200
     55 H17         1.8080   -0.0980   -1.0390 hc        1 2DC      0.050700
     56 H18        -0.9580    0.5400    2.2140 hc        1 2DC      0.040367
     57 H18A        0.4270   -0.5950    2.4680 hc        1 2DC      0.040367
     58 H18B        0.7350    1.1810    2.2650 hc        1 2DC      0.040367
     59 H19        -5.3150    0.9240    1.7510 hc        1 2DC      0.038033
     60 H19A       -3.6150    0.4130    2.1100 hc        1 2DC      0.038033
     61 H19B       -3.9550    2.0820    1.4840 hc        1 2DC      0.038033
     62 H21         3.7990    2.3300    0.9100 hc        1 2DC      0.047033
     63 H21A        2.8690    2.0360   -0.6320 hc        1 2DC      0.047033
     64 H21B        2.0010    2.3310    0.9420 hc        1 2DC      0.047033
     65 H22         3.9520   -0.9890   -0.6490 h1        1 2DC      0.074700
     66 H23         5.0110    1.3180   -0.8380 hc        1 2DC      0.049700
     67 H23A        5.6230    1.1470    0.8610 hc        1 2DC      0.049700
     68 H24         6.8050   -0.9940    0.1680 hc        1 2DC      0.047700
     69 H24A        6.2450   -0.7220   -1.5270 hc        1 2DC      0.047700
     70 H25         7.3710    1.6360   -1.3490 hc        1 2DC      0.043700
     71 H26         7.7180    1.6350    1.1250 hc        1 2DC      0.033867
     72 H26A        8.7960    0.1860    0.9870 hc        1 2DC      0.033867
     73 H26B        9.2910    1.7580    0.2360 hc        1 2DC      0.033867
     74 H27         8.2300   -0.2260   -2.7430 hc        1 2DC      0.033867
     75 H27A        9.6010    0.6480   -1.9420 hc        1 2DC      0.033867
     76 H27B        9.0570   -0.9600   -1.3080 hc        1 2DC      0.033867
@<TRIPOS>BOND
     1    1    3 1   
     2    1   13 1   
     3    1   31 1   
     4    1   32 1   
     5    2    5 1   
     6    2   33 1   
     7    3    5 1   
     8    3   34 1   
     9    3   35 1   
    10    4   23 1   
    11    4   36 1   
    12    5    7 1   
    13    5   37 1   
    14    6   25 1   
    15    6   38 1   
    16    7    8 1   
    17    7   39 1   
    18    7   40 1   
    19    8    9 2   
    20    8   13 1   
    21    9   10 1   
    22    9   41 1   
    23   10   11 1   
    24   10   42 1   
    25   10   43 1   
    26   11   12 1   
    27   11   17 1   
    28   11   44 1   
    29   12   13 1   
    30   12   14 1   
    31   12   45 1   
    32   13   22 1   
    33   14   15 1   
    34   14   46 1   
    35   14   47 1   
    36   15   16 1   
    37   15   48 1   
    38   15   49 1   
    39   16   17 1   
    40   16   20 1   
    41   16   21 1   
    42   17   18 1   
    43   17   50 1   
    44   18   19 1   
    45   18   51 1   
    46   18   52 1   
    47   19   20 1   
    48   19   53 1   
    49   19   54 1   
    50   20   23 1   
    51   20   55 1   
    52   21   56 1   
    53   21   57 1   
    54   21   58 1   
    55   22   59 1   
    56   22   60 1   
    57   22   61 1   
    58   23   24 1   
    59   23   25 1   
    60   24   62 1   
    61   24   63 1   
    62   24   64 1   
    63   25   26 1   
    64   25   65 1   
    65   26   27 1   
    66   26   66 1   
    67   26   67 1   
    68   27   28 1   
    69   27   68 1   
    70   27   69 1   
    71   28   29 1   
    72   28   30 1   
    73   28   70 1   
    74   29   71 1   
    75   29   72 1   
    76   29   73 1   
    77   30   74 1   
    78   30   75 1   
    79   30   76 1   
@<TRIPOS>SUBSTRUCTURE
     1 2DC         1 TEMP              0 ****  ****    0 ROOT
