@<TRIPOS>MOLECULE
2DC
   76    79     1     0     0
SMALL
bcc


@<TRIPOS>ATOM
      1 C1         -0.1030    0.1180   -0.1020 c3        1 2DC     -0.070400
      2 O1          2.9900    1.3680    1.5180 oh        1 2DC     -0.601800
      3 C2          1.3030    0.6600    0.0200 c3        1 2DC     -0.075400
      4 O2         -5.7900   -5.9430   -0.4190 oh        1 2DC     -0.582800
      5 C3          1.6440    0.9100    1.4830 c3        1 2DC      0.144100
      6 O3         -8.0910   -4.6470    1.0630 oh        1 2DC     -0.587800
      7 C4          1.4860   -0.3730    2.2960 c3        1 2DC     -0.075200
      8 C5          0.1430   -0.9920    2.1080 c2        1 2DC     -0.107400
      9 C6         -0.5690   -1.3850    3.1750 c2        1 2DC     -0.165200
     10 C7         -1.8970   -2.0300    3.1040 c3        1 2DC     -0.043200
     11 C8         -2.2150   -2.5510    1.7100 c3        1 2DC     -0.047700
     12 C9         -1.8390   -1.5000    0.6580 c3        1 2DC     -0.048700
     13 C10        -0.3250   -1.1830    0.6860 c3        1 2DC      0.000200
     14 C11        -2.3130   -1.8950   -0.7350 c3        1 2DC     -0.074400
     15 C12        -3.7770   -2.2970   -0.8050 c3        1 2DC     -0.067400
     16 C13        -4.0850   -3.4010    0.1950 c3        1 2DC     -0.043000
     17 C14        -3.6950   -2.8440    1.5890 c3        1 2DC     -0.064700
     18 C15        -4.3270   -3.8250    2.5650 c3        1 2DC     -0.075400
     19 C16        -5.6170   -4.2690    1.8730 c3        1 2DC     -0.066400
     20 C17        -5.5860   -3.7180    0.4320 c3        1 2DC     -0.030700
     21 C18        -3.3260   -4.6710   -0.1470 c3        1 2DC     -0.078100
     22 C19         0.4850   -2.3070    0.0470 c3        1 2DC     -0.083100
     23 C20        -6.3080   -4.6290   -0.5770 c3        1 2DC      0.175800
     24 C21        -6.0880   -4.1360   -2.0100 c3        1 2DC     -0.135100
     25 C22        -7.8500   -4.6090   -0.3360 c3        1 2DC      0.114100
     26 C23        -8.5650   -5.7740   -1.0240 c3        1 2DC     -0.126400
     27 C24       -10.0420   -5.4930   -1.2010 c3        1 2DC     -0.077400
     28 C25       -10.7650   -6.6370   -1.8980 c3        1 2DC     -0.066700
     29 C26       -10.9620   -7.8160   -0.9680 c3        1 2DC     -0.091600
     30 C27       -12.1040   -6.1600   -2.4260 c3        1 2DC     -0.091600
     31 H1         -0.3230   -0.0690   -1.1850 hc        1 2DC      0.043700
     32 H1A        -0.8280    0.8930    0.2630 hc        1 2DC      0.043700
     33 HO1         3.2240    1.4710    2.4470 ho        1 2DC      0.398000
     34 H2          2.0430   -0.0610   -0.4140 hc        1 2DC      0.054700
     35 H2A         1.3940    1.6210   -0.5490 hc        1 2DC      0.054700
     36 HO2        -6.1850   -6.4900   -1.1090 ho        1 2DC      0.394000
     37 H3          0.9720    1.7110    1.9040 h1        1 2DC      0.035700
     38 HO3        -9.0440   -4.7330    1.1800 ho        1 2DC      0.397000
     39 H4          2.2810   -1.1020    1.9800 hc        1 2DC      0.050700
     40 H4A         1.6650   -0.1420    3.3800 hc        1 2DC      0.050700
     41 H6         -0.1840   -1.2250    4.1960 ha        1 2DC      0.118000
     42 H7         -2.6770   -1.2820    3.4190 hc        1 2DC      0.049700
     43 H7A        -1.9470   -2.8820    3.8340 hc        1 2DC      0.049700
     44 H8         -1.6200   -3.4890    1.5380 hc        1 2DC      0.059700
     45 H9         -2.3800   -0.5500    0.9420 hc        1 2DC      0.046700
     46 H11        -1.6940   -2.7480   -1.1190 hc        1 2DC      0.040700
     47 H11A       -2.1530   -1.0280   -1.4300 hc        1 2DC      0.040700
     48 H12        -3.9990   -2.6380   -1.8500 hc        1 2DC      0.037200
     49 H12A       -4.4280   -1.4080   -0.5950 hc        1 2DC      0.037200
     50 H14        -4.2350   -1.8580    1.7160 hc        1 2DC      0.042700
     51 H15        -3.6510   -4.6960    2.7500 hc        1 2DC      0.039700
     52 H15A       -4.5350   -3.3400    3.5500 hc        1 2DC      0.039700
     53 H16        -6.5090   -3.8680    2.4140 hc        1 2DC      0.060700
     54 H16A       -5.7000   -5.3830    1.8560 hc        1 2DC      0.060700
     55 H17        -6.1480   -2.7430    0.4050 hc        1 2DC      0.045700
     56 H18        -3.6000   -5.4840    0.5690 hc        1 2DC      0.038033
     57 H18A       -2.2230   -4.5120   -0.1070 hc        1 2DC      0.038033
     58 H18B       -3.5910   -5.0180   -1.1750 hc        1 2DC      0.038033
     59 H19         1.5720   -2.1840    0.2740 hc        1 2DC      0.037367
     60 H19A        0.1540   -3.3000    0.4330 hc        1 2DC      0.037367
     61 H19B        0.3630   -2.2940   -1.0630 hc        1 2DC      0.037367
     62 H21        -6.1980   -3.0260   -2.0500 hc        1 2DC      0.046367
     63 H21A       -5.0660   -4.4140   -2.3610 hc        1 2DC      0.046367
     64 H21B       -6.8270   -4.5890   -2.7130 hc        1 2DC      0.046367
     65 H22        -8.2430   -3.6310   -0.7410 h1        1 2DC      0.034700
     66 H23        -8.1070   -5.9680   -2.0280 hc        1 2DC      0.055200
     67 H23A       -8.4200   -6.6970   -0.4020 hc        1 2DC      0.055200
     68 H24       -10.5210   -5.3080   -0.2040 hc        1 2DC      0.039700
     69 H24A      -10.1670   -4.5560   -1.8080 hc        1 2DC      0.039700
     70 H25       -10.1400   -6.9740   -2.7730 hc        1 2DC      0.046700
     71 H26        -9.9790   -8.1960   -0.5990 hc        1 2DC      0.035200
     72 H26A      -11.5820   -7.5220   -0.0860 hc        1 2DC      0.035200
     73 H26B      -11.4840   -8.6460   -1.5030 hc        1 2DC      0.035200
     74 H27       -12.6420   -6.9990   -2.9280 hc        1 2DC      0.035200
     75 H27A      -11.9620   -5.3360   -3.1660 hc        1 2DC      0.035200
     76 H27B      -12.7410   -5.7800   -1.5910 hc        1 2DC      0.035200
@<TRIPOS>BOND
     1    1    3 1   
     2    1   13 1   
     3    1   31 1   
     4    1   32 1   
     5    2    5 1   
     6    2   33 1   
     7    3    5 1   
     8    3   34 1   
     9    3   35 1   
    10    4   23 1   
    11    4   36 1   
    12    5    7 1   
    13    5   37 1   
    14    6   25 1   
    15    6   38 1   
    16    7    8 1   
    17    7   39 1   
    18    7   40 1   
    19    8    9 2   
    20    8   13 1   
    21    9   10 1   
    22    9   41 1   
    23   10   11 1   
    24   10   42 1   
    25   10   43 1   
    26   11   12 1   
    27   11   17 1   
    28   11   44 1   
    29   12   13 1   
    30   12   14 1   
    31   12   45 1   
    32   13   22 1   
    33   14   15 1   
    34   14   46 1   
    35   14   47 1   
    36   15   16 1   
    37   15   48 1   
    38   15   49 1   
    39   16   17 1   
    40   16   20 1   
    41   16   21 1   
    42   17   18 1   
    43   17   50 1   
    44   18   19 1   
    45   18   51 1   
    46   18   52 1   
    47   19   20 1   
    48   19   53 1   
    49   19   54 1   
    50   20   23 1   
    51   20   55 1   
    52   21   56 1   
    53   21   57 1   
    54   21   58 1   
    55   22   59 1   
    56   22   60 1   
    57   22   61 1   
    58   23   24 1   
    59   23   25 1   
    60   24   62 1   
    61   24   63 1   
    62   24   64 1   
    63   25   26 1   
    64   25   65 1   
    65   26   27 1   
    66   26   66 1   
    67   26   67 1   
    68   27   28 1   
    69   27   68 1   
    70   27   69 1   
    71   28   29 1   
    72   28   30 1   
    73   28   70 1   
    74   29   71 1   
    75   29   72 1   
    76   29   73 1   
    77   30   74 1   
    78   30   75 1   
    79   30   76 1   
@<TRIPOS>SUBSTRUCTURE
     1 2DC         1 TEMP              0 ****  ****    0 ROOT
