@<TRIPOS>MOLECULE
2DD
   43    36     1     0     0
SMALL
bcc


@<TRIPOS>ATOM
      1 CL1        -6.0560   -2.3810    2.4210 cl        1 2DD     -0.000000
      2 C1         -4.3890   -2.8920    2.4030 c2        1 2DD     -0.187000
      3 C2         -3.7730   -3.2940    3.5810 c2        1 2DD      0.147000
      4 C3         -2.4510   -3.7140    3.5640 c1        1 2DD     -0.251000
      5 C4         -1.7420   -3.7310    2.3690 c1        1 2DD      0.133000
      6 O4         -0.4070   -4.1760    2.3490 oh        1 2DD     -0.264000
      7 O2         -4.4620   -3.1830    4.8100 oh        1 2DD     -0.239000
      8 C6         -3.6810   -2.9090    1.2090 c1        1 2DD     -0.010000
      9 C5         -2.3570   -3.3280    1.1920 c1        1 2DD     -0.106000
     10 C7         -1.6440   -3.3610   -0.0240 c1        1 2DD     -0.042500
     11 N2         -1.5660   -4.4090   -0.8700 n2        1 2DD     -0.105000
     12 N1         -0.7560   -4.0490   -1.9220 n2        1 2DD     -0.105000
     13 C9         -0.3370   -2.7730   -1.7130 c1        1 2DD     -0.042500
     14 C8         -0.8810   -2.3380   -0.5420 c1        1 2DD     -0.238000
     15 C10        -0.7560   -0.9160    0.0420 c1        1 2DD      0.388000
     16 O5         -1.3680   -0.6190    1.0530 o         1 2DD     -0.386000
     17 N3          0.1510    0.0450   -0.5670 n3        1 2DD     -0.367000
     18 C17        -0.1940    1.4530   -0.5880 c3        1 2DD      0.001000
     19 C11         1.0450    2.2850   -1.0060 c2        1 2DD     -0.052000
     20 C12         1.2290    2.6360   -2.3400 c2        1 2DD     -0.142000
     21 C13         2.3190    3.4130   -2.7100 c1        1 2DD     -0.020000
     22 C16         1.9510    2.7130   -0.0450 c1        1 2DD     -0.152000
     23 C15         3.0450    3.4940   -0.4180 c1        1 2DD     -0.021000
     24 C14         3.2270    3.8420   -1.7480 c1        1 2DD     -0.828000
     25 S1          4.6200    4.8600   -2.2260 s4        1 2DD      2.082800
     26 O6          4.9650    4.6540   -3.6070 o         1 2DD     -0.545900
     27 O7          5.8270    4.4350   -1.5700 o         1 2DD     -0.545900
     28 N4          4.3000    6.4430   -1.9200 n2        1 2DD     -0.953000
     29 H3         -2.0170   -3.9970    4.3950 ha        1 2DD      0.161000
     30 H4         -0.3050   -4.8350    2.9400 ho        1 2DD      0.235000
     31 H2         -4.2610   -2.4040    5.1940 ho        1 2DD      0.237000
     32 H6         -4.1130   -2.6260    0.3830 ha        1 2DD      0.199000
     33 HA         -1.9800   -5.2170   -0.7630 DU        1 2DD      0.235000
     34 H9          0.2490   -2.2590   -2.2990 DU        1 2DD      0.235000
     35 HB          0.9600   -0.2310   -0.8870 hn        1 2DD      0.227000
     36 H171       -0.9170    1.6010   -1.2290 h1        1 2DD      0.113000
     37 H172       -0.4880    1.7300    0.3050 h1        1 2DD      0.113000
     38 H12         0.5920    2.3350   -3.0160 ha        1 2DD      0.164000
     39 H13         2.4490    3.6600   -3.6500 ha        1 2DD      0.153000
     40 H16         1.8230    2.4690    0.8870 ha        1 2DD      0.139000
     41 H15         3.6830    3.7960    0.2570 ha        1 2DD      0.154000
     42 H4N1        3.8100    6.9330   -2.5160 hn        1 2DD      0.242500
     43 H4N2        4.6540    6.8460   -1.1770 hn        1 2DD      0.242500
@<TRIPOS>BOND
     1    1    2 1   
     2    2    3 1   
     3    2    8 1   
     4    3    4 1   
     5    3    7 1   
     6    4   29 1   
     7    5    6 1   
     8    5    9 1   
     9    6   30 1   
    10    7   31 1   
    11    8   32 1   
    12   10   11 1   
    13   10   14 1   
    14   11   12 1   
    15   12   13 1   
    16   13   14 1   
    17   15   16 1   
    18   15   17 1   
    19   17   18 1   
    20   17   35 1   
    21   18   19 1   
    22   18   36 1   
    23   18   37 1   
    24   19   20 1   
    25   19   22 1   
    26   20   21 1   
    27   20   38 1   
    28   21   39 1   
    29   22   40 1   
    30   23   24 1   
    31   23   41 1   
    32   24   25 1   
    33   25   26 1   
    34   25   27 1   
    35   28   42 1   
    36   28   43 1   
@<TRIPOS>SUBSTRUCTURE
     1 2DD         1 TEMP              0 ****  ****    0 ROOT
