@<TRIPOS>MOLECULE
2DD
   45    47     1     0     0
SMALL
bcc


@<TRIPOS>ATOM
      1 CL1         0.0610    1.0890    0.2560 cl        1 2DD     -0.030400
      2 C1          1.6860    0.6140    0.2060 ca        1 2DD     -0.108600
      3 C2          2.4130    0.3940    1.4040 ca        1 2DD      0.242100
      4 C3          3.7570   -0.0040    1.3460 ca        1 2DD     -0.251000
      5 C4          4.3690   -0.1850    0.1020 ca        1 2DD      0.228100
      6 O4          5.6820   -0.5690    0.0010 oh        1 2DD     -0.513100
      7 O2          1.8950    0.5390    2.6520 oh        1 2DD     -0.455100
      8 C6          2.3130    0.4400   -1.0200 ca        1 2DD     -0.017000
      9 C5          3.6590    0.0350   -1.1010 ca        1 2DD     -0.191000
     10 C7          4.2790   -0.1180   -2.3940 cc        1 2DD      0.184700
     11 N2          4.1050    0.7880   -3.4340 na        1 2DD      0.002400
     12 N1          4.7640    0.4480   -4.5510 nc        1 2DD     -0.430800
     13 C9          5.4150   -0.7020   -4.2970 cd        1 2DD      0.325200
     14 C8          5.1450   -1.1340   -2.9300 cd        1 2DD     -0.425900
     15 C10         5.5940   -2.2970   -2.2630 c         1 2DD      0.644700
     16 O5          5.3310   -2.8120   -1.1890 o         1 2DD     -0.438100
     17 N3          6.6470   -3.0940   -3.1030 n4        1 2DD     -0.693800
     18 C17         7.2000   -4.2600   -2.3690 c3        1 2DD      0.136100
     19 C11         8.0950   -5.1260   -3.2040 ca        1 2DD     -0.037300
     20 C12         9.4630   -5.1980   -2.9160 ca        1 2DD     -0.130500
     21 C13        10.2860   -6.0460   -3.6510 ca        1 2DD      0.018500
     22 C16         7.5610   -5.9140   -4.2330 ca        1 2DD     -0.130500
     23 C15         8.3890   -6.7590   -4.9640 ca        1 2DD      0.018500
     24 C14         9.7690   -6.8440   -4.6900 ca        1 2DD     -0.496500
     25 S1         10.7550   -7.7360   -5.6320 sy        1 2DD      1.471200
     26 O6         10.1720   -8.1350   -6.8120 o         1 2DD     -0.542800
     27 O7         12.0840   -7.4060   -5.5020 o         1 2DD     -0.542800
     28 N4         10.7100   -9.3610   -4.6600 n4        1 2DD     -0.797500
     29 H3          4.3100   -0.1640    2.2840 ha        1 2DD      0.181000
     30 H4          6.0550   -0.6210    0.8960 ho        1 2DD      0.450000
     31 H2          0.9670    0.8320    2.5900 ho        1 2DD      0.459000
     32 H6          1.7360    0.6060   -1.9460 ha        1 2DD      0.160000
     33 HA          3.5550    1.6260   -3.4120 hn        1 2DD      0.363700
     34 H9          6.0290   -1.1810   -5.0610 h4        1 2DD      0.043100
     35 HB          6.1930   -3.4040   -3.9660 hn        1 2DD      0.450300
     36 H171        7.7510   -3.8660   -1.4640 hx        1 2DD      0.134700
     37 H172        6.3290   -4.8780   -1.9860 hx        1 2DD      0.134700
     38 H12         9.8990   -4.5880   -2.1040 ha        1 2DD      0.177500
     39 H13        11.3710   -6.0730   -3.4250 ha        1 2DD      0.187500
     40 H16         6.4820   -5.8840   -4.4610 ha        1 2DD      0.177500
     41 H15         7.9560   -7.3610   -5.7890 ha        1 2DD      0.187500
     42 H4N1       10.3580  -10.1190   -5.2500 hn        1 2DD      0.467467
     43 H4N2       11.6520   -9.6250   -4.3630 hn        1 2DD      0.467467
     44 H32         7.3990   -2.4460   -3.3530 hn        1 2DD      0.450300
     45 H43        10.1270   -9.3270   -3.8290 hn        1 2DD      0.467467
@<TRIPOS>BOND
     1    1    2 1   
     2    2    3 ar  
     3    2    8 ar  
     4    3    4 ar  
     5    3    7 1   
     6    4    5 ar  
     7    4   29 1   
     8    5    6 1   
     9    5    9 ar  
    10    6   30 1   
    11    7   31 1   
    12    8    9 ar  
    13    8   32 1   
    14    9   10 1   
    15   10   11 1   
    16   10   14 2   
    17   11   12 1   
    18   11   33 1   
    19   12   13 2   
    20   13   14 1   
    21   13   34 1   
    22   14   15 1   
    23   15   16 2   
    24   15   17 1   
    25   17   18 1   
    26   17   35 1   
    27   17   44 1   
    28   18   19 1   
    29   18   36 1   
    30   18   37 1   
    31   19   20 ar  
    32   19   22 ar  
    33   20   21 ar  
    34   20   38 1   
    35   21   24 ar  
    36   21   39 1   
    37   22   23 ar  
    38   22   40 1   
    39   23   24 ar  
    40   23   41 1   
    41   24   25 1   
    42   25   26 2   
    43   25   27 2   
    44   25   28 1   
    45   28   42 1   
    46   28   43 1   
    47   28   45 1   
@<TRIPOS>SUBSTRUCTURE
     1 2DD         1 TEMP              0 ****  ****    0 ROOT
