@<TRIPOS>MOLECULE
2DD
   43    45     1     0     0
SMALL
bcc


@<TRIPOS>ATOM
      1 CL1         7.1280    0.7930   -0.9210 cl        1 2DD     -0.088400
      2 C1          5.7700    0.5830    0.0820 ca        1 2DD     -0.115600
      3 C2          5.6580    1.2800    1.3050 ca        1 2DD      0.189100
      4 C3          4.5310    1.1060    2.1150 ca        1 2DD     -0.198000
      5 C4          3.5140    0.2280    1.7050 ca        1 2DD      0.228100
      6 O4          2.4750    0.0860    2.5780 oh        1 2DD     -0.487100
      7 O2          6.6050    2.1490    1.7770 oh        1 2DD     -0.481100
      8 C6          4.7580   -0.2870   -0.3110 ca        1 2DD     -0.032000
      9 C5          3.6250   -0.4840    0.4900 ca        1 2DD     -0.173000
     10 C7          2.6190   -1.4320    0.0480 cc        1 2DD      0.027700
     11 N2          2.9180   -2.7840   -0.1720 na        1 2DD     -0.006600
     12 N1          1.8750   -3.4800   -0.6230 nc        1 2DD     -0.497800
     13 C9          0.8390   -2.6110   -0.7270 cd        1 2DD      0.320200
     14 C8          1.2580   -1.2900   -0.3080 cd        1 2DD     -0.332900
     15 C10         0.4190   -0.0900   -0.2610 c         1 2DD      0.712700
     16 O5          0.4630    0.7170    0.6940 o         1 2DD     -0.629100
     17 N3         -0.4170    0.1250   -1.3420 n         1 2DD     -0.551900
     18 C17        -1.3660    1.2030   -1.3700 c3        1 2DD      0.124300
     19 C11        -2.7340    0.8530   -0.8490 ca        1 2DD     -0.061300
     20 C12        -2.9080    0.5640    0.5090 ca        1 2DD     -0.146500
     21 C13        -4.1760    0.2660    0.9980 ca        1 2DD     -0.020500
     22 C16        -3.8380    0.8390   -1.7070 ca        1 2DD     -0.146500
     23 C15        -5.1030    0.5440   -1.2060 ca        1 2DD     -0.020500
     24 C14        -5.2910    0.2570    0.1510 ca        1 2DD     -0.380500
     25 S1         -6.8260   -0.1290    0.7470 sy        1 2DD      1.526200
     26 O6         -7.6160   -0.5880   -0.3300 o         1 2DD     -0.658300
     27 O7         -6.6710   -0.9840    1.8570 o         1 2DD     -0.658300
     28 N4         -7.3900    1.2850    1.2470 n3        1 2DD     -1.026700
     29 H3          4.4390    1.6520    3.0650 ha        1 2DD      0.179000
     30 H4          1.6950   -0.2370    2.0900 ho        1 2DD      0.459000
     31 H2          7.3240    2.2060    1.1270 ho        1 2DD      0.435000
     32 H6          4.8440   -0.8260   -1.2690 ha        1 2DD      0.151000
     33 HA          3.7960   -3.2260   -0.0160 hn        1 2DD      0.332700
     34 H9         -0.1510   -2.9220   -1.0640 h4        1 2DD      0.051100
     35 HB         -0.5330   -0.6050   -2.0050 hn        1 2DD      0.315500
     36 H171       -1.4500    1.5560   -2.4390 h1        1 2DD      0.076200
     37 H172       -0.9590    2.0540   -0.7450 h1        1 2DD      0.076200
     38 H12        -2.0340    0.5770    1.1820 ha        1 2DD      0.150500
     39 H13        -4.3070    0.0150    2.0660 ha        1 2DD      0.154500
     40 H16        -3.7110    1.0600   -2.7780 ha        1 2DD      0.150500
     41 H15        -5.9710    0.5150   -1.8890 ha        1 2DD      0.154500
     42 H4N1       -7.2710    1.6260    2.1670 hn        1 2DD      0.448300
     43 H4N2       -7.9130    1.8990    0.6760 hn        1 2DD      0.448300
@<TRIPOS>BOND
     1    1    2 1   
     2    2    3 ar  
     3    2    8 ar  
     4    3    4 ar  
     5    3    7 1   
     6    4    5 ar  
     7    4   29 1   
     8    5    6 1   
     9    5    9 ar  
    10    6   30 1   
    11    7   31 1   
    12    8    9 ar  
    13    8   32 1   
    14    9   10 1   
    15   10   11 1   
    16   10   14 2   
    17   11   12 1   
    18   11   33 1   
    19   12   13 2   
    20   13   14 1   
    21   13   34 1   
    22   14   15 1   
    23   15   16 2   
    24   15   17 1   
    25   17   18 1   
    26   17   35 1   
    27   18   19 1   
    28   18   36 1   
    29   18   37 1   
    30   19   20 ar  
    31   19   22 ar  
    32   20   21 ar  
    33   20   38 1   
    34   21   24 ar  
    35   21   39 1   
    36   22   23 ar  
    37   22   40 1   
    38   23   24 ar  
    39   23   41 1   
    40   24   25 1   
    41   25   26 2   
    42   25   27 2   
    43   25   28 1   
    44   28   42 1   
    45   28   43 1   
@<TRIPOS>SUBSTRUCTURE
     1 2DD         1 TEMP              0 ****  ****    0 ROOT
