@<TRIPOS>MOLECULE
2DD
   45    47     1     0     0
SMALL
bcc


@<TRIPOS>ATOM
      1 CL1         0.0410    1.0590    0.2570 cl        1 2DD     -0.030400
      2 C1          1.6680    0.5930    0.2050 ca        1 2DD     -0.108600
      3 C2          2.3980    0.3790    1.4030 ca        1 2DD      0.242100
      4 C3          3.7450   -0.0120    1.3430 ca        1 2DD     -0.251000
      5 C4          4.3560   -0.1910    0.0990 ca        1 2DD      0.229100
      6 O4          5.6700   -0.5680   -0.0040 oh        1 2DD     -0.513100
      7 O2          1.8820    0.5240    2.6510 oh        1 2DD     -0.455100
      8 C6          2.2940    0.4200   -1.0210 ca        1 2DD     -0.017000
      9 C5          3.6430    0.0220   -1.1040 ca        1 2DD     -0.191000
     10 C7          4.2610   -0.1290   -2.3980 cc        1 2DD      0.184700
     11 N2          4.0800    0.7730   -3.4390 na        1 2DD      0.002400
     12 N1          4.7400    0.4340   -4.5570 nc        1 2DD     -0.430800
     13 C9          5.3970   -0.7110   -4.3020 cd        1 2DD      0.325200
     14 C8          5.1330   -1.1420   -2.9330 cd        1 2DD     -0.425900
     15 C10         5.5890   -2.3000   -2.2650 c         1 2DD      0.644700
     16 O5          5.3310   -2.8150   -1.1890 o         1 2DD     -0.438100
     17 N3          6.6450   -3.0940   -3.1040 n4        1 2DD     -0.693800
     18 C17         7.2080   -4.2540   -2.3680 c3        1 2DD      0.136100
     19 C11         8.1050   -5.1170   -3.2030 ca        1 2DD     -0.037300
     20 C12         9.4750   -5.1780   -2.9210 ca        1 2DD     -0.130500
     21 C13        10.3000   -6.0240   -3.6550 ca        1 2DD      0.018500
     22 C16         7.5720   -5.9140   -4.2250 ca        1 2DD     -0.130500
     23 C15         8.4020   -6.7570   -4.9560 ca        1 2DD      0.018500
     24 C14         9.7840   -6.8310   -4.6890 ca        1 2DD     -0.496500
     25 S1         10.7720   -7.7210   -5.6300 sy        1 2DD      1.471200
     26 O6         10.1870   -8.1300   -6.8050 o         1 2DD     -0.542800
     27 O7         12.1000   -7.3810   -5.5090 o         1 2DD     -0.542800
     28 N4         10.7430   -9.3410   -4.6500 n4        1 2DD     -0.797500
     29 H3          4.3000   -0.1670    2.2810 ha        1 2DD      0.181000
     30 H4          6.0450   -0.6170    0.8910 ho        1 2DD      0.450000
     31 H2          0.9520    0.8110    2.5890 ho        1 2DD      0.459000
     32 H6          1.7150    0.5810   -1.9470 ha        1 2DD      0.160000
     33 HA          3.5250    1.6080   -3.4180 hn        1 2DD      0.363700
     34 H9          6.0130   -1.1880   -5.0650 h4        1 2DD      0.043100
     35 HB          6.1900   -3.4100   -3.9650 hn        1 2DD      0.450300
     36 H171        6.3430   -4.8750   -1.9790 hx        1 2DD      0.134200
     37 H172        7.7610   -3.8520   -1.4670 hx        1 2DD      0.134200
     38 H12         9.9110   -4.5610   -2.1140 ha        1 2DD      0.177500
     39 H13        11.3870   -6.0420   -3.4350 ha        1 2DD      0.187500
     40 H16         6.4920   -5.8930   -4.4480 ha        1 2DD      0.177500
     41 H15         7.9700   -7.3660   -5.7750 ha        1 2DD      0.187500
     42 H4N1       10.3940  -10.1050   -5.2340 hn        1 2DD      0.467467
     43 H4N2       10.1640   -9.3060   -3.8150 hn        1 2DD      0.467467
     44 H32         7.3920   -2.4420   -3.3590 hn        1 2DD      0.450300
     45 H43        11.6900   -9.5970   -4.3560 hn        1 2DD      0.467467
@<TRIPOS>BOND
     1    1    2 1   
     2    2    3 ar  
     3    2    8 ar  
     4    3    4 ar  
     5    3    7 1   
     6    4    5 ar  
     7    4   29 1   
     8    5    6 1   
     9    5    9 ar  
    10    6   30 1   
    11    7   31 1   
    12    8    9 ar  
    13    8   32 1   
    14    9   10 1   
    15   10   11 1   
    16   10   14 2   
    17   11   12 1   
    18   11   33 1   
    19   12   13 2   
    20   13   14 1   
    21   13   34 1   
    22   14   15 1   
    23   15   16 2   
    24   15   17 1   
    25   17   18 1   
    26   17   35 1   
    27   17   44 1   
    28   18   19 1   
    29   18   36 1   
    30   18   37 1   
    31   19   20 ar  
    32   19   22 ar  
    33   20   21 ar  
    34   20   38 1   
    35   21   24 ar  
    36   21   39 1   
    37   22   23 ar  
    38   22   40 1   
    39   23   24 ar  
    40   23   41 1   
    41   24   25 1   
    42   25   26 2   
    43   25   27 2   
    44   25   28 1   
    45   28   42 1   
    46   28   43 1   
    47   28   45 1   
@<TRIPOS>SUBSTRUCTURE
     1 2DD         1 TEMP              0 ****  ****    0 ROOT
