@<TRIPOS>MOLECULE
2DD
   45    47     1     0     0
SMALL
bcc


@<TRIPOS>ATOM
      1 Cl1         0.0600    1.0830    0.2630 cl        1 2DD     -0.030400
      2 C1          1.6850    0.6100    0.2110 ca        1 2DD     -0.108600
      3 C2          2.4140    0.3920    1.4080 ca        1 2DD      0.242100
      4 C3          3.7600   -0.0050    1.3470 ca        1 2DD     -0.251000
      5 C4          4.3700   -0.1860    0.1030 ca        1 2DD      0.229100
      6 O4          5.6830   -0.5680   -0.0010 oh        1 2DD     -0.513100
      7 O2          1.8990    0.5370    2.6560 oh        1 2DD     -0.455100
      8 C6          2.3110    0.4360   -1.0160 ca        1 2DD     -0.017000
      9 C5          3.6570    0.0320   -1.0990 ca        1 2DD     -0.191000
     10 C7          4.2750   -0.1200   -2.3930 cc        1 2DD      0.184700
     11 N2          4.0980    0.7850   -3.4330 na        1 2DD      0.002400
     12 N1          4.7560    0.4440   -4.5510 nc        1 2DD     -0.430800
     13 C9          5.4080   -0.7040   -4.2980 cd        1 2DD      0.325200
     14 C8          5.1420   -1.1360   -2.9290 cd        1 2DD     -0.425900
     15 C10         5.5930   -2.2970   -2.2630 c         1 2DD      0.644700
     16 O5          5.3330   -2.8120   -1.1880 o         1 2DD     -0.438100
     17 N3          6.6450   -3.0940   -3.1040 ny        1 2DD     -0.693800
     18 C17         7.2030   -4.2580   -2.3700 c3        1 2DD      0.136100
     19 C11         8.0970   -5.1240   -3.2060 ca        1 2DD     -0.037300
     20 C12         9.4660   -5.1910   -2.9230 ca        1 2DD     -0.130500
     21 C13        10.2880   -6.0400   -3.6590 ca        1 2DD      0.018500
     22 C16         7.5610   -5.9160   -4.2300 ca        1 2DD     -0.130500
     23 C15         8.3870   -6.7610   -4.9620 ca        1 2DD      0.018500
     24 C14         9.7690   -6.8430   -4.6940 ca        1 2DD     -0.496500
     25 S1         10.7530   -7.7350   -5.6360 sy        1 2DD      1.471200
     26 O6         10.1660   -8.1390   -6.8130 o         1 2DD     -0.542800
     27 O7         12.0820   -7.4020   -5.5140 o         1 2DD     -0.542800
     28 N4         10.7160   -9.3570   -4.6600 nz        1 2DD     -0.797500
     29 H3          4.3140   -0.1640    2.2850 ha        1 2DD      0.181000
     30 H4          6.0570   -0.6190    0.8950 ho        1 2DD      0.450000
     31 H2          0.9700    0.8290    2.5950 ho        1 2DD      0.459000
     32 H6          1.7320    0.6010   -1.9410 ha        1 2DD      0.160000
     33 HA          3.5470    1.6220   -3.4110 hn        1 2DD      0.363700
     34 H9          6.0220   -1.1830   -5.0620 h4        1 2DD      0.043100
     35 HB          6.1890   -3.4070   -3.9650 hn        1 2DD      0.450300
     36 H171        7.7570   -3.8600   -1.4670 hx        1 2DD      0.134200
     37 H172        6.3350   -4.8760   -1.9820 hx        1 2DD      0.134200
     38 H12         9.9040   -4.5780   -2.1150 ha        1 2DD      0.177500
     39 H13        11.3740   -6.0640   -3.4380 ha        1 2DD      0.187500
     40 H16         6.4800   -5.8890   -4.4530 ha        1 2DD      0.177500
     41 H15         7.9520   -7.3670   -5.7820 ha        1 2DD      0.187500
     42 H4N1       10.3630  -10.1180   -5.2450 hn        1 2DD      0.467467
     43 H4N2       11.6600   -9.6180   -4.3660 hn        1 2DD      0.467467
     44 H32         7.3960   -2.4450   -3.3580 hn        1 2DD      0.450300
     45 H43        10.1360   -9.3210   -3.8250 hn        1 2DD      0.467467
@<TRIPOS>BOND
     1    1    2 1   
     2    2    3 ar  
     3    2    8 ar  
     4    3    4 ar  
     5    3    7 1   
     6    4    5 ar  
     7    4   29 1   
     8    5    6 1   
     9    5    9 ar  
    10    6   30 1   
    11    7   31 1   
    12    8    9 ar  
    13    8   32 1   
    14    9   10 1   
    15   10   11 1   
    16   10   14 2   
    17   11   12 1   
    18   11   33 1   
    19   12   13 2   
    20   13   14 1   
    21   13   34 1   
    22   14   15 1   
    23   15   16 2   
    24   15   17 1   
    25   17   18 1   
    26   17   35 1   
    27   17   44 1   
    28   18   19 1   
    29   18   36 1   
    30   18   37 1   
    31   19   20 ar  
    32   19   22 ar  
    33   20   21 ar  
    34   20   38 1   
    35   21   24 ar  
    36   21   39 1   
    37   22   23 ar  
    38   22   40 1   
    39   23   24 ar  
    40   23   41 1   
    41   24   25 1   
    42   25   26 2   
    43   25   27 2   
    44   25   28 1   
    45   28   42 1   
    46   28   43 1   
    47   28   45 1   
@<TRIPOS>SUBSTRUCTURE
     1 2DD         1 TEMP              0 ****  ****    0 ROOT
