@<TRIPOS>MOLECULE
2DE
   46    48     1     0     0
SMALL
bcc


@<TRIPOS>ATOM
      1 C1          0.0000    0.0000    0.0000 DU        1 2DE      0.305000
      2 O1          1.4300    0.0000    0.0000 os        1 2DE     -0.671000
      3 C2         -0.5020    0.0000    1.4220 c2        1 2DE     -0.308000
      4 C3         -1.4770    0.8020    1.7720 c2        1 2DE     -0.206000
      5 C5         -1.9790    0.8020    3.1920 DU        1 2DE     -0.050000
      6 C6         -1.9120    2.2220    3.7580 DU        1 2DE     -0.132000
      7 C7         -2.4140    2.2220    5.1780 c2        1 2DE     -0.576000
      8 C8         -1.6380    2.6370    6.1480 c2        1 2DE     -0.120000
      9 C9         -2.1810    2.7620    7.5470 c3        1 2DE     -0.029000
     10 PA          2.3060   -0.0000   -1.3500 p5        1 2DE      1.391000
     11 PB          5.1780    0.5850   -1.7930 p5        1 2DE      1.040500
     12 C10        -0.2000    2.9890    5.8630 c3        1 2DE     -0.108000
     13 C11        -1.8660    1.4860    8.3320 c3        1 2DE     -0.088000
     14 C12        -2.4100    1.6120    9.7330 c2        1 2DE     -0.139000
     15 C13        -3.2260    0.7020   10.2020 c2        1 2DE     -0.193000
     16 C14        -3.6220   -0.4720    9.3420 c3        1 2DE     -0.053500
     17 C15        -3.7700    0.8260   11.6020 c3        1 2DE     -0.053500
     18 O1A         1.9040    1.1430   -2.1990 o         1 2DE     -0.693500
     19 O1B         4.8790    1.8160   -2.5610 o         1 2DE     -0.667500
     20 O2A         2.0590   -1.3750   -2.1500 o         1 2DE     -0.693500
     21 O2B         6.3790    0.8760   -0.7600 o         1 2DE     -0.667500
     22 O3A         3.8670    0.1320   -0.9770 os        1 2DE     -0.939000
     23 O3B         5.6120   -0.5880   -2.8070 o         1 2DE     -0.667500
     24 H1         -0.3610   -0.8850   -0.5110 ha        1 2DE      0.015000
     25 H1A        -0.3610    0.8840   -0.5110 ha        1 2DE      0.015000
     26 H2          0.1630    0.7490    1.0080 DU        1 2DE      0.125000
     27 H3         -0.9740    1.2900    2.5980 DU        1 2DE      0.012000
     28 H5         -3.0040    0.4530    3.2120 ha        1 2DE      0.039000
     29 H5A        -1.3620    0.1440    3.7930 ha        1 2DE      0.039000
     30 H6         -2.5290    2.8790    3.1570 ha        1 2DE      0.064000
     31 H6A        -0.8860    2.5710    3.7370 ha        1 2DE      0.064000
     32 H7         -1.8060    1.4140    4.7880 DU        1 2DE      0.278000
     33 H9         -1.7200    3.6110    8.0390 hc        1 2DE      0.043500
     34 H9A        -3.2530    2.9060    7.5070 hc        1 2DE      0.043500
     35 H10         0.3340    2.1010    5.5480 hc        1 2DE      0.042000
     36 H10A       -0.1590    3.7330    5.0770 hc        1 2DE      0.042000
     37 H10B        0.2590    3.3870    6.7610 hc        1 2DE      0.042000
     38 H11        -0.7930    1.3420    8.3730 hc        1 2DE      0.067000
     39 H11A       -2.3260    0.6380    7.8410 hc        1 2DE      0.067000
     40 H12        -2.1250    2.4550   10.3510 ha        1 2DE      0.089000
     41 H14        -4.2330   -1.1540    9.9210 hc        1 2DE      0.038500
     42 H14A       -2.7310   -0.9860    9.0000 hc        1 2DE      0.038500
     43 H14B       -4.1850   -0.1190    8.4870 hc        1 2DE      0.038500
     44 H15        -3.7060    1.8590   11.9240 hc        1 2DE      0.038500
     45 H15A       -3.1890    0.2030   12.2720 hc        1 2DE      0.038500
     46 H15B       -4.8050    0.5070   11.6180 hc        1 2DE      0.038500
@<TRIPOS>BOND
     1    1    2 1   
     2    1    3 1   
     3    1   24 1   
     4    1   25 1   
     5    1   26 1   
     6    2   10 1   
     7    3    4 1   
     8    3   26 1   
     9    4    5 1   
    10    4   27 1   
    11    5    6 1   
    12    5   27 1   
    13    5   28 1   
    14    5   29 1   
    15    6    7 1   
    16    6   30 1   
    17    6   31 1   
    18    6   32 1   
    19    7    8 1   
    20    7   32 1   
    21    8    9 1   
    22    8   12 1   
    23    9   13 1   
    24    9   33 1   
    25    9   34 1   
    26   10   18 1   
    27   10   20 1   
    28   10   22 1   
    29   11   19 1   
    30   11   21 1   
    31   11   22 1   
    32   11   23 1   
    33   12   35 1   
    34   12   36 1   
    35   12   37 1   
    36   13   14 1   
    37   13   38 1   
    38   13   39 1   
    39   14   15 1   
    40   14   40 1   
    41   15   16 1   
    42   15   17 1   
    43   16   41 1   
    44   16   42 1   
    45   16   43 1   
    46   17   44 1   
    47   17   45 1   
    48   17   46 1   
@<TRIPOS>SUBSTRUCTURE
     1 2DE         1 TEMP              0 ****  ****    0 ROOT
