@<TRIPOS>MOLECULE
2DF
   25    24     1     0     0
SMALL
bcc


@<TRIPOS>ATOM
      1 P           1.0950   -2.1520    3.4110 p4        1 2DF      1.697200
      2 O1P         2.4990   -2.6260    3.7010 o         1 2DF     -0.910000
      3 O2P         0.6110   -1.2860    4.5490 os        1 2DF     -1.235000
      4 O3P         0.1820   -3.3460    3.2630 o         1 2DF     -0.958800
      5 O5'         1.0890   -1.3150    2.0710 os        1 2DF     -0.576200
      6 C5'        -0.1390   -0.8050    1.6030 c3        1 2DF      0.198400
      7 C4'         0.1240    0.3390    0.6230 c3        1 2DF      0.071100
      8 O4'         0.6750   -0.1090   -0.4460 os        1 2DF     -0.458600
      9 C1'         0.1240    0.7880   -1.6340 c3        1 2DF      0.284500
     10 N1          0.2160    0.0890   -2.8500 n         1 2DF     -0.566900
     11 C2          1.3650    0.2390   -3.6690 c         1 2DF      0.652900
     12 O2          2.2700    0.9730   -3.3190 o         1 2DF     -0.747100
     13 C3'        -1.2400    0.9770    0.1480 c3        1 2DF      0.067100
     14 C2'        -1.1530    1.0450   -1.3490 c3        1 2DF     -0.102400
     15 O3'        -1.3830    2.2200    0.6670 oh        1 2DF     -0.637800
     16 H5'1       -0.6640   -0.4720    2.3600 h1        1 2DF      0.005200
     17 H5'2       -0.6360   -1.5170    1.1490 h1        1 2DF      0.005200
     18 H4'         0.6900    1.0190    1.0380 h1        1 2DF      0.025700
     19 H1'         0.6310    1.6240   -1.6870 h2        1 2DF      0.062700
     20 H1         -0.4600   -0.4660   -3.1090 hn        1 2DF      0.424500
     21 H2          1.4300   -0.2480   -4.5140 h5        1 2DF      0.019200
     22 H3'        -1.9900    0.4090    0.4170 h1        1 2DF      0.187700
     23 H2'1       -1.3980    1.9400   -1.6640 hc        1 2DF      0.045700
     24 H2'2       -1.7340    0.3690   -1.7550 hc        1 2DF      0.045700
     25 H3T        -2.2040    2.3110    0.9970 ho        1 2DF      0.401000
@<TRIPOS>BOND
     1    1    2 1   
     2    1    4 2   
     3    1    5 1   
     4    5    6 1   
     5    6    7 1   
     6    6   16 1   
     7    6   17 1   
     8    7    8 1   
     9    7   13 1   
    10    7   18 1   
    11    8    9 1   
    12    9   10 1   
    13    9   14 1   
    14    9   19 1   
    15   10   11 1   
    16   10   20 1   
    17   11   12 2   
    18   11   21 1   
    19   13   14 1   
    20   13   15 1   
    21   13   22 1   
    22   14   23 1   
    23   14   24 1   
    24   15   25 1   
@<TRIPOS>SUBSTRUCTURE
     1 2DF         1 TEMP              0 ****  ****    0 ROOT
