@<TRIPOS>MOLECULE
2DF
   25    25     1     0     0
SMALL
bcc


@<TRIPOS>ATOM
      1 P           5.4850   -0.2230    0.2440 p5        1 2DF      1.328900
      2 O1P         6.9040    0.1960    0.4660 o         1 2DF     -0.911833
      3 O2P         5.1370   -0.6880   -1.1570 o         1 2DF     -0.911833
      4 O3P         4.7870   -1.0230    1.3110 o         1 2DF     -0.911833
      5 O5'         4.5990    1.2540    0.4060 os        1 2DF     -0.576200
      6 C5'         3.7400    1.6010   -0.6010 c3        1 2DF      0.198400
      7 C4'         2.2520    1.3390   -0.2570 c3        1 2DF      0.071100
      8 O4'         1.5720    0.8620   -1.4360 os        1 2DF     -0.458600
      9 C1'         1.3680   -0.5650   -1.3160 c3        1 2DF      0.284500
     10 N1          2.4900   -1.2940   -1.8560 n         1 2DF     -0.566900
     11 C2          2.4250   -2.0000   -3.0070 c         1 2DF      0.652900
     12 O2          1.3780   -2.2370   -3.6680 o         1 2DF     -0.747100
     13 C3'         2.0280    0.2850    0.8500 c3        1 2DF      0.067100
     14 C2'         1.1740   -0.8060    0.2020 c3        1 2DF     -0.102400
     15 O3'         1.3120    0.8490    1.9430 oh        1 2DF     -0.637800
     16 H5'1        3.8290    2.7140   -0.7880 h1        1 2DF      0.005200
     17 H5'2        3.9920    1.0630   -1.5590 h1        1 2DF      0.005200
     18 H4'         1.7330    2.2990    0.0060 h1        1 2DF      0.025700
     19 H1'         0.4370   -0.7780   -1.9140 h2        1 2DF      0.062700
     20 H1          3.4290   -1.0820   -1.4460 hn        1 2DF      0.424500
     21 H2          3.4110   -2.4180   -3.3250 h5        1 2DF      0.019200
     22 H3'         3.0350   -0.1420    1.1950 h1        1 2DF      0.187700
     23 H2'1        1.5160   -1.8180    0.5220 hc        1 2DF      0.045700
     24 H2'2        0.0960   -0.6830    0.4640 hc        1 2DF      0.045700
     25 H3T         1.9910    1.1860    2.5370 ho        1 2DF      0.401000
@<TRIPOS>BOND
     1    1    2 1   
     2    1    3 1   
     3    1    4 1   
     4    1    5 1   
     5    5    6 1   
     6    6    7 1   
     7    6   16 1   
     8    6   17 1   
     9    7    8 1   
    10    7   13 1   
    11    7   18 1   
    12    8    9 1   
    13    9   10 1   
    14    9   14 1   
    15    9   19 1   
    16   10   11 1   
    17   10   20 1   
    18   11   12 2   
    19   11   21 1   
    20   13   14 1   
    21   13   15 1   
    22   13   22 1   
    23   14   23 1   
    24   14   24 1   
    25   15   25 1   
@<TRIPOS>SUBSTRUCTURE
     1 2DF         1 TEMP              0 ****  ****    0 ROOT
