@<TRIPOS>MOLECULE
2DG
   23    23     1     0     0
SMALL
bcc


@<TRIPOS>ATOM
      1 C1         -0.7530   -0.8410   -1.5030 c3        1 2DG      0.343900
      2 C2          0.7540   -0.7800   -1.5750 c3        1 2DG     -0.130400
      3 C3          1.3790   -0.7590   -0.2360 c3        1 2DG      0.106100
      4 C4          0.7990    0.3020    0.6410 c3        1 2DG      0.127100
      5 C5         -0.7160    0.2390    0.6990 c3        1 2DG      0.108100
      6 C6         -1.2330    1.4560    1.4560 c3        1 2DG      0.141400
      7 O1         -1.1280   -2.0780   -1.0240 oh        1 2DG     -0.631800
      8 O3          2.8250   -0.5140   -0.3870 oh        1 2DG     -0.609800
      9 O4          1.1860    1.5870    0.1310 oh        1 2DG     -0.593800
     10 O5         -1.3250    0.2140   -0.6200 os        1 2DG     -0.452600
     11 O6         -2.6710    1.3820    1.5640 oh        1 2DG     -0.600800
     12 H1         -1.1220   -0.7240   -2.4180 h2        1 2DG      0.073700
     13 H21         1.0740   -1.5550   -2.0550 hc        1 2DG      0.072200
     14 H22         1.0120    0.0080   -2.0520 hc        1 2DG      0.072200
     15 H3          1.2470   -1.6340    0.1920 h1        1 2DG      0.062700
     16 H4          1.1530    0.2000    1.5360 h1        1 2DG      0.054700
     17 H5         -0.9800   -0.5740    1.1860 h1        1 2DG      0.062700
     18 H61        -0.9870    2.2610    0.9780 h1        1 2DG      0.065200
     19 H62        -0.8370    1.4760    2.3570 h1        1 2DG      0.065200
     20 HO1        -1.7610   -2.4190   -1.5470 ho        1 2DG      0.421000
     21 HO3         3.2850   -1.2490   -0.1310 ho        1 2DG      0.412000
     22 HO4         1.7630    1.9690    0.6950 ho        1 2DG      0.422000
     23 HO6        -2.9660    2.0350    2.1140 ho        1 2DG      0.411000
@<TRIPOS>BOND
     1    1    2 1   
     2    1    7 1   
     3    1   10 1   
     4    1   12 1   
     5    2    3 1   
     6    2   13 1   
     7    2   14 1   
     8    3    4 1   
     9    3    8 1   
    10    3   15 1   
    11    4    5 1   
    12    4    9 1   
    13    4   16 1   
    14    5    6 1   
    15    5   10 1   
    16    5   17 1   
    17    6   11 1   
    18    6   18 1   
    19    6   19 1   
    20    7   20 1   
    21    8   21 1   
    22    9   22 1   
    23   11   23 1   
@<TRIPOS>SUBSTRUCTURE
     1 2DG         1 TEMP              0 ****  ****    0 ROOT
