@<TRIPOS>MOLECULE
2DG
   23    23     1     0     0
SMALL
bcc


@<TRIPOS>ATOM
      1 C1         -1.5800    0.6040   -0.1680 c3        1 2DG      0.343900
      2 C2         -0.8840    0.5960   -1.5230 c3        1 2DG     -0.130400
      3 C3          0.1290   -0.5380   -1.6040 c3        1 2DG      0.106100
      4 C4          1.0950   -0.4810   -0.4050 c3        1 2DG      0.127100
      5 C5          0.2820   -0.4830    0.8950 c3        1 2DG      0.108100
      6 C6          1.1830   -0.2410    2.1110 c3        1 2DG      0.141400
      7 O1         -2.3970   -0.5420   -0.0730 oh        1 2DG     -0.631800
      8 O3          0.9420   -0.4240   -2.7640 oh        1 2DG     -0.609800
      9 O4          1.8990    0.6840   -0.4360 oh        1 2DG     -0.593800
     10 O5         -0.7030    0.5530    0.9400 os        1 2DG     -0.452600
     11 O6          0.4520   -0.3470    3.3130 oh        1 2DG     -0.600800
     12 H1         -2.1720    1.5510   -0.0100 h2        1 2DG      0.073700
     13 H21        -1.6510    0.4860   -2.3300 hc        1 2DG      0.072200
     14 H22        -0.3520    1.5750   -1.6520 hc        1 2DG      0.072200
     15 H3         -0.4040   -1.5290   -1.6060 h1        1 2DG      0.062700
     16 H4          1.7620   -1.3880   -0.4270 h1        1 2DG      0.054700
     17 H5         -0.2480   -1.4730    0.9820 h1        1 2DG      0.062700
     18 H61         1.6690    0.7670    2.0240 h1        1 2DG      0.065200
     19 H62         1.9640   -1.0450    2.1650 h1        1 2DG      0.065200
     20 HO1        -2.7620   -0.5630    0.8210 ho        1 2DG      0.421000
     21 HO3         0.3470   -0.3820   -3.5210 ho        1 2DG      0.412000
     22 HO4         2.2760    0.7360   -1.3250 ho        1 2DG      0.422000
     23 HO6        -0.2220    0.3440    3.2940 ho        1 2DG      0.411000
@<TRIPOS>BOND
     1    1    2 1   
     2    1    7 1   
     3    1   10 1   
     4    1   12 1   
     5    2    3 1   
     6    2   13 1   
     7    2   14 1   
     8    3    4 1   
     9    3    8 1   
    10    3   15 1   
    11    4    5 1   
    12    4    9 1   
    13    4   16 1   
    14    5    6 1   
    15    5   10 1   
    16    5   17 1   
    17    6   11 1   
    18    6   18 1   
    19    6   19 1   
    20    7   20 1   
    21    8   21 1   
    22    9   22 1   
    23   11   23 1   
@<TRIPOS>SUBSTRUCTURE
     1 2DG         1 TEMP              0 ****  ****    0 ROOT
