@<TRIPOS>MOLECULE
2DH
   46    48     1     0     0
SMALL
bcc


@<TRIPOS>ATOM
      1 O           0.8290    1.8040   -2.1460 os        1 2DH     -0.454200
      2 C           1.4930    0.8610   -1.3870 c         1 2DH      0.725600
      3 OXT         2.1490    1.3710   -0.4850 o         1 2DH     -0.535500
      4 CA          1.4110   -0.6210   -1.6790 c3        1 2DH     -0.035700
      5 N           0.4420   -0.9560   -2.6740 na        1 2DH     -0.076400
      6 CBB         0.1940   -2.2110   -3.2410 ca        1 2DH     -0.032200
      7 CAO         0.5570   -3.5000   -2.8210 ca        1 2DH     -0.119000
      8 CAN         0.1160   -4.5790   -3.5690 ca        1 2DH     -0.150000
      9 CAW        -0.6800   -4.3890   -4.7210 ca        1 2DH      0.099100
     10 OAT        -1.1490   -5.4250   -5.5090 os        1 2DH     -0.324900
     11 CAA        -0.8240   -6.7430   -5.0850 c3        1 2DH      0.112700
     12 CAP        -1.0560   -3.1150   -5.1580 ca        1 2DH     -0.096000
     13 CBA        -0.6180   -2.0150   -4.4240 ca        1 2DH     -0.091800
     14 CAQ        -0.8020   -0.5900   -4.5790 cc        1 2DH     -0.046200
     15 CAZ        -0.1220    0.0230   -3.5270 cd        1 2DH     -0.176300
     16 CAV         0.0340    1.4340   -3.2280 c         1 2DH      0.776800
     17 OAC        -0.4340    2.4130   -3.8000 o         1 2DH     -0.545500
     18 NAS         0.5600    4.6930   -2.0030 n3        1 2DH     -1.034700
     19 SBE         0.7240    6.2560   -1.7920 sy        1 2DH      1.522200
     20 OAD        -0.3280    6.9480   -2.4280 o         1 2DH     -0.657300
     21 OAE         0.9650    6.5430   -0.4310 o         1 2DH     -0.657300
     22 CAY         2.1630    6.6100   -2.6490 ca        1 2DH     -0.333500
     23 CAL         2.1150    6.9670   -3.9990 ca        1 2DH     -0.027000
     24 CAJ         3.2810    7.2640   -4.7030 ca        1 2DH     -0.111000
     25 CAX         4.5110    7.2050   -4.0440 ca        1 2DH     -0.115300
     26 CBD         5.7950    7.5030   -4.8130 c3        1 2DH      0.682200
     27 FAH         6.8060    8.0380   -4.0530 f         1 2DH     -0.234633
     28 FAI         5.6480    8.3890   -5.8520 f         1 2DH     -0.234633
     29 FAG         6.3650    6.3950   -5.3960 f         1 2DH     -0.234633
     30 CAK         4.5780    6.8650   -2.6920 ca        1 2DH     -0.111000
     31 CAM         3.4020    6.5710   -2.0030 ca        1 2DH     -0.027000
     32 H2          2.4460   -0.9600   -1.9910 h1        1 2DH      0.100700
     33 H3          1.1490   -1.1510   -0.7140 h1        1 2DH      0.100700
     34 H4          1.1710   -3.6510   -1.9230 ha        1 2DH      0.142000
     35 H5          0.3950   -5.5960   -3.2530 ha        1 2DH      0.146000
     36 H6         -1.2420   -6.9480   -4.0700 h1        1 2DH      0.047033
     37 H7          0.2820   -6.8990   -5.0940 h1        1 2DH      0.047033
     38 H8         -1.3190   -7.3900   -5.8540 h1        1 2DH      0.047033
     39 H9         -1.6800   -2.9940   -6.0550 ha        1 2DH      0.163000
     40 H10        -1.3690   -0.0910   -5.3630 ha        1 2DH      0.181000
     41 H11         0.9700    4.0020   -1.4200 hn        1 2DH      0.464800
     42 H12         1.1370    7.0320   -4.5100 ha        1 2DH      0.163000
     43 H13         3.2360    7.5510   -5.7650 ha        1 2DH      0.157000
     44 H14         5.5510    6.8380   -2.1770 ha        1 2DH      0.157000
     45 H15         3.4470    6.3200   -0.9270 ha        1 2DH      0.163000
     46 HAS2        0.0490    4.2790   -2.7480 hn        1 2DH      0.464800
@<TRIPOS>BOND
     1    1    2 1   
     2    1   16 1   
     3    2    3 2   
     4    2    4 1   
     5    4    5 1   
     6    4   32 1   
     7    4   33 1   
     8    5    6 1   
     9    5   15 1   
    10    6    7 ar  
    11    6   13 ar  
    12    7    8 ar  
    13    7   34 1   
    14    8    9 ar  
    15    8   35 1   
    16    9   10 1   
    17    9   12 ar  
    18   10   11 1   
    19   11   36 1   
    20   11   37 1   
    21   11   38 1   
    22   12   13 ar  
    23   12   39 1   
    24   13   14 1   
    25   14   15 2   
    26   14   40 1   
    27   15   16 1   
    28   16   17 2   
    29   18   19 1   
    30   18   41 1   
    31   18   46 1   
    32   19   20 2   
    33   19   21 2   
    34   19   22 1   
    35   22   23 ar  
    36   22   31 ar  
    37   23   24 ar  
    38   23   42 1   
    39   24   25 ar  
    40   24   43 1   
    41   25   26 1   
    42   25   30 ar  
    43   26   27 1   
    44   26   28 1   
    45   26   29 1   
    46   30   31 ar  
    47   30   44 1   
    48   31   45 1   
@<TRIPOS>SUBSTRUCTURE
     1 2DH         1 TEMP              0 ****  ****    0 ROOT
