@<TRIPOS>MOLECULE
2DH
   46    48     1     0     0
SMALL
bcc


@<TRIPOS>ATOM
      1 O           0.8740    1.7790   -2.1980 os        1 2DH     -0.454200
      2 C           1.5130    0.8350   -1.4200 c         1 2DH      0.725600
      3 OXT         2.1740    1.3450   -0.5230 o         1 2DH     -0.535500
      4 CA          1.4010   -0.6500   -1.6890 c3        1 2DH     -0.035700
      5 N           0.4330   -0.9800   -2.6860 na        1 2DH     -0.076400
      6 CBB         0.1610   -2.2380   -3.2350 ca        1 2DH     -0.032200
      7 CAO         0.4950   -3.5270   -2.7930 ca        1 2DH     -0.119000
      8 CAN         0.0350   -4.6090   -3.5260 ca        1 2DH     -0.149000
      9 CAW        -0.7520   -4.4200   -4.6840 ca        1 2DH      0.099100
     10 OAT        -1.2400   -5.4580   -5.4580 os        1 2DH     -0.324900
     11 CAA        -0.9430   -6.7760   -5.0120 c3        1 2DH      0.112700
     12 CAP        -1.1000   -3.1450   -5.1430 ca        1 2DH     -0.096000
     13 CBA        -0.6420   -2.0440   -4.4240 ca        1 2DH     -0.092800
     14 CAQ        -0.7960   -0.6180   -4.6010 cc        1 2DH     -0.046200
     15 CAZ        -0.1080   -0.0030   -3.5570 cd        1 2DH     -0.176300
     16 CAV         0.0760    1.4090   -3.2780 c         1 2DH      0.776800
     17 OAC        -0.3700    2.3890   -3.8660 o         1 2DH     -0.545500
     18 NAS         0.6220    4.6710   -2.0690 n8        1 2DH     -1.034700
     19 SBE         0.7610    6.2330   -1.8390 sy        1 2DH      1.522200
     20 OAD        -0.2930    6.9180   -2.4810 o         1 2DH     -0.657300
     21 OAE         0.9810    6.5090   -0.4730 o         1 2DH     -0.657300
     22 CAY         2.2050    6.6170   -2.6750 ca        1 2DH     -0.333500
     23 CAL         2.1670    6.9910   -4.0220 ca        1 2DH     -0.027000
     24 CAJ         3.3370    7.3160   -4.7060 ca        1 2DH     -0.111000
     25 CAX         4.5590    7.2680   -4.0340 ca        1 2DH     -0.115300
     26 CBD         5.8440    7.6310   -4.7730 c3        1 2DH      0.682200
     27 FAH         6.9670    6.9850   -4.3150 f         1 2DH     -0.234633
     28 FAI         6.1720    8.9640   -4.7070 f         1 2DH     -0.234633
     29 FAG         5.8250    7.3560   -6.1190 f         1 2DH     -0.234633
     30 CAK         4.6160    6.9070   -2.6860 ca        1 2DH     -0.111000
     31 CAM         3.4370    6.5860   -2.0150 ca        1 2DH     -0.027000
     32 H2          2.4300   -1.0160   -1.9860 h1        1 2DH      0.100700
     33 H3          1.1190   -1.1570   -0.7180 h1        1 2DH      0.100700
     34 H4          1.1030   -3.6770   -1.8900 ha        1 2DH      0.142000
     35 H5          0.2920   -5.6260   -3.1940 ha        1 2DH      0.146000
     36 H6         -1.4490   -7.4250   -5.7730 h1        1 2DH      0.047033
     37 H7          0.1590   -6.9550   -5.0140 h1        1 2DH      0.047033
     38 H8         -1.3700   -6.9570   -3.9960 h1        1 2DH      0.047033
     39 H9         -1.7180   -3.0260   -6.0440 ha        1 2DH      0.163000
     40 H10        -1.3500   -0.1200   -5.3960 ha        1 2DH      0.181000
     41 H11         0.1240    4.2580   -2.8240 hn        1 2DH      0.464800
     42 H12         1.1950    7.0470   -4.5430 ha        1 2DH      0.163000
     43 H13         3.3020    7.6060   -5.7680 ha        1 2DH      0.157000
     44 H14         5.5840    6.8770   -2.1620 ha        1 2DH      0.157000
     45 H15         3.4730    6.3190   -0.9440 ha        1 2DH      0.163000
     46 HAS2        1.0320    3.9800   -1.4860 hn        1 2DH      0.464800
@<TRIPOS>BOND
     1    1    2 1   
     2    1   16 1   
     3    2    3 2   
     4    2    4 1   
     5    4    5 1   
     6    4   32 1   
     7    4   33 1   
     8    5    6 1   
     9    5   15 1   
    10    6    7 ar  
    11    6   13 ar  
    12    7    8 ar  
    13    7   34 1   
    14    8    9 ar  
    15    8   35 1   
    16    9   10 1   
    17    9   12 ar  
    18   10   11 1   
    19   11   36 1   
    20   11   37 1   
    21   11   38 1   
    22   12   13 ar  
    23   12   39 1   
    24   13   14 1   
    25   14   15 2   
    26   14   40 1   
    27   15   16 1   
    28   16   17 2   
    29   18   19 1   
    30   18   41 1   
    31   18   46 1   
    32   19   20 2   
    33   19   21 2   
    34   19   22 1   
    35   22   23 ar  
    36   22   31 ar  
    37   23   24 ar  
    38   23   42 1   
    39   24   25 ar  
    40   24   43 1   
    41   25   26 1   
    42   25   30 ar  
    43   26   27 1   
    44   26   28 1   
    45   26   29 1   
    46   30   31 ar  
    47   30   44 1   
    48   31   45 1   
@<TRIPOS>SUBSTRUCTURE
     1 2DH         1 TEMP              0 ****  ****    0 ROOT
