@<TRIPOS>MOLECULE
2DH
   45    47     1     0     0
SMALL
bcc


@<TRIPOS>ATOM
      1 O          -0.5410   -0.2920    0.7710 o         1 2DH     -0.811300
      2 C           0.3970   -0.9690    0.2870 c         1 2DH      0.915600
      3 OXT         0.6360   -2.1870    0.5060 o         1 2DH     -0.811300
      4 CA          1.4120   -0.2200   -0.6500 c3        1 2DH     -0.130700
      5 N           0.9970   -0.1270   -2.0240 na        1 2DH      0.050600
      6 CBB         0.6130   -1.1980   -2.8300 ca        1 2DH     -0.052200
      7 CAO         0.5570   -2.5810   -2.5450 ca        1 2DH     -0.074000
      8 CAN         0.1590   -3.4340   -3.5510 ca        1 2DH     -0.186000
      9 CAW        -0.1970   -2.9370   -4.8330 ca        1 2DH      0.078100
     10 OAT        -0.5520   -3.7780   -5.8840 os        1 2DH     -0.346900
     11 CAA        -1.1110   -5.0260   -5.4990 c3        1 2DH      0.120700
     12 CAP        -0.1760   -1.5830   -5.1360 ca        1 2DH     -0.128000
     13 CBA         0.2320   -0.6920   -4.1330 ca        1 2DH     -0.092800
     14 CAQ         0.3690    0.7290   -4.0720 cc        1 2DH     -0.180200
     15 CAZ         0.8350    1.0390   -2.7770 cd        1 2DH     -0.152300
     16 CAV         1.1620    2.3920   -2.2970 c         1 2DH      0.748300
     17 OAC         2.1330    2.6730   -1.5750 o         1 2DH     -0.584100
     18 NAS         0.3270    3.4270   -2.7550 n         1 2DH     -0.687300
     19 SBE         0.4450    5.0360   -2.5040 sy        1 2DH      1.506900
     20 OAD        -0.6250    5.6390   -3.2080 o         1 2DH     -0.642800
     21 OAE         0.5710    5.3900   -1.1560 o         1 2DH     -0.642800
     22 CAY         1.8890    5.4530   -3.3050 ca        1 2DH     -0.338500
     23 CAL         1.8440    6.0620   -4.5650 ca        1 2DH     -0.016000
     24 CAJ         3.0140    6.4560   -5.2100 ca        1 2DH     -0.116500
     25 CAX         4.2460    6.2370   -4.5880 ca        1 2DH     -0.112300
     26 CBD         5.5260    6.6880   -5.2840 c3        1 2DH      0.681200
     27 FAH         5.4880    6.6190   -6.6550 f         1 2DH     -0.237633
     28 FAI         5.8720    7.9950   -5.0290 f         1 2DH     -0.237633
     29 FAG         6.6500    5.9750   -4.9440 f         1 2DH     -0.237633
     30 CAK         4.3120    5.6270   -3.3360 ca        1 2DH     -0.116500
     31 CAM         3.1310    5.2370   -2.7010 ca        1 2DH     -0.016000
     32 H2          2.3890   -0.7780   -0.6250 h1        1 2DH      0.060700
     33 H3          1.5630    0.8180   -0.2460 h1        1 2DH      0.060700
     34 H4          0.7980   -2.9370   -1.5230 ha        1 2DH      0.206000
     35 H5          0.1100   -4.5140   -3.3550 ha        1 2DH      0.129000
     36 H6         -1.8850   -4.8990   -4.7040 h1        1 2DH      0.033700
     37 H7         -1.5730   -5.4170   -6.4410 h1        1 2DH      0.033700
     38 H8         -0.3060   -5.7170   -5.1480 h1        1 2DH      0.033700
     39 H9         -0.4640   -1.2210   -6.1310 ha        1 2DH      0.134000
     40 H10         0.1750    1.4300   -4.8770 ha        1 2DH      0.140000
     41 H11        -0.4550    3.0920   -3.2830 hn        1 2DH      0.352500
     42 H12         0.8650    6.2420   -5.0450 ha        1 2DH      0.176500
     43 H13         2.9730    6.9310   -6.2020 ha        1 2DH      0.154500
     44 H14         5.2860    5.4470   -2.8560 ha        1 2DH      0.154500
     45 H15         3.1770    4.7420   -1.7100 ha        1 2DH      0.176500
@<TRIPOS>BOND
     1    1    2 1   
     2    2    3 1   
     3    2    4 1   
     4    4    5 1   
     5    4   32 1   
     6    4   33 1   
     7    5    6 1   
     8    5   15 1   
     9    6    7 ar  
    10    6   13 ar  
    11    7    8 ar  
    12    7   34 1   
    13    8    9 ar  
    14    8   35 1   
    15    9   10 1   
    16    9   12 ar  
    17   10   11 1   
    18   11   36 1   
    19   11   37 1   
    20   11   38 1   
    21   12   13 ar  
    22   12   39 1   
    23   13   14 1   
    24   14   15 2   
    25   14   40 1   
    26   15   16 1   
    27   16   17 2   
    28   16   18 1   
    29   18   19 1   
    30   18   41 1   
    31   19   20 2   
    32   19   21 2   
    33   19   22 1   
    34   22   23 ar  
    35   22   31 ar  
    36   23   24 ar  
    37   23   42 1   
    38   24   25 ar  
    39   24   43 1   
    40   25   26 1   
    41   25   30 ar  
    42   26   27 1   
    43   26   28 1   
    44   26   29 1   
    45   30   31 ar  
    46   30   44 1   
    47   31   45 1   
@<TRIPOS>SUBSTRUCTURE
     1 2DH         1 TEMP              0 ****  ****    0 ROOT
