@<TRIPOS>MOLECULE
2DI
   29    31     1     0     0
SMALL
bcc


@<TRIPOS>ATOM
      1 N9         -0.2470   -0.3430    0.3680 na        1 2DI     -0.215900
      2 C4          1.0990   -0.0590    0.1220 cc        1 2DI      0.059800
      3 N3          2.0830    0.4260    0.9800 nc        1 2DI     -0.611100
      4 C2          3.2670    0.5710    0.4060 cd        1 2DI      0.494800
      5 N1          3.5980    0.3010   -0.9110 n         1 2DI     -0.496400
      6 C6          2.6440   -0.1940   -1.8430 c         1 2DI      0.634000
      7 O6          3.0090   -0.4120   -3.0060 o         1 2DI     -0.592500
      8 C5          1.3190   -0.3800   -1.2680 cd        1 2DI      0.208800
      9 N7          0.1420   -0.8510   -1.8470 nd        1 2DI     -0.592000
     10 C8         -0.7700   -0.8210   -0.8540 cc        1 2DI      0.414400
     11 C5'        -3.8880    0.5190    0.2300 c3        1 2DI      0.112400
     12 O5'        -4.6370   -0.6390   -0.0650 oh        1 2DI     -0.590800
     13 C4'        -3.1980    0.4040    1.5890 c3        1 2DI      0.089100
     14 O4'        -2.2640   -0.6930    1.5430 os        1 2DI     -0.424600
     15 C1'        -0.9180   -0.2180    1.6500 c3        1 2DI      0.259800
     16 C2'        -0.9920    1.2280    2.1940 c3        1 2DI     -0.109400
     17 C3'        -2.4310    1.6680    1.9730 c3        1 2DI     -0.104400
     18 H2          4.0890    0.9530    1.0510 h5        1 2DI      0.055800
     19 HN1         4.5300    0.4480   -1.2280 hn        1 2DI      0.339500
     20 H8         -1.8180   -1.1350   -0.9360 h5        1 2DI      0.074100
     21 H5'1       -3.1270    0.7040   -0.5760 h1        1 2DI      0.056200
     22 H5'2       -4.6360    1.3550    0.2470 h1        1 2DI      0.056200
     23 H5'        -4.0420   -1.3960    0.0240 ho        1 2DI      0.410000
     24 H4'        -3.9480    0.1050    2.3730 h1        1 2DI      0.085700
     25 H1'        -0.4030   -0.9190    2.3740 h2        1 2DI      0.100700
     26 H2'1       -0.7400    1.2070    3.2830 hc        1 2DI      0.077200
     27 H2'2       -0.2670    1.9130    1.6900 hc        1 2DI      0.077200
     28 H3'1       -2.4940    2.4330    1.1590 hc        1 2DI      0.064200
     29 H3'2       -2.8590    2.1220    2.9000 hc        1 2DI      0.064200
@<TRIPOS>BOND
     1    1    2 1   
     2    1   10 1   
     3    1   15 1   
     4    2    3 1   
     5    2    8 2   
     6    3    4 2   
     7    4    5 1   
     8    4   18 1   
     9    5    6 1   
    10    5   19 1   
    11    6    7 2   
    12    6    8 1   
    13    8    9 1   
    14    9   10 2   
    15   10   20 1   
    16   11   12 1   
    17   11   13 1   
    18   11   21 1   
    19   11   22 1   
    20   12   23 1   
    21   13   14 1   
    22   13   17 1   
    23   13   24 1   
    24   14   15 1   
    25   15   16 1   
    26   15   25 1   
    27   16   17 1   
    28   16   26 1   
    29   16   27 1   
    30   17   28 1   
    31   17   29 1   
@<TRIPOS>SUBSTRUCTURE
     1 2DI         1 TEMP              0 ****  ****    0 ROOT
