@<TRIPOS>MOLECULE
2DI
   29    31     1     0     0
SMALL
bcc


@<TRIPOS>ATOM
      1 N9          0.2830   -0.0910    0.4560 na        1 2DI     -0.215900
      2 C4         -1.0700   -0.3680    0.2450 cc        1 2DI      0.059800
      3 N3         -1.7230   -1.5910    0.1070 nc        1 2DI     -0.611100
      4 C2         -3.0290   -1.4820   -0.0740 cd        1 2DI      0.494800
      5 N1         -3.7700   -0.3140   -0.1410 n         1 2DI     -0.496400
      6 C6         -3.1710    0.9700   -0.0100 c         1 2DI      0.634000
      7 O6         -3.8940    1.9730   -0.0820 o         1 2DI     -0.592500
      8 C5         -1.7310    0.9150    0.1970 cd        1 2DI      0.208800
      9 N7         -0.8050    1.9400    0.3790 nd        1 2DI     -0.592000
     10 C8          0.3810    1.3170    0.5320 cc        1 2DI      0.414400
     11 C5'         3.6790    0.9190   -0.7550 c3        1 2DI      0.112400
     12 O5'         4.2940    1.7530    0.2040 oh        1 2DI     -0.590800
     13 C4'         3.4700   -0.4930   -0.2100 c3        1 2DI      0.089100
     14 O4'         2.5740   -0.4270    0.9180 os        1 2DI     -0.424600
     15 C1'         1.3340   -1.0790    0.6200 c3        1 2DI      0.259800
     16 C2'         1.5780   -1.9640   -0.6250 c3        1 2DI     -0.109400
     17 C3'         2.8660   -1.4430   -1.2430 c3        1 2DI     -0.104400
     18 H2         -3.5980   -2.4310   -0.1860 h5        1 2DI      0.055800
     19 HN1        -4.7550   -0.3580   -0.2790 hn        1 2DI      0.339500
     20 H8          1.3460    1.8070    0.7120 h5        1 2DI      0.074100
     21 H5'1        2.6970    1.3600   -1.0780 h1        1 2DI      0.056200
     22 H5'2        4.3900    0.8970   -1.6220 h1        1 2DI      0.056200
     23 H5'         3.7610    1.7050    1.0090 ho        1 2DI      0.410000
     24 H4'         4.4340   -0.8830    0.2170 h1        1 2DI      0.085700
     25 H1'         1.0850   -1.6940    1.5370 h2        1 2DI      0.100700
     26 H2'1        1.6950   -3.0240   -0.2850 hc        1 2DI      0.077200
     27 H2'2        0.7280   -1.9300   -1.3490 hc        1 2DI      0.077200
     28 H3'1        2.6590   -0.9050   -2.2020 hc        1 2DI      0.064200
     29 H3'2        3.5720   -2.2800   -1.4670 hc        1 2DI      0.064200
@<TRIPOS>BOND
     1    1    2 1   
     2    1   10 1   
     3    1   15 1   
     4    2    3 1   
     5    2    8 2   
     6    3    4 2   
     7    4    5 1   
     8    4   18 1   
     9    5    6 1   
    10    5   19 1   
    11    6    7 2   
    12    6    8 1   
    13    8    9 1   
    14    9   10 2   
    15   10   20 1   
    16   11   12 1   
    17   11   13 1   
    18   11   21 1   
    19   11   22 1   
    20   12   23 1   
    21   13   14 1   
    22   13   17 1   
    23   13   24 1   
    24   14   15 1   
    25   15   16 1   
    26   15   25 1   
    27   16   17 1   
    28   16   26 1   
    29   16   27 1   
    30   17   28 1   
    31   17   29 1   
@<TRIPOS>SUBSTRUCTURE
     1 2DI         1 TEMP              0 ****  ****    0 ROOT
