@<TRIPOS>MOLECULE
2DI
   29    31     1     0     0
SMALL
bcc


@<TRIPOS>ATOM
      1 N9         -0.1470   -0.3860    0.2760 na        1 2DI     -0.214900
      2 C4          1.1720    0.0150    0.0530 cc        1 2DI      0.059800
      3 N3          2.1330    0.4700    0.9530 nc        1 2DI     -0.610100
      4 C2          3.2960    0.7590    0.3910 cd        1 2DI      0.493800
      5 N1          3.6260    0.6570   -0.9500 n         1 2DI     -0.496400
      6 C6          2.6950    0.2010   -1.9240 c         1 2DI      0.634000
      7 O6          3.0580    0.1350   -3.1070 o         1 2DI     -0.593500
      8 C5          1.3940   -0.1380   -1.3650 cd        1 2DI      0.208800
      9 N7          0.2430   -0.6200   -1.9840 nd        1 2DI     -0.594000
     10 C8         -0.6560   -0.7600   -0.9890 cc        1 2DI      0.414400
     11 C5'        -3.7750    0.2270    0.1800 c3        1 2DI      0.105400
     12 O5'        -4.9360    1.0220    0.2930 oh        1 2DI     -0.586800
     13 C4'        -3.1310   -0.0060    1.5490 c3        1 2DI      0.096100
     14 O4'        -2.1160   -1.0170    1.4160 os        1 2DI     -0.412600
     15 C1'        -0.8110   -0.4450    1.5650 c3        1 2DI      0.257800
     16 C2'        -0.9950    0.9300    2.2520 c3        1 2DI     -0.109400
     17 C3'        -2.4770    1.2480    2.1300 c3        1 2DI     -0.104400
     18 H2          4.0990    1.1250    1.0680 h5        1 2DI      0.054800
     19 HN1         4.5400    0.9030   -1.2550 hn        1 2DI      0.338500
     20 H8         -1.6830   -1.1330   -1.0940 h5        1 2DI      0.076100
     21 H5'1       -3.0910    0.8090   -0.4940 h1        1 2DI      0.060700
     22 H5'2       -4.0110   -0.7630   -0.2950 h1        1 2DI      0.060700
     23 H5'        -5.5910    0.5080    0.7810 ho        1 2DI      0.400000
     24 H4'        -3.8860   -0.4470    2.2560 h1        1 2DI      0.069700
     25 H1'        -0.2340   -1.1710    2.2140 h2        1 2DI      0.100700
     26 H2'1       -0.6900    0.8320    3.3240 hc        1 2DI      0.076200
     27 H2'2       -0.3620    1.7250    1.7900 hc        1 2DI      0.076200
     28 H3'1       -2.6540    2.1260    1.4600 hc        1 2DI      0.068700
     29 H3'2       -2.9170    1.4910    3.1290 hc        1 2DI      0.068700
@<TRIPOS>BOND
     1    1    2 1   
     2    1   10 1   
     3    1   15 1   
     4    2    3 1   
     5    2    8 2   
     6    3    4 2   
     7    4    5 1   
     8    4   18 1   
     9    5    6 1   
    10    5   19 1   
    11    6    7 2   
    12    6    8 1   
    13    8    9 1   
    14    9   10 2   
    15   10   20 1   
    16   11   12 1   
    17   11   13 1   
    18   11   21 1   
    19   11   22 1   
    20   12   23 1   
    21   13   14 1   
    22   13   17 1   
    23   13   24 1   
    24   14   15 1   
    25   15   16 1   
    26   15   25 1   
    27   16   17 1   
    28   16   26 1   
    29   16   27 1   
    30   17   28 1   
    31   17   29 1   
@<TRIPOS>SUBSTRUCTURE
     1 2DI         1 TEMP              0 ****  ****    0 ROOT
