@<TRIPOS>MOLECULE
2DI
   29    31     1     0     0
SMALL
bcc


@<TRIPOS>ATOM
      1 N9         -0.2660   -0.3450    0.3250 na        1 2DI     -0.215900
      2 C4          1.0870   -0.0860    0.0930 cc        1 2DI      0.059800
      3 N3          2.0870    0.3090    0.9790 nc        1 2DI     -0.611100
      4 C2          3.2740    0.4560    0.4120 cd        1 2DI      0.494800
      5 N1          3.5940    0.2660   -0.9220 ns        1 2DI     -0.496400
      6 C6          2.6240   -0.1360   -1.8820 c         1 2DI      0.634000
      7 O6          2.9800   -0.2860   -3.0590 o         1 2DI     -0.592500
      8 C5          1.2950   -0.3200   -1.3160 cd        1 2DI      0.208800
      9 N7          0.1030   -0.7140   -1.9210 nd        1 2DI     -0.592000
     10 C8         -0.8060   -0.7230   -0.9250 cc        1 2DI      0.414400
     11 C5'        -3.8800    0.6340    0.2590 c3        1 2DI      0.112400
     12 O5'        -4.6650   -0.4790   -0.1110 oh        1 2DI     -0.590800
     13 C4'        -3.1920    0.4060    1.6040 c3        1 2DI      0.089100
     14 O4'        -2.2920   -0.7130    1.4810 os        1 2DI     -0.424600
     15 C1'        -0.9310   -0.2880    1.6140 c3        1 2DI      0.259800
     16 C2'        -0.9600    1.1210    2.2550 c3        1 2DI     -0.109400
     17 C3'        -2.3860    1.6170    2.0690 c3        1 2DI     -0.104400
     18 H2          4.1080    0.7680    1.0780 h5        1 2DI      0.055800
     19 HN1         4.5300    0.4060   -1.2320 hn        1 2DI      0.339500
     20 H8         -1.8630   -1.0000   -1.0240 h5        1 2DI      0.074100
     21 H5'1       -3.1150    0.8500   -0.5360 h1        1 2DI      0.056200
     22 H5'2       -4.6030    1.4890    0.3350 h1        1 2DI      0.056200
     23 H5'        -4.0920   -1.2570   -0.0760 ho        1 2DI      0.410000
     24 H4'        -3.9490    0.0780    2.3680 h1        1 2DI      0.085700
     25 H1'        -0.4370   -1.0500    2.2880 h2        1 2DI      0.100700
     26 H2'1       -0.7080    1.0190    3.3400 hc        1 2DI      0.077200
     27 H2'2       -0.2160    1.8160    1.7950 hc        1 2DI      0.077200
     28 H3'1       -2.7990    2.0200    3.0270 hc        1 2DI      0.064200
     29 H3'2       -2.4270    2.4370    1.3090 hc        1 2DI      0.064200
@<TRIPOS>BOND
     1    1    2 1   
     2    1   10 1   
     3    1   15 1   
     4    2    3 1   
     5    2    8 2   
     6    3    4 2   
     7    4    5 1   
     8    4   18 1   
     9    5    6 1   
    10    5   19 1   
    11    6    7 2   
    12    6    8 1   
    13    8    9 1   
    14    9   10 2   
    15   10   20 1   
    16   11   12 1   
    17   11   13 1   
    18   11   21 1   
    19   11   22 1   
    20   12   23 1   
    21   13   14 1   
    22   13   17 1   
    23   13   24 1   
    24   14   15 1   
    25   15   16 1   
    26   15   25 1   
    27   16   17 1   
    28   16   26 1   
    29   16   27 1   
    30   17   28 1   
    31   17   29 1   
@<TRIPOS>SUBSTRUCTURE
     1 2DI         1 TEMP              0 ****  ****    0 ROOT
