@<TRIPOS>MOLECULE
2DI
   29    27     1     0     0
SMALL
bcc


@<TRIPOS>ATOM
      1 N9         -0.3190    0.3560   -1.1210 n2        1 2DI     -0.169000
      2 C4          1.0270    0.3940   -1.1510 c1        1 2DI      0.032000
      3 N3          2.0200    0.7140   -0.1370 n1        1 2DI     -0.179000
      4 C2          3.4210    0.7280   -0.4780 c1        1 2DI      0.074000
      5 N1          3.8360    0.4240   -1.8160 n2        1 2DI     -0.335000
      6 C6          2.8840    0.1120   -2.7900 c2        1 2DI      0.381000
      7 O6          3.2660   -0.3300   -3.9430 o         1 2DI     -0.317000
      8 C5          1.4290    0.1010   -2.4370 c2        1 2DI     -0.216000
      9 N7          0.3250   -0.1130   -3.1820 n2        1 2DI     -0.060000
     10 C8         -0.7620    0.0420   -2.3800 c1        1 2DI     -0.090000
     11 C5'        -0.8160   -1.1020    2.8510 c3        1 2DI     -0.032000
     12 O5'        -0.2100   -0.5710    3.8980 oh        1 2DI     -0.319000
     13 C4'        -1.3170    0.0250    1.9290 c3        1 2DI     -0.026000
     14 O4'        -0.3530    0.4670    1.2100 os        1 2DI     -0.276000
     15 C1'        -1.0010    0.8550   -0.1190 c2        1 2DI      0.156000
     16 C2'        -2.4100    0.2560   -0.0850 c3        1 2DI     -0.192000
     17 C3'        -2.4070   -0.5400    0.9150 c3        1 2DI     -0.186000
     18 H2          4.0940    0.9460    0.2090 ha        1 2DI      0.186000
     19 HN1         4.6790    0.4330   -2.0210 hn        1 2DI      0.253000
     20 H8         -1.7160   -0.0630   -2.6590 DU        1 2DI      0.203000
     21 H5'1       -0.1820   -1.6770    2.3580 h1        1 2DI      0.091000
     22 H5'2       -1.5870   -1.6450    3.1570 h1        1 2DI      0.091000
     23 H5'        -0.0150   -1.1910    4.4620 ho        1 2DI      0.214000
     24 H4'        -1.7080    0.7680    2.4750 h1        1 2DI      0.125000
     25 H1'        -1.0530    1.8800   -0.2030 h4        1 2DI      0.158000
     26 H2'1       -2.6030   -0.2660   -0.9580 hc        1 2DI      0.112500
     27 H2'2       -3.0760    0.9640    0.0450 hc        1 2DI      0.112500
     28 H3'1       -3.2800   -0.5510    1.3350 hc        1 2DI      0.102000
     29 H3'2       -2.1670   -1.4140    0.6340 hc        1 2DI      0.102000
@<TRIPOS>BOND
     1    1    2 1   
     2    1   10 1   
     3    2    8 1   
     4    3    4 1   
     5    4   18 1   
     6    5    6 1   
     7    5   19 1   
     8    6    7 1   
     9    6    8 1   
    10    8    9 1   
    11    9   10 1   
    12   11   12 1   
    13   11   13 1   
    14   11   21 1   
    15   11   22 1   
    16   12   23 1   
    17   13   14 1   
    18   13   17 1   
    19   13   24 1   
    20   14   15 1   
    21   15   16 1   
    22   15   25 1   
    23   16   17 1   
    24   16   26 1   
    25   16   27 1   
    26   17   28 1   
    27   17   29 1   
@<TRIPOS>SUBSTRUCTURE
     1 2DI         1 TEMP              0 ****  ****    0 ROOT
