@<TRIPOS>MOLECULE
2DJ
   54    56     1     0     0
SMALL
bcc


@<TRIPOS>ATOM
      1 OXT        -0.7000   -0.4480    0.7600 o         1 2DJ     -0.812800
      2 C           0.3070   -1.0420    0.3040 c         1 2DJ      0.914600
      3 O           0.6340   -2.2390    0.5260 o         1 2DJ     -0.812800
      4 CA          1.2910   -0.2070   -0.5890 c3        1 2DJ     -0.128700
      5 N           0.9110   -0.1070   -1.9720 na        1 2DJ      0.049600
      6 CBB         0.5780   -1.1760   -2.8030 ca        1 2DJ     -0.052200
      7 CAO         0.5400   -2.5640   -2.5380 ca        1 2DJ     -0.075000
      8 CAN         0.1940   -3.4120   -3.5670 ca        1 2DJ     -0.187000
      9 CAW        -0.1300   -2.9060   -4.8540 ca        1 2DJ      0.075100
     10 OAT        -0.4310   -3.7430   -5.9250 os        1 2DJ     -0.347900
     11 CAA        -1.0070   -4.9930   -5.5720 c3        1 2DJ      0.120700
     12 CAP        -0.1230   -1.5480   -5.1400 ca        1 2DJ     -0.127000
     13 CBA         0.2350   -0.6630   -4.1140 ca        1 2DJ     -0.094800
     14 CAQ         0.3490    0.7590   -4.0350 cc        1 2DJ     -0.181200
     15 CAZ         0.7630    1.0640   -2.7210 cd        1 2DJ     -0.148300
     16 CAV         1.0620    2.4180   -2.2200 c         1 2DJ      0.744300
     17 OAF         1.9850    2.6890   -1.4330 o         1 2DJ     -0.585100
     18 NAS         0.2680    3.4550   -2.7330 n         1 2DJ     -0.681300
     19 SBE         0.4060    5.0750   -2.5150 sy        1 2DJ      1.513900
     20 OAG        -0.6190    5.6690   -3.2960 o         1 2DJ     -0.650800
     21 OAH         0.4280    5.4490   -1.1650 o         1 2DJ     -0.650800
     22 CAY         1.8910    5.4440   -3.2190 ca        1 2DJ     -0.387500
     23 CAL         3.0900    5.2310   -2.5290 ca        1 2DJ     -0.006000
     24 CAJ         4.3120    5.5740   -3.0980 ca        1 2DJ     -0.164500
     25 CAX         4.3730    6.1410   -4.3800 ca        1 2DJ     -0.004300
     26 CBD         5.7150    6.4920   -4.9660 c3        1 2DJ     -0.018700
     27 CAC         6.4120    7.5040   -4.0600 c3        1 2DJ     -0.086100
     28 CAD         6.5680    5.2290   -5.0620 c3        1 2DJ     -0.086100
     29 CAB         5.6030    7.0980   -6.3590 c3        1 2DJ     -0.086100
     30 CAK         3.1740    6.3560   -5.0720 ca        1 2DJ     -0.164500
     31 CAM         1.9550    6.0100   -4.4970 ca        1 2DJ     -0.006000
     32 H2          1.3600    0.8290   -0.1570 h1        1 2DJ      0.061200
     33 H3          2.3040   -0.6960   -0.5460 h1        1 2DJ      0.061200
     34 H4          0.7600   -2.9310   -1.5140 ha        1 2DJ      0.207000
     35 H5          0.1600   -4.4950   -3.3870 ha        1 2DJ      0.128000
     36 H6         -1.8090   -4.8720   -4.8040 h1        1 2DJ      0.033367
     37 H7         -1.4330   -5.3760   -6.5330 h1        1 2DJ      0.033367
     38 H8         -0.2150   -5.6870   -5.1960 h1        1 2DJ      0.033367
     39 H9         -0.3830   -1.1790   -6.1400 ha        1 2DJ      0.133000
     40 H10         0.1730    1.4650   -4.8390 ha        1 2DJ      0.141000
     41 H11        -0.4900    3.1260   -3.2980 hn        1 2DJ      0.347500
     42 H12         3.0590    4.7710   -1.5220 ha        1 2DJ      0.165000
     43 H13         5.2390    5.3900   -2.5330 ha        1 2DJ      0.137000
     44 H14         5.7980    8.4320   -3.9730 hc        1 2DJ      0.037922
     45 H15         6.5640    7.0800   -3.0390 hc        1 2DJ      0.037922
     46 H16         7.4080    7.7720   -4.4860 hc        1 2DJ      0.037922
     47 H17         7.5660    5.4780   -5.4970 hc        1 2DJ      0.037922
     48 H18         6.7220    4.7800   -4.0520 hc        1 2DJ      0.037922
     49 H19         6.0690    4.4750   -5.7150 hc        1 2DJ      0.037922
     50 H20         6.6220    7.3410   -6.7470 hc        1 2DJ      0.037922
     51 H21         5.0030    8.0400   -6.3320 hc        1 2DJ      0.037922
     52 H22         5.1220    6.3780   -7.0640 hc        1 2DJ      0.037922
     53 H23         3.1750    6.7980   -6.0790 ha        1 2DJ      0.137000
     54 H24         1.0170    6.1940   -5.0510 ha        1 2DJ      0.165000
@<TRIPOS>BOND
     1    1    2 1   
     2    2    3 1   
     3    2    4 1   
     4    4    5 1   
     5    4   32 1   
     6    4   33 1   
     7    5    6 1   
     8    5   15 1   
     9    6    7 ar  
    10    6   13 ar  
    11    7    8 ar  
    12    7   34 1   
    13    8    9 ar  
    14    8   35 1   
    15    9   10 1   
    16    9   12 ar  
    17   10   11 1   
    18   11   36 1   
    19   11   37 1   
    20   11   38 1   
    21   12   13 ar  
    22   12   39 1   
    23   13   14 1   
    24   14   15 2   
    25   14   40 1   
    26   15   16 1   
    27   16   17 2   
    28   16   18 1   
    29   18   19 1   
    30   18   41 1   
    31   19   20 2   
    32   19   21 2   
    33   19   22 1   
    34   22   23 ar  
    35   22   31 ar  
    36   23   24 ar  
    37   23   42 1   
    38   24   25 ar  
    39   24   43 1   
    40   25   26 1   
    41   25   30 ar  
    42   26   27 1   
    43   26   28 1   
    44   26   29 1   
    45   27   44 1   
    46   27   45 1   
    47   27   46 1   
    48   28   47 1   
    49   28   48 1   
    50   28   49 1   
    51   29   50 1   
    52   29   51 1   
    53   29   52 1   
    54   30   31 ar  
    55   30   53 1   
    56   31   54 1   
@<TRIPOS>SUBSTRUCTURE
     1 2DJ         1 TEMP              0 ****  ****    0 ROOT
