@<TRIPOS>MOLECULE
2DJ
   55    57     1     0     0
SMALL
bcc


@<TRIPOS>ATOM
      1 OXT         1.2600    1.2450   -2.6200 os        1 2DJ     -0.449200
      2 C           1.6800    0.3180   -1.6870 c         1 2DJ      0.724600
      3 O           2.4160    0.8110   -0.8400 o         1 2DJ     -0.533500
      4 CA          1.2360   -1.1280   -1.7250 c3        1 2DJ     -0.038700
      5 N           0.5880   -1.4920   -2.9460 na        1 2DJ     -0.074400
      6 CBB        -0.0190   -2.7160   -3.2560 ca        1 2DJ     -0.035200
      7 CAO         0.1280   -3.9870   -2.6820 ca        1 2DJ     -0.118000
      8 CAN        -0.5670   -5.0440   -3.2480 ca        1 2DJ     -0.152000
      9 CAW        -1.3970   -4.8480   -4.3750 ca        1 2DJ      0.099100
     10 OAT        -2.1130   -5.8620   -4.9860 os        1 2DJ     -0.324900
     11 CAA        -1.9720   -7.1630   -4.4300 c3        1 2DJ      0.112700
     12 CAP        -1.5580   -3.5900   -4.9660 ca        1 2DJ     -0.096000
     13 CBA        -0.8740   -2.5130   -4.4070 ca        1 2DJ     -0.091800
     14 CAQ        -0.8090   -1.1080   -4.7400 cc        1 2DJ     -0.047200
     15 CAZ         0.0490   -0.5130   -3.8170 cd        1 2DJ     -0.175300
     16 CAV         0.4350    0.8800   -3.6810 c         1 2DJ      0.774800
     17 OAF         0.1360    1.8450   -4.3770 o         1 2DJ     -0.540500
     18 NAS         1.0710    4.1570   -2.5920 n8        1 2DJ     -1.033700
     19 SBE         1.0100    5.7070   -2.2360 sy        1 2DJ      1.527200
     20 OAG         1.0730    5.8780   -0.8330 o         1 2DJ     -0.666300
     21 OAH        -0.0820    6.3070   -2.9050 o         1 2DJ     -0.666300
     22 CAY         2.4390    6.3230   -2.9030 ca        1 2DJ     -0.381500
     23 CAL         2.4690    6.8110   -4.2120 ca        1 2DJ     -0.017000
     24 CAJ         3.6380    7.3340   -4.7610 ca        1 2DJ     -0.159500
     25 CAX         4.8160    7.3830   -4.0080 ca        1 2DJ     -0.004300
     26 CBD         6.1040    7.9380   -4.5600 c3        1 2DJ     -0.018700
     27 CAC         6.5480    9.1240   -3.7070 c3        1 2DJ     -0.086767
     28 CAD         7.1790    6.8550   -4.5170 c3        1 2DJ     -0.086767
     29 CAB         5.9620    8.4130   -6.0000 c3        1 2DJ     -0.086767
     30 CAK         4.7880    6.9010   -2.6890 ca        1 2DJ     -0.159500
     31 CAM         3.6170    6.3810   -2.1500 ca        1 2DJ     -0.017000
     32 H2          2.1510   -1.7780   -1.5870 h1        1 2DJ      0.099700
     33 H3          0.5540   -1.2920   -0.8360 h1        1 2DJ      0.099700
     34 H4          0.7760   -4.1430   -1.8090 ha        1 2DJ      0.142000
     35 H5         -0.4640   -6.0460   -2.8060 ha        1 2DJ      0.145000
     36 H6         -2.6260   -7.7950   -5.0840 h1        1 2DJ      0.046367
     37 H7         -0.9100   -7.5060   -4.4870 h1        1 2DJ      0.046367
     38 H8         -2.3370   -7.1840   -3.3740 h1        1 2DJ      0.046367
     39 H9         -2.2060   -3.4650   -5.8450 ha        1 2DJ      0.162000
     40 H10        -1.3280   -0.6110   -5.5580 ha        1 2DJ      0.181000
     41 H11         1.5180    3.4730   -2.0300 hn        1 2DJ      0.459800
     42 H12         1.5430    6.7970   -4.8140 ha        1 2DJ      0.151500
     43 H13         3.6130    7.7100   -5.7950 ha        1 2DJ      0.139000
     44 H14         5.7680    9.9230   -3.7190 hc        1 2DJ      0.039144
     45 H15         6.7190    8.8080   -2.6500 hc        1 2DJ      0.039144
     46 H16         7.5000    9.5450   -4.1100 hc        1 2DJ      0.039144
     47 H17         8.1370    7.2570   -4.9260 hc        1 2DJ      0.039144
     48 H18         7.3550    6.5140   -3.4690 hc        1 2DJ      0.039144
     49 H19         6.8670    5.9770   -5.1320 hc        1 2DJ      0.039144
     50 H20         6.9420    8.8100   -6.3620 hc        1 2DJ      0.039144
     51 H21         5.6570    7.5700   -6.6650 hc        1 2DJ      0.039144
     52 H22         5.2050    9.2300   -6.0730 hc        1 2DJ      0.039144
     53 H23         5.6990    6.9360   -2.0720 ha        1 2DJ      0.139000
     54 H24         3.6060    6.0240   -1.1050 ha        1 2DJ      0.151500
     55 HAS2        0.6730    3.7560   -3.4080 hn        1 2DJ      0.459800
@<TRIPOS>BOND
     1    1    2 1   
     2    1   16 1   
     3    2    3 2   
     4    2    4 1   
     5    4    5 1   
     6    4   32 1   
     7    4   33 1   
     8    5    6 1   
     9    5   15 1   
    10    6    7 ar  
    11    6   13 ar  
    12    7    8 ar  
    13    7   34 1   
    14    8    9 ar  
    15    8   35 1   
    16    9   10 1   
    17    9   12 ar  
    18   10   11 1   
    19   11   36 1   
    20   11   37 1   
    21   11   38 1   
    22   12   13 ar  
    23   12   39 1   
    24   13   14 1   
    25   14   15 2   
    26   14   40 1   
    27   15   16 1   
    28   16   17 2   
    29   18   19 1   
    30   18   41 1   
    31   18   55 1   
    32   19   20 2   
    33   19   21 2   
    34   19   22 1   
    35   22   23 ar  
    36   22   31 ar  
    37   23   24 ar  
    38   23   42 1   
    39   24   25 ar  
    40   24   43 1   
    41   25   26 1   
    42   25   30 ar  
    43   26   27 1   
    44   26   28 1   
    45   26   29 1   
    46   27   44 1   
    47   27   45 1   
    48   27   46 1   
    49   28   47 1   
    50   28   48 1   
    51   28   49 1   
    52   29   50 1   
    53   29   51 1   
    54   29   52 1   
    55   30   31 ar  
    56   30   53 1   
    57   31   54 1   
@<TRIPOS>SUBSTRUCTURE
     1 2DJ         1 TEMP              0 ****  ****    0 ROOT
