@<TRIPOS>MOLECULE
2DJ
   55    57     1     0     0
SMALL
bcc


@<TRIPOS>ATOM
      1 OXT         1.2410    1.2570   -2.6000 os        1 2DJ     -0.449200
      2 C           1.6660    0.3270   -1.6730 c         1 2DJ      0.724600
      3 O           2.3970    0.8180   -0.8210 o         1 2DJ     -0.533500
      4 CA          1.2320   -1.1220   -1.7220 c3        1 2DJ     -0.038700
      5 N           0.5880   -1.4820   -2.9460 na        1 2DJ     -0.074400
      6 CBB        -0.0100   -2.7080   -3.2660 ca        1 2DJ     -0.035200
      7 CAO         0.1450   -3.9820   -2.7010 ca        1 2DJ     -0.118000
      8 CAN        -0.5420   -5.0400   -3.2760 ca        1 2DJ     -0.152000
      9 CAW        -1.3710   -4.8420   -4.4020 ca        1 2DJ      0.099100
     10 OAT        -2.0800   -5.8560   -5.0210 os        1 2DJ     -0.324900
     11 CAA        -1.9300   -7.1600   -4.4740 c3        1 2DJ      0.112700
     12 CAP        -1.5400   -3.5810   -4.9840 ca        1 2DJ     -0.096000
     13 CBA        -0.8650   -2.5030   -4.4170 ca        1 2DJ     -0.091800
     14 CAQ        -0.8090   -1.0950   -4.7390 cc        1 2DJ     -0.047200
     15 CAZ         0.0440   -0.5000   -3.8110 cd        1 2DJ     -0.175300
     16 CAV         0.4200    0.8940   -3.6650 c         1 2DJ      0.774800
     17 OAF         0.1160    1.8620   -4.3540 o         1 2DJ     -0.540500
     18 NAS         1.0530    4.1690   -2.5630 n3        1 2DJ     -1.033700
     19 SBE         1.0000    5.7200   -2.2100 sy        1 2DJ      1.527200
     20 OAG         1.0690    5.8940   -0.8090 o         1 2DJ     -0.666300
     21 OAH        -0.0910    6.3230   -2.8770 o         1 2DJ     -0.666300
     22 CAY         2.4300    6.3280   -2.8840 ca        1 2DJ     -0.381500
     23 CAL         2.4580    6.8120   -4.1950 ca        1 2DJ     -0.017000
     24 CAJ         3.6270    7.3270   -4.7500 ca        1 2DJ     -0.159500
     25 CAX         4.8080    7.3750   -4.0000 ca        1 2DJ     -0.004300
     26 CBD         6.0960    7.9210   -4.5580 c3        1 2DJ     -0.018700
     27 CAC         6.5470    9.1090   -3.7120 c3        1 2DJ     -0.086767
     28 CAD         7.1670    6.8340   -4.5150 c3        1 2DJ     -0.086767
     29 CAB         5.9520    8.3910   -6.0000 c3        1 2DJ     -0.086767
     30 CAK         4.7810    6.8970   -2.6800 ca        1 2DJ     -0.159500
     31 CAM         3.6110    6.3840   -2.1350 ca        1 2DJ     -0.017000
     32 H2          2.1510   -1.7670   -1.5870 h1        1 2DJ      0.099700
     33 H3          0.5510   -1.2970   -0.8350 h1        1 2DJ      0.099700
     34 H4          0.7930   -4.1400   -1.8280 ha        1 2DJ      0.142000
     35 H5         -0.4330   -6.0450   -2.8400 ha        1 2DJ      0.145000
     36 H6         -2.2960   -7.1920   -3.4190 h1        1 2DJ      0.046367
     37 H7         -2.5790   -7.7920   -5.1340 h1        1 2DJ      0.046367
     38 H8         -0.8660   -7.4950   -4.5320 h1        1 2DJ      0.046367
     39 H9         -2.1870   -3.4540   -5.8630 ha        1 2DJ      0.162000
     40 H10        -1.3300   -0.5960   -5.5540 ha        1 2DJ      0.181000
     41 H11         0.6520    3.7680   -3.3770 hn        1 2DJ      0.459800
     42 H12         1.5290    6.7990   -4.7930 ha        1 2DJ      0.151500
     43 H13         3.6000    7.6990   -5.7850 ha        1 2DJ      0.139000
     44 H14         6.7200    8.7970   -2.6540 hc        1 2DJ      0.039144
     45 H15         7.5000    9.5250   -4.1200 hc        1 2DJ      0.039144
     46 H16         5.7710    9.9110   -3.7260 hc        1 2DJ      0.039144
     47 H17         7.3450    6.4970   -3.4660 hc        1 2DJ      0.039144
     48 H18         8.1250    7.2300   -4.9280 hc        1 2DJ      0.039144
     49 H19         6.8500    5.9550   -5.1240 hc        1 2DJ      0.039144
     50 H20         6.9320    8.7820   -6.3670 hc        1 2DJ      0.039144
     51 H21         5.6420    7.5470   -6.6610 hc        1 2DJ      0.039144
     52 H22         5.1980    9.2110   -6.0750 hc        1 2DJ      0.039144
     53 H23         5.6940    6.9310   -2.0660 ha        1 2DJ      0.139000
     54 H24         3.6010    6.0300   -1.0880 ha        1 2DJ      0.151500
     55 HAS2        1.4980    3.4850   -2.0000 hn        1 2DJ      0.459800
@<TRIPOS>BOND
     1    1    2 1   
     2    1   16 1   
     3    2    3 2   
     4    2    4 1   
     5    4    5 1   
     6    4   32 1   
     7    4   33 1   
     8    5    6 1   
     9    5   15 1   
    10    6    7 ar  
    11    6   13 ar  
    12    7    8 ar  
    13    7   34 1   
    14    8    9 ar  
    15    8   35 1   
    16    9   10 1   
    17    9   12 ar  
    18   10   11 1   
    19   11   36 1   
    20   11   37 1   
    21   11   38 1   
    22   12   13 ar  
    23   12   39 1   
    24   13   14 1   
    25   14   15 2   
    26   14   40 1   
    27   15   16 1   
    28   16   17 2   
    29   18   19 1   
    30   18   41 1   
    31   18   55 1   
    32   19   20 2   
    33   19   21 2   
    34   19   22 1   
    35   22   23 ar  
    36   22   31 ar  
    37   23   24 ar  
    38   23   42 1   
    39   24   25 ar  
    40   24   43 1   
    41   25   26 1   
    42   25   30 ar  
    43   26   27 1   
    44   26   28 1   
    45   26   29 1   
    46   27   44 1   
    47   27   45 1   
    48   27   46 1   
    49   28   47 1   
    50   28   48 1   
    51   28   49 1   
    52   29   50 1   
    53   29   51 1   
    54   29   52 1   
    55   30   31 ar  
    56   30   53 1   
    57   31   54 1   
@<TRIPOS>SUBSTRUCTURE
     1 2DJ         1 TEMP              0 ****  ****    0 ROOT
