@<TRIPOS>MOLECULE
2DK
   46    48     1     0     0
SMALL
bcc


@<TRIPOS>ATOM
      1 OXT         1.0620    1.6640   -2.4680 os        1 2DK     -0.452200
      2 C           1.4120    0.7140   -1.5280 c         1 2DK      0.724600
      3 O           1.9580    1.2100   -0.5490 o         1 2DK     -0.534500
      4 CA          1.1120   -0.7570   -1.7130 c3        1 2DK     -0.037700
      5 N           0.6980   -1.0910   -3.0390 na        1 2DK     -0.074400
      6 CAX         0.2580   -2.3370   -3.5060 ca        1 2DK     -0.035200
      7 CAH         0.4270   -3.6270   -2.9820 ca        1 2DK     -0.118000
      8 CAG        -0.0740   -4.6970   -3.7060 ca        1 2DK     -0.151000
      9 CAU        -0.7330   -4.4950   -4.9390 ca        1 2DK      0.100100
     10 OAQ        -1.2530   -5.5210   -5.7090 os        1 2DK     -0.324900
     11 CAA        -1.0780   -6.8410   -5.2080 c3        1 2DK      0.112700
     12 CAI        -0.9120   -3.2180   -5.4820 ca        1 2DK     -0.096000
     13 CAW        -0.4230   -2.1290   -4.7660 ca        1 2DK     -0.091800
     14 CAJ        -0.4330   -0.7040   -5.0110 cc        1 2DK     -0.046200
     15 CAV         0.2150   -0.1030   -3.9330 cd        1 2DK     -0.176300
     16 CAT         0.4500    1.3040   -3.6660 c         1 2DK      0.775800
     17 OAC         0.1800    2.2860   -4.3490 o         1 2DK     -0.542500
     18 NAP         0.7130    4.5510   -2.3410 n3        1 2DK     -1.032700
     19 SBA         0.6000    6.1060   -1.9890 s6        1 2DK      1.584800
     20 OAD        -0.4400    6.6810   -2.7720 o         1 2DK     -0.657800
     21 OAE         0.4820    6.2500   -0.5790 o         1 2DK     -0.657800
     22 NAY         2.0280    6.7750   -2.4570 n3        1 2DK     -0.817500
     23 CAM         2.2500    7.2820   -3.7850 c3        1 2DK      0.189800
     24 CAK         2.9820    8.6320   -3.8010 c3        1 2DK      0.117400
     25 OAR         4.1550    8.6030   -2.9950 os        1 2DK     -0.414600
     26 CAL         3.8810    8.2170   -1.6530 c3        1 2DK      0.117400
     27 CAN         3.1700    6.8580   -1.5860 c3        1 2DK      0.189800
     28 H2          0.3190   -1.0340   -0.9540 h1        1 2DK      0.099700
     29 H3          2.0500   -1.3380   -1.4630 h1        1 2DK      0.099700
     30 H4          0.9440   -3.7880   -2.0260 ha        1 2DK      0.142000
     31 H5          0.0480   -5.7150   -3.3060 ha        1 2DK      0.145000
     32 H6         -1.5970   -6.9640   -4.2270 h1        1 2DK      0.046700
     33 H7         -1.5620   -7.4790   -5.9920 h1        1 2DK      0.046700
     34 H8          0.0070   -7.0890   -5.1140 h1        1 2DK      0.046700
     35 H9         -1.4240   -3.0890   -6.4460 ha        1 2DK      0.163000
     36 H10        -0.8600   -0.1980   -5.8750 ha        1 2DK      0.181000
     37 H11         1.0800    3.8650   -1.7270 hn        1 2DK      0.459800
     38 H12         1.2560    7.4110   -4.3030 h1        1 2DK      0.058200
     39 H13         2.8680    6.5400   -4.3700 h1        1 2DK      0.058200
     40 H14         2.3060    9.4550   -3.4490 h1        1 2DK      0.056200
     41 H15         3.3580    8.8540   -4.8330 h1        1 2DK      0.056200
     42 H16         3.2680    9.0120   -1.1520 h1        1 2DK      0.056200
     43 H17         4.8910    8.1470   -1.1710 h1        1 2DK      0.056200
     44 H18         2.8390    6.6810   -0.5230 h1        1 2DK      0.058200
     45 H19         3.9150    6.0580   -1.8700 h1        1 2DK      0.058200
     46 HAP2        0.4280    4.1520   -3.2050 hn        1 2DK      0.459800
@<TRIPOS>BOND
     1    1    2 1   
     2    1   16 1   
     3    2    3 2   
     4    2    4 1   
     5    4    5 1   
     6    4   28 1   
     7    4   29 1   
     8    5    6 1   
     9    5   15 1   
    10    6    7 ar  
    11    6   13 ar  
    12    7    8 ar  
    13    7   30 1   
    14    8    9 ar  
    15    8   31 1   
    16    9   10 1   
    17    9   12 ar  
    18   10   11 1   
    19   11   32 1   
    20   11   33 1   
    21   11   34 1   
    22   12   13 ar  
    23   12   35 1   
    24   13   14 1   
    25   14   15 2   
    26   14   36 1   
    27   15   16 1   
    28   16   17 2   
    29   18   19 1   
    30   18   37 1   
    31   18   46 1   
    32   19   20 2   
    33   19   21 2   
    34   19   22 1   
    35   22   23 1   
    36   22   27 1   
    37   23   24 1   
    38   23   38 1   
    39   23   39 1   
    40   24   25 1   
    41   24   40 1   
    42   24   41 1   
    43   25   26 1   
    44   26   27 1   
    45   26   42 1   
    46   26   43 1   
    47   27   44 1   
    48   27   45 1   
@<TRIPOS>SUBSTRUCTURE
     1 2DK         1 TEMP              0 ****  ****    0 ROOT
