@<TRIPOS>MOLECULE
2DK
   45    47     1     0     0
SMALL
bcc


@<TRIPOS>ATOM
      1 OXT         0.1270   -0.4870    0.7940 o         1 2DK     -0.811800
      2 C           1.0530   -1.0040    0.1240 c         1 2DK      0.914600
      3 O           1.5080   -2.1730    0.2530 o         1 2DK     -0.811800
      4 CA          1.7590   -0.0980   -0.9460 c3        1 2DK     -0.129700
      5 N           1.0860   -0.0290   -2.2150 na        1 2DK      0.050600
      6 CAX         0.6600   -1.1220   -2.9700 ca        1 2DK     -0.051200
      7 CAH         0.7790   -2.5090   -2.7210 ca        1 2DK     -0.074000
      8 CAG         0.2820   -3.3810   -3.6630 ca        1 2DK     -0.186000
      9 CAU        -0.3430   -2.9040   -4.8460 ca        1 2DK      0.076100
     10 OAQ        -0.8060   -3.7630   -5.8390 os        1 2DK     -0.347900
     11 CAA        -1.1910   -5.0550   -5.3900 c3        1 2DK      0.120700
     12 CAI        -0.4930   -1.5500   -5.1100 ca        1 2DK     -0.128000
     13 CAW         0.0120   -0.6380   -4.1720 ca        1 2DK     -0.094800
     14 CAJ         0.0400    0.7880   -4.1020 cc        1 2DK     -0.180200
     15 CAV         0.7000    1.1260   -2.9020 cd        1 2DK     -0.149300
     16 CAT         1.0010    2.4980   -2.4600 c         1 2DK      0.742300
     17 OAC         2.0280    2.8370   -1.8440 o         1 2DK     -0.593100
     18 NAP         0.0790    3.4910   -2.8220 n         1 2DK     -0.683300
     19 SBA         0.1970    5.1180   -2.5810 s6        1 2DK      1.577500
     20 OAD        -0.8460    5.6940   -3.3670 o         1 2DK     -0.646800
     21 OAE         0.1560    5.4520   -1.2120 o         1 2DK     -0.646800
     22 NAY         1.6370    5.5540   -3.2070 n3        1 2DK     -0.810500
     23 CAM         1.8090    5.9600   -4.5770 c3        1 2DK      0.189300
     24 CAK         2.6940    7.2080   -4.7150 c3        1 2DK      0.117900
     25 OAR         3.9210    7.0720   -4.0080 os        1 2DK     -0.418600
     26 CAL         3.7290    6.7510   -2.6330 c3        1 2DK      0.117900
     27 CAN         2.8650    5.4970   -2.4510 c3        1 2DK      0.189300
     28 H2          1.8410    0.9400   -0.5230 h1        1 2DK      0.061200
     29 H3          2.7910   -0.5100   -1.1270 h1        1 2DK      0.061200
     30 H4          1.2370   -2.8560   -1.7720 ha        1 2DK      0.207000
     31 H5          0.3650   -4.4640   -3.4930 ha        1 2DK      0.129000
     32 H6         -1.8170   -4.9980   -4.4670 h1        1 2DK      0.033700
     33 H7         -1.7830   -5.4720   -6.2430 h1        1 2DK      0.033700
     34 H8         -0.2850   -5.6830   -5.2050 h1        1 2DK      0.033700
     35 H9         -0.9850   -1.2040   -6.0270 ha        1 2DK      0.134000
     36 H10        -0.3530    1.4750   -4.8440 ha        1 2DK      0.140000
     37 H11        -0.7410    3.1360   -3.2700 hn        1 2DK      0.348500
     38 H12         0.8000    6.1830   -5.0300 h1        1 2DK      0.069950
     39 H13         2.2900    5.1210   -5.1590 h1        1 2DK      0.069950
     40 H14         3.0010    7.3430   -5.7850 h1        1 2DK      0.051950
     41 H15         2.1530    8.1210   -4.3510 h1        1 2DK      0.051950
     42 H16         3.2740    7.6320   -2.1070 h1        1 2DK      0.051950
     43 H17         4.7640    6.5610   -2.2460 h1        1 2DK      0.051950
     44 H18         2.6190    5.3720   -1.3570 h1        1 2DK      0.069950
     45 H19         3.4590    4.5940   -2.7780 h1        1 2DK      0.069950
@<TRIPOS>BOND
     1    1    2 1   
     2    2    3 1   
     3    2    4 1   
     4    4    5 1   
     5    4   28 1   
     6    4   29 1   
     7    5    6 1   
     8    5   15 1   
     9    6    7 ar  
    10    6   13 ar  
    11    7    8 ar  
    12    7   30 1   
    13    8    9 ar  
    14    8   31 1   
    15    9   10 1   
    16    9   12 ar  
    17   10   11 1   
    18   11   32 1   
    19   11   33 1   
    20   11   34 1   
    21   12   13 ar  
    22   12   35 1   
    23   13   14 1   
    24   14   15 2   
    25   14   36 1   
    26   15   16 1   
    27   16   17 2   
    28   16   18 1   
    29   18   19 1   
    30   18   37 1   
    31   19   20 2   
    32   19   21 2   
    33   19   22 1   
    34   22   23 1   
    35   22   27 1   
    36   23   24 1   
    37   23   38 1   
    38   23   39 1   
    39   24   25 1   
    40   24   40 1   
    41   24   41 1   
    42   25   26 1   
    43   26   27 1   
    44   26   42 1   
    45   26   43 1   
    46   27   44 1   
    47   27   45 1   
@<TRIPOS>SUBSTRUCTURE
     1 2DK         1 TEMP              0 ****  ****    0 ROOT
