@<TRIPOS>MOLECULE
2DK
   46    48     1     0     0
SMALL
bcc


@<TRIPOS>ATOM
      1 OXT         1.1010    1.6570   -2.4740 os        1 2DK     -0.452200
      2 C           1.4940    0.7060   -1.5530 c         1 2DK      0.724600
      3 O           2.0740    1.2010   -0.5930 o         1 2DK     -0.534500
      4 CA          1.1980   -0.7670   -1.7330 c3        1 2DK     -0.037700
      5 N           0.7350   -1.0980   -3.0440 na        1 2DK     -0.074400
      6 CAX         0.2860   -2.3450   -3.4990 ca        1 2DK     -0.035200
      7 CAH         0.4860   -3.6360   -2.9890 ca        1 2DK     -0.118000
      8 CAG        -0.0350   -4.7070   -3.6990 ca        1 2DK     -0.151000
      9 CAU        -0.7430   -4.5050   -4.9040 ca        1 2DK      0.100100
     10 OAQ        -1.2850   -5.5300   -5.6570 os        1 2DK     -0.324900
     11 CAA        -1.0810   -6.8510   -5.1710 c3        1 2DK      0.112700
     12 CAI        -0.9530   -3.2260   -5.4330 ca        1 2DK     -0.096000
     13 CAW        -0.4440   -2.1360   -4.7310 ca        1 2DK     -0.091800
     14 CAJ        -0.4750   -0.7100   -4.9680 cc        1 2DK     -0.046200
     15 CAV         0.2100   -0.1100   -3.9140 cd        1 2DK     -0.176300
     16 CAT         0.4440    1.2980   -3.6480 c         1 2DK      0.775800
     17 OAC         0.1400    2.2810   -4.3160 o         1 2DK     -0.542500
     18 NAP         0.7280    4.5400   -2.3160 n8        1 2DK     -1.032700
     19 SBA         0.6090    6.0910   -1.9490 s6        1 2DK      1.584800
     20 OAD        -0.4690    6.6570   -2.6860 o         1 2DK     -0.657800
     21 OAE         0.5440    6.2250   -0.5340 o         1 2DK     -0.657800
     22 NAY         2.0080    6.7820   -2.4680 n3        1 2DK     -0.817500
     23 CAM         2.1710    7.3010   -3.8000 c3        1 2DK      0.189800
     24 CAK         2.8850    8.6600   -3.8340 c3        1 2DK      0.117400
     25 OAR         4.0890    8.6420   -3.0750 os        1 2DK     -0.414600
     26 CAL         3.8730    8.2430   -1.7260 c3        1 2DK      0.117400
     27 CAN         3.1830    6.8740   -1.6420 c3        1 2DK      0.189800
     28 H2          0.4370   -1.0540   -0.9450 h1        1 2DK      0.099700
     29 H3          2.1500   -1.3420   -1.5240 h1        1 2DK      0.099700
     30 H4          1.0410   -3.7970   -2.0540 ha        1 2DK      0.142000
     31 H5          0.1110   -5.7250   -3.3080 ha        1 2DK      0.145000
     32 H6          0.0090   -7.0920   -5.1200 h1        1 2DK      0.046700
     33 H7         -1.5900   -7.4890   -5.9380 h1        1 2DK      0.046700
     34 H8         -1.5600   -6.9820   -4.1700 h1        1 2DK      0.046700
     35 H9         -1.5040   -3.0960   -6.3750 ha        1 2DK      0.163000
     36 H10        -0.9400   -0.2040   -5.8120 ha        1 2DK      0.181000
     37 H11         0.4150    4.1430   -3.1710 hn        1 2DK      0.459800
     38 H12         1.1560    7.4200   -4.2780 h1        1 2DK      0.058200
     39 H13         2.7750    6.5710   -4.4140 h1        1 2DK      0.058200
     40 H14         2.2130    9.4720   -3.4510 h1        1 2DK      0.056200
     41 H15         3.2170    8.8940   -4.8790 h1        1 2DK      0.056200
     42 H16         3.2690    9.0260   -1.1960 h1        1 2DK      0.056200
     43 H17         4.9020    8.1830   -1.2850 h1        1 2DK      0.056200
     44 H18         2.8950    6.6860   -0.5670 h1        1 2DK      0.058200
     45 H19         3.9250    6.0860   -1.9600 h1        1 2DK      0.058200
     46 HAP2        1.1270    3.8550   -1.7200 hn        1 2DK      0.459800
@<TRIPOS>BOND
     1    1    2 1   
     2    1   16 1   
     3    2    3 2   
     4    2    4 1   
     5    4    5 1   
     6    4   28 1   
     7    4   29 1   
     8    5    6 1   
     9    5   15 1   
    10    6    7 ar  
    11    6   13 ar  
    12    7    8 ar  
    13    7   30 1   
    14    8    9 ar  
    15    8   31 1   
    16    9   10 1   
    17    9   12 ar  
    18   10   11 1   
    19   11   32 1   
    20   11   33 1   
    21   11   34 1   
    22   12   13 ar  
    23   12   35 1   
    24   13   14 1   
    25   14   15 2   
    26   14   36 1   
    27   15   16 1   
    28   16   17 2   
    29   18   19 1   
    30   18   37 1   
    31   18   46 1   
    32   19   20 2   
    33   19   21 2   
    34   19   22 1   
    35   22   23 1   
    36   22   27 1   
    37   23   24 1   
    38   23   38 1   
    39   23   39 1   
    40   24   25 1   
    41   24   40 1   
    42   24   41 1   
    43   25   26 1   
    44   26   27 1   
    45   26   42 1   
    46   26   43 1   
    47   27   44 1   
    48   27   45 1   
@<TRIPOS>SUBSTRUCTURE
     1 2DK         1 TEMP              0 ****  ****    0 ROOT
