@<TRIPOS>MOLECULE
2DL
   34    34     1     0     0
SMALL
bcc


@<TRIPOS>ATOM
      1 C1          0.1700    0.3390   -0.4540 ca        1 2DL      0.192100
      2 C2          1.4310   -0.1280    0.0410 ca        1 2DL      0.117100
      3 C3          1.6610   -0.1720    1.4090 ca        1 2DL     -0.164000
      4 C4          0.6520    0.2470    2.3010 ca        1 2DL     -0.221600
      5 C5         -0.5680    0.7320    1.8150 ca        1 2DL     -0.022000
      6 C6         -0.8120    0.7660    0.4430 ca        1 2DL     -0.211000
      7 O7          0.0170    0.3360   -1.8040 oh        1 2DL     -0.438100
      8 C9          3.5410   -1.5400    5.8390 c3        1 2DL     -0.129600
      9 C10         2.6150   -0.4550    5.3340 c3        1 2DL      0.113800
     10 C12         0.6660   -1.9580    4.8780 c3        1 2DL      0.113800
     11 C13        -0.0520   -1.5610    6.1500 c3        1 2DL     -0.129600
     12 C14         0.8360    0.2490    3.7510 c         1 2DL      0.579700
     13 O15         0.4100    1.0600    4.5620 o         1 2DL     -0.431100
     14 O16         2.3190   -0.5160   -0.9300 os        1 2DL     -0.281900
     15 N3          1.6140   -0.9320    4.3280 n4        1 2DL     -0.599200
     16 C15         3.6480   -0.8060   -0.5050 c3        1 2DL      0.103700
     17 H6         -1.7780    1.1420    0.0670 ha        1 2DL      0.171000
     18 H7         -0.8630    0.6920   -2.0220 ho        1 2DL      0.445000
     19 H3          2.6490   -0.4870    1.7740 ha        1 2DL      0.136000
     20 H5         -1.3400    1.0920    2.5160 ha        1 2DL      0.167000
     21 H91C        2.9890   -2.3060    6.4380 hc        1 2DL      0.077033
     22 H92C        4.3020   -1.0600    6.5060 hc        1 2DL      0.077033
     23 H93C        4.0810   -2.0510    5.0050 hc        1 2DL      0.077033
     24 H101        2.0430    0.0070    6.1910 hx        1 2DL      0.102700
     25 H102        3.2150    0.3600    4.8350 hx        1 2DL      0.102700
     26 H121       -0.0870   -2.1700    4.0650 hx        1 2DL      0.102700
     27 H122        1.2680   -2.8950    5.0640 hx        1 2DL      0.102700
     28 H131       -0.5480   -0.5630    6.0570 hc        1 2DL      0.077033
     29 H132        0.6460   -1.5360    7.0220 hc        1 2DL      0.077033
     30 H133       -0.8400   -2.3300    6.3550 hc        1 2DL      0.077033
     31 H151        4.1810   -1.0080   -1.4710 h1        1 2DL      0.056367
     32 H152        3.6600   -1.7120    0.1480 h1        1 2DL      0.056367
     33 H153        4.0990    0.0710    0.0200 h1        1 2DL      0.056367
     34 H31         2.1240   -1.3870    3.5600 hn        1 2DL      0.446800
@<TRIPOS>BOND
     1    1    2 ar  
     2    1    6 ar  
     3    1    7 1   
     4    2    3 ar  
     5    2   14 1   
     6    3    4 ar  
     7    3   19 1   
     8    4    5 ar  
     9    4   12 1   
    10    5    6 ar  
    11    5   20 1   
    12    6   17 1   
    13    7   18 1   
    14    8    9 1   
    15    8   21 1   
    16    8   22 1   
    17    8   23 1   
    18    9   15 1   
    19    9   24 1   
    20    9   25 1   
    21   10   11 1   
    22   10   15 1   
    23   10   26 1   
    24   10   27 1   
    25   11   28 1   
    26   11   29 1   
    27   11   30 1   
    28   12   13 2   
    29   12   15 1   
    30   14   16 1   
    31   15   34 1   
    32   16   31 1   
    33   16   32 1   
    34   16   33 1   
@<TRIPOS>SUBSTRUCTURE
     1 2DL         1 TEMP              0 ****  ****    0 ROOT
