@<TRIPOS>MOLECULE
2DL
   33    30     1     0     0
SMALL
bcc


@<TRIPOS>ATOM
      1 C1         -1.3390    0.1160   -3.0550 c1        1 2DL      0.091600
      2 C2          0.0470    0.0440   -3.0800 c1        1 2DL      0.056600
      3 C3          0.7520   -0.0840   -1.9000 c1        1 2DL     -0.021500
      4 C4          0.0740   -0.1400   -0.6840 cg        1 2DL     -0.094200
      5 C5         -1.3040   -0.0690   -0.6590 c1        1 2DL     -0.020500
      6 C6         -2.0140    0.0590   -1.8430 c1        1 2DL     -0.146500
      7 O7         -2.0460    0.1490   -4.2350 oh        1 2DL     -0.474600
      8 C9          0.7790    2.0350    2.9190 c3        1 2DL     -0.121600
      9 C10        -0.3470    1.2410    2.3490 c3        1 2DL      0.089500
     10 C12        -0.0290   -1.2690    2.7190 c3        1 2DL      0.089500
     11 C13         0.1630   -0.9080    4.1860 c3        1 2DL     -0.121600
     12 C14         0.8610   -0.1810    0.6320 c         1 2DL      0.621300
     13 O15         2.0650   -0.1660    0.6130 o         1 2DL     -0.593100
     14 O16         0.7530    0.1800   -4.3260 os        1 2DL     -0.312400
     15 N3          0.1610   -0.0770    1.8890 n         1 2DL     -0.467800
     16 C15         1.2190   -1.0720   -4.8750 c3        1 2DL      0.113700
     17 H6         -2.9960    0.1100   -1.8240 ha        1 2DL      0.081500
     18 H7         -2.3490    0.9590   -4.3700 ho        1 2DL      0.422000
     19 H3          1.7140   -0.1340   -1.9180 ha        1 2DL      0.103500
     20 H5         -1.7710   -0.1080    0.1790 ha        1 2DL      0.087500
     21 H91C        1.0730    2.7020    2.2610 hc        1 2DL      0.043200
     22 H92C        1.5220    1.4390    3.1330 hc        1 2DL      0.043200
     23 H93C        0.4810    2.4870    3.7290 hc        1 2DL      0.043200
     24 H101       -1.0290    1.1060    3.0330 h1        1 2DL      0.055200
     25 H102       -0.7410    1.7310    1.5810 h1        1 2DL      0.055200
     26 H121        0.6370   -1.9610    2.4600 h1        1 2DL      0.055200
     27 H122       -0.9410   -1.6220    2.5830 h1        1 2DL      0.055200
     28 H131       -0.4840   -1.3890    4.7250 hc        1 2DL      0.043200
     29 H132        0.0350    0.0530    4.3060 hc        1 2DL      0.043200
     30 H133        1.0790   -1.1570    4.4700 hc        1 2DL      0.043200
     31 H151        0.5020   -1.7510   -4.8070 h1        1 2DL      0.046367
     32 H152        1.4620   -0.9440   -5.8200 h1        1 2DL      0.046367
     33 H153        2.0120   -1.3780   -4.3690 h1        1 2DL      0.046367
@<TRIPOS>BOND
     1    1    6 3   
     2    1    7 1   
     3    2    3 3   
     4    2   14 1   
     5    3   19 1   
     6    4    5 3   
     7    4   12 1   
     8    5   20 1   
     9    6   17 1   
    10    7   18 1   
    11    8    9 1   
    12    8   21 1   
    13    8   22 1   
    14    8   23 1   
    15    9   15 1   
    16    9   24 1   
    17    9   25 1   
    18   10   11 1   
    19   10   15 1   
    20   10   26 1   
    21   10   27 1   
    22   11   28 1   
    23   11   29 1   
    24   11   30 1   
    25   12   13 2   
    26   12   15 1   
    27   14   16 1   
    28   16   31 1   
    29   16   32 1   
    30   16   33 1   
@<TRIPOS>SUBSTRUCTURE
     1 2DL         1 TEMP              0 ****  ****    0 ROOT
