@<TRIPOS>MOLECULE
2DL
   33    33     1     0     0
SMALL
bcc


@<TRIPOS>ATOM
      1 C1         -2.6270    1.0280   -0.1900 ca        1 2DL      0.130100
      2 C2         -2.3270   -0.2990    0.2010 ca        1 2DL      0.032100
      3 C3         -1.0300   -0.7940    0.0700 ca        1 2DL     -0.115000
      4 C4         -0.0270    0.0390   -0.4400 ca        1 2DL     -0.140600
      5 C5         -0.3220    1.3460   -0.8320 ca        1 2DL     -0.095000
      6 C6         -1.6160    1.8460   -0.7100 ca        1 2DL     -0.149000
      7 O7         -3.8820    1.5710   -0.0750 oh        1 2DL     -0.492100
      8 C9          4.1720   -1.5120    0.7630 c3        1 2DL     -0.114600
      9 C10         3.7530   -0.4810   -0.2750 c3        1 2DL      0.090500
     10 C12         2.3310    1.1550    0.8950 c3        1 2DL      0.090500
     11 C13         2.8650    2.5050    0.4320 c3        1 2DL     -0.114600
     12 C14         1.3340   -0.5440   -0.6250 c         1 2DL      0.673700
     13 O15         1.4820   -1.5950   -1.2840 o         1 2DL     -0.604100
     14 O16        -3.3930   -1.0110    0.7280 os        1 2DL     -0.348900
     15 N3          2.4400    0.0960   -0.0790 n         1 2DL     -0.471800
     16 C15        -3.2320   -2.4260    0.7580 c3        1 2DL      0.118700
     17 H6         -1.8610    2.8720   -1.0190 ha        1 2DL      0.157000
     18 H7         -4.4830    0.8780    0.2420 ho        1 2DL      0.440000
     19 H3         -0.7880   -1.8310    0.3450 ha        1 2DL      0.156000
     20 H5          0.4710    1.9880   -1.2480 ha        1 2DL      0.145000
     21 H91C        5.1990   -1.8740    0.5160 hc        1 2DL      0.041200
     22 H92C        4.1870   -1.0750    1.7900 hc        1 2DL      0.041200
     23 H93C        3.4750   -2.3840    0.7560 hc        1 2DL      0.041200
     24 H101        4.5010    0.3630   -0.2760 h1        1 2DL      0.054450
     25 H102        3.7720   -0.9700   -1.2920 h1        1 2DL      0.054450
     26 H121        2.9050    0.8470    1.8190 h1        1 2DL      0.054450
     27 H122        1.2520    1.2820    1.1950 h1        1 2DL      0.054450
     28 H131        3.9540    2.4520    0.1950 hc        1 2DL      0.041200
     29 H132        2.3250    2.8660   -0.4750 hc        1 2DL      0.041200
     30 H133        2.7160    3.2460    1.2540 hc        1 2DL      0.041200
     31 H151       -2.9260   -2.8160   -0.2430 h1        1 2DL      0.048700
     32 H152       -2.4820   -2.7090    1.5350 h1        1 2DL      0.048700
     33 H153       -4.2500   -2.7980    1.0390 h1        1 2DL      0.048700
@<TRIPOS>BOND
     1    1    2 ar  
     2    1    6 ar  
     3    1    7 1   
     4    2    3 ar  
     5    2   14 1   
     6    3    4 ar  
     7    3   19 1   
     8    4    5 ar  
     9    4   12 1   
    10    5    6 ar  
    11    5   20 1   
    12    6   17 1   
    13    7   18 1   
    14    8    9 1   
    15    8   21 1   
    16    8   22 1   
    17    8   23 1   
    18    9   15 1   
    19    9   24 1   
    20    9   25 1   
    21   10   11 1   
    22   10   15 1   
    23   10   26 1   
    24   10   27 1   
    25   11   28 1   
    26   11   29 1   
    27   11   30 1   
    28   12   13 2   
    29   12   15 1   
    30   14   16 1   
    31   16   31 1   
    32   16   32 1   
    33   16   33 1   
@<TRIPOS>SUBSTRUCTURE
     1 2DL         1 TEMP              0 ****  ****    0 ROOT
