@<TRIPOS>MOLECULE
2DL
   34    34     1     0     0
SMALL
bcc


@<TRIPOS>ATOM
      1 C1          0.1630    0.3450   -0.4500 ca        1 2DL      0.192100
      2 C2          1.4260   -0.1200    0.0430 ca        1 2DL      0.117100
      3 C3          1.6580   -0.1670    1.4110 ca        1 2DL     -0.164000
      4 C4          0.6490    0.2460    2.3050 ca        1 2DL     -0.221600
      5 C5         -0.5730    0.7300    1.8210 ca        1 2DL     -0.022000
      6 C6         -0.8190    0.7670    0.4500 ca        1 2DL     -0.211000
      7 O7          0.0090    0.3460   -1.8000 oh        1 2DL     -0.438100
      8 C9          3.5470   -1.5400    5.8360 c3        1 2DL     -0.129600
      9 C10         2.6160   -0.4570    5.3350 c3        1 2DL      0.113800
     10 C12         0.6740   -1.9670    4.8730 c3        1 2DL      0.113800
     11 C13        -0.0460   -1.5770    6.1460 c3        1 2DL     -0.129600
     12 C14         0.8350    0.2450    3.7540 c         1 2DL      0.579700
     13 O15         0.4060    1.0520    4.5680 o         1 2DL     -0.431100
     14 O16         2.3140   -0.5020   -0.9310 os        1 2DL     -0.281900
     15 N3          1.6180   -0.9350    4.3270 nx        1 2DL     -0.599200
     16 C15         3.6450   -0.7910   -0.5080 c3        1 2DL      0.103700
     17 H6         -1.7860    1.1410    0.0760 ha        1 2DL      0.171000
     18 H7         -0.8720    0.7010   -2.0150 ho        1 2DL      0.445000
     19 H3          2.6480   -0.4800    1.7730 ha        1 2DL      0.136000
     20 H5         -1.3450    1.0850    2.5250 ha        1 2DL      0.167000
     21 H91C        2.9990   -2.3100    6.4320 hc        1 2DL      0.077033
     22 H92C        4.0900   -2.0450    5.0000 hc        1 2DL      0.077033
     23 H93C        4.3060   -1.0590    6.5050 hc        1 2DL      0.077033
     24 H101        2.0420   -0.0010    6.1940 hx        1 2DL      0.102700
     25 H102        3.2130    0.3630    4.8400 hx        1 2DL      0.102700
     26 H121       -0.0780   -2.1800    4.0590 hx        1 2DL      0.102700
     27 H122        1.2800   -2.9020    5.0560 hx        1 2DL      0.102700
     28 H131       -0.8310   -2.3500    6.3480 hc        1 2DL      0.077033
     29 H132       -0.5470   -0.5810    6.0570 hc        1 2DL      0.077033
     30 H133        0.6520   -1.5520    7.0180 hc        1 2DL      0.077033
     31 H151        4.0940    0.0850    0.0190 h1        1 2DL      0.056367
     32 H152        3.6590   -1.6990    0.1420 h1        1 2DL      0.056367
     33 H153        4.1770   -0.9890   -1.4750 h1        1 2DL      0.056367
     34 H31         2.1300   -1.3840    3.5580 hn        1 2DL      0.446800
@<TRIPOS>BOND
     1    1    2 ar  
     2    1    6 ar  
     3    1    7 1   
     4    2    3 ar  
     5    2   14 1   
     6    3    4 ar  
     7    3   19 1   
     8    4    5 ar  
     9    4   12 1   
    10    5    6 ar  
    11    5   20 1   
    12    6   17 1   
    13    7   18 1   
    14    8    9 1   
    15    8   21 1   
    16    8   22 1   
    17    8   23 1   
    18    9   15 1   
    19    9   24 1   
    20    9   25 1   
    21   10   11 1   
    22   10   15 1   
    23   10   26 1   
    24   10   27 1   
    25   11   28 1   
    26   11   29 1   
    27   11   30 1   
    28   12   13 2   
    29   12   15 1   
    30   14   16 1   
    31   15   34 1   
    32   16   31 1   
    33   16   32 1   
    34   16   33 1   
@<TRIPOS>SUBSTRUCTURE
     1 2DL         1 TEMP              0 ****  ****    0 ROOT
