@<TRIPOS>MOLECULE
2DL
   34    34     1     0     0
SMALL
bcc


@<TRIPOS>ATOM
      1 C1          0.2190    0.3140   -0.4780 ca        1 2DL      0.192100
      2 C2          1.4790   -0.1250    0.0430 ca        1 2DL      0.117100
      3 C3          1.6830   -0.1650    1.4150 ca        1 2DL     -0.164000
      4 C4          0.6460    0.2310    2.2860 ca        1 2DL     -0.221600
      5 C5         -0.5740    0.6890    1.7750 ca        1 2DL     -0.022000
      6 C6         -0.7910    0.7190    0.3990 ca        1 2DL     -0.211000
      7 O7          0.0930    0.3100   -1.8310 oh        1 2DL     -0.438100
      8 C9          3.5010   -1.4920    5.8850 c3        1 2DL     -0.129600
      9 C10         2.5600   -0.4290    5.3620 c3        1 2DL      0.113800
     10 C12         0.6590   -1.9770    4.8590 c3        1 2DL      0.113800
     11 C13        -0.0980   -1.6000    6.1140 c3        1 2DL     -0.129600
     12 C14         0.8010    0.2350    3.7390 c         1 2DL      0.579700
     13 O15         0.3390    1.0360    4.5420 o         1 2DL     -0.431100
     14 O16         2.3960   -0.4920   -0.9110 os        1 2DL     -0.281900
     15 N3          1.5940   -0.9280    4.3320 n4        1 2DL     -0.599200
     16 C15         3.7220   -0.7540   -0.4580 c3        1 2DL      0.103700
     17 H6         -1.7560    1.0740    0.0040 ha        1 2DL      0.171000
     18 H7         -0.7890    0.6470   -2.0670 ho        1 2DL      0.445000
     19 H3          2.6700   -0.4590    1.8000 ha        1 2DL      0.136000
     20 H5         -1.3680    1.0310    2.4610 ha        1 2DL      0.167000
     21 H91C        2.9550   -2.2720    6.4700 hc        1 2DL      0.077033
     22 H92C        4.0720   -1.9870    5.0630 hc        1 2DL      0.077033
     23 H93C        4.2350   -0.9950    6.5700 hc        1 2DL      0.077033
     24 H101        1.9570    0.0170    6.2060 hx        1 2DL      0.102700
     25 H102        3.1510    0.4030    4.8780 hx        1 2DL      0.102700
     26 H121       -0.0700   -2.2070    4.0280 hx        1 2DL      0.102700
     27 H122        1.2790   -2.9000    5.0570 hx        1 2DL      0.102700
     28 H131       -0.8710   -2.3890    6.3000 hc        1 2DL      0.077033
     29 H132       -0.6160   -0.6150    6.0120 hc        1 2DL      0.077033
     30 H133        0.5800   -1.5600    7.0020 hc        1 2DL      0.077033
     31 H151        4.1430    0.1310    0.0760 h1        1 2DL      0.056367
     32 H152        3.7390   -1.6610    0.1940 h1        1 2DL      0.056367
     33 H153        4.2780   -0.9450   -1.4130 h1        1 2DL      0.056367
     34 H31         2.1330   -1.3680    3.5750 hn        1 2DL      0.446800
@<TRIPOS>BOND
     1    1    2 ar  
     2    1    6 ar  
     3    1    7 1   
     4    2    3 ar  
     5    2   14 1   
     6    3    4 ar  
     7    3   19 1   
     8    4    5 ar  
     9    4   12 1   
    10    5    6 ar  
    11    5   20 1   
    12    6   17 1   
    13    7   18 1   
    14    8    9 1   
    15    8   21 1   
    16    8   22 1   
    17    8   23 1   
    18    9   15 1   
    19    9   24 1   
    20    9   25 1   
    21   10   11 1   
    22   10   15 1   
    23   10   26 1   
    24   10   27 1   
    25   11   28 1   
    26   11   29 1   
    27   11   30 1   
    28   12   13 2   
    29   12   15 1   
    30   14   16 1   
    31   15   34 1   
    32   16   31 1   
    33   16   32 1   
    34   16   33 1   
@<TRIPOS>SUBSTRUCTURE
     1 2DL         1 TEMP              0 ****  ****    0 ROOT
