@<TRIPOS>MOLECULE
2DN
   44    47     1     0     0
SMALL
bcc


@<TRIPOS>ATOM
      1 OXT         0.5620   -3.0520   -0.2160 os        1 2DN     -0.475900
      2 C           0.0800   -2.0330   -0.8980 c         1 2DN      0.734600
      3 O          -1.1370   -1.8060   -0.9300 o         1 2DN     -0.671500
      4 CA          1.1530   -1.1980   -1.6040 c3        1 2DN     -0.041700
      5 N           0.7590   -0.6250   -2.8560 na        1 2DN     -0.042400
      6 CBB         0.4800    0.7280   -3.0880 ca        1 2DN     -0.045200
      7 CAJ         0.4300    1.8220   -2.2090 ca        1 2DN     -0.109000
      8 CAI         0.1310    3.0700   -2.7300 ca        1 2DN     -0.173000
      9 CAW        -0.1220    3.2360   -4.1090 ca        1 2DN      0.073100
     10 OAR        -0.3780    4.4780   -4.6820 os        1 2DN     -0.339900
     11 CAA        -0.9170    5.4560   -3.8030 c3        1 2DN      0.118700
     12 CAK        -0.0870    2.1670   -5.0040 ca        1 2DN     -0.105000
     13 CBA         0.2200    0.9030   -4.5020 ca        1 2DN     -0.078800
     14 CAL         0.3460   -0.3990   -5.1080 cc        1 2DN     -0.149200
     15 CAY         0.6620   -1.2980   -4.0880 cd        1 2DN     -0.101300
     16 CAV         0.8650   -2.7680   -4.2480 c         1 2DN      0.754700
     17 OAE         1.6630   -3.2050   -5.0940 o         1 2DN     -0.602500
     18 NAQ         0.1170   -3.5910   -3.4260 n         1 2DN     -0.653300
     19 SBD         0.3510   -5.2220   -3.0540 s6        1 2DN      2.005800
     20 OAF        -0.2130   -6.0220   -4.0530 o         1 2DN     -0.623200
     21 OAG         1.7310   -5.4340   -2.8430 o         1 2DN     -0.666800
     22 CAZ        -0.4220   -5.2320   -1.6290 ce        1 2DN     -0.954700
     23 SAS         0.0530   -4.7900   -0.1180 sx        1 2DN      0.837100
     24 NAO        -1.8000   -5.6660   -1.6250 ne        1 2DN     -0.123600
     25 NAN        -2.3250   -5.6300   -0.5040 nf        1 2DN     -0.195600
     26 CAX        -1.4180   -5.1540    0.5090 cf        1 2DN     -0.497800
     27 NAP        -1.8250   -4.9270    1.8310 n         1 2DN     -0.380100
     28 CAT        -1.6290   -5.8980    2.8170 c         1 2DN      0.641100
     29 OAC        -0.7400   -6.7670    2.7520 o         1 2DN     -0.598100
     30 CAB        -2.4840   -5.7710    4.0610 c3        1 2DN     -0.182100
     31 H2          2.0500   -1.8620   -1.7740 h1        1 2DN      0.082200
     32 H3          1.4450   -0.3690   -0.8990 h1        1 2DN      0.082200
     33 H4          0.6100    1.6930   -1.1330 ha        1 2DN      0.136000
     34 H5          0.0880    3.9380   -2.0570 ha        1 2DN      0.128000
     35 H6         -0.1170    5.8500   -3.1280 h1        1 2DN      0.035367
     36 H7         -1.7610    5.0420   -3.2010 h1        1 2DN      0.035367
     37 H8         -1.2780    6.2630   -4.4890 h1        1 2DN      0.035367
     38 H9         -0.2890    2.3220   -6.0720 ha        1 2DN      0.146000
     39 H10         0.2210   -0.6380   -6.1600 ha        1 2DN      0.165000
     40 H11        -0.6430   -3.1240   -2.9720 hn        1 2DN      0.342500
     41 H12        -2.6850   -4.4230    1.9050 hn        1 2DN      0.290500
     42 H13        -3.5540   -5.9610    3.8080 hc        1 2DN      0.056700
     43 H14        -2.1470   -6.5270    4.8100 hc        1 2DN      0.056700
     44 H15        -2.3890   -4.7520    4.5050 hc        1 2DN      0.056700
@<TRIPOS>BOND
     1    1    2 1   
     2    1   23 1   
     3    2    3 2   
     4    2    4 1   
     5    4    5 1   
     6    4   31 1   
     7    4   32 1   
     8    5    6 1   
     9    5   15 1   
    10    6    7 ar  
    11    6   13 ar  
    12    7    8 ar  
    13    7   33 1   
    14    8    9 ar  
    15    8   34 1   
    16    9   10 1   
    17    9   12 ar  
    18   10   11 1   
    19   11   35 1   
    20   11   36 1   
    21   11   37 1   
    22   12   13 ar  
    23   12   38 1   
    24   13   14 1   
    25   14   15 2   
    26   14   39 1   
    27   15   16 1   
    28   16   17 2   
    29   16   18 1   
    30   18   19 1   
    31   18   40 1   
    32   19   20 1   
    33   19   21 2   
    34   19   22 2   
    35   22   23 1   
    36   22   24 1   
    37   23   26 2   
    38   24   25 2   
    39   25   26 1   
    40   26   27 1   
    41   27   28 1   
    42   27   41 1   
    43   28   29 2   
    44   28   30 1   
    45   30   42 1   
    46   30   43 1   
    47   30   44 1   
@<TRIPOS>SUBSTRUCTURE
     1 2DN         1 TEMP              0 ****  ****    0 ROOT
