@<TRIPOS>MOLECULE
2DN
   45    47     1     0     0
SMALL
bcc


@<TRIPOS>ATOM
      1 OXT         1.1830   -3.4300   -1.2630 os        1 2DN     -0.459900
      2 C           1.7590   -2.4070   -0.6260 c         1 2DN      0.668100
      3 O           1.9020   -2.4800    0.5980 o         1 2DN     -0.558000
      4 CA          2.2660   -1.2840   -1.5210 c3        1 2DN     -0.012700
      5 N           1.4380   -0.9170   -2.6260 na        1 2DN     -0.032400
      6 CBB         0.4650    0.0990   -2.6060 ca        1 2DN     -0.041200
      7 CAJ         0.2570    1.1530   -1.7020 ca        1 2DN     -0.101000
      8 CAI        -0.7560    2.0570   -1.9730 ca        1 2DN     -0.156000
      9 CAW        -1.5600    1.9250   -3.1270 ca        1 2DN      0.100100
     10 OAR        -2.5640    2.8190   -3.4640 os        1 2DN     -0.329900
     11 CAA        -2.9700    3.7200   -2.4420 c3        1 2DN      0.114700
     12 CAK        -1.3770    0.8820   -4.0390 ca        1 2DN     -0.105000
     13 CBA        -0.3640   -0.0390   -3.7810 ca        1 2DN     -0.073800
     14 CAL         0.0960   -1.2170   -4.4760 cc        1 2DN     -0.125200
     15 CAY         1.1600   -1.7410   -3.7410 cd        1 2DN     -0.126300
     16 CAV         1.9620   -2.9350   -4.0670 c         1 2DN      0.671300
     17 OAE         3.1700   -3.0450   -3.8000 o         1 2DN     -0.553100
     18 NAQ         1.2820   -4.0180   -4.6740 nt        1 2DN     -0.683000
     19 SBD         0.3660   -6.0350   -3.1990 s4        1 2DN      2.189800
     20 OAF        -0.3680   -6.3030   -4.3120 o         1 2DN     -0.476900
     21 OAG         1.6570   -6.4810   -3.1810 o         1 2DN     -0.476900
     22 CAZ        -0.1970   -5.4660   -1.9540 ce        1 2DN     -1.093700
     23 SAS         0.4200   -4.8320   -0.5260 sx        1 2DN      0.914100
     24 NAO        -1.6940   -5.3640   -1.9000 ne        1 2DN     -0.146600
     25 NAN        -2.1110   -4.8760   -0.8590 nf        1 2DN     -0.098600
     26 CAX        -1.0770   -4.5160    0.0690 cf        1 2DN     -0.533800
     27 NAP        -1.3260   -3.8820    1.2910 ns        1 2DN     -0.393100
     28 CAT        -1.8150   -2.5630    1.3190 c         1 2DN      0.640100
     29 OAC        -1.6810   -1.7910    0.3550 o         1 2DN     -0.572100
     30 CAB        -2.4180   -2.0990    2.6230 c3        1 2DN     -0.178100
     31 H2          2.4180   -0.3770   -0.8670 h1        1 2DN      0.106200
     32 H3          3.2650   -1.6330   -1.9250 h1        1 2DN      0.106200
     33 H4          0.8700    1.2550   -0.7960 ha        1 2DN      0.142000
     34 H5         -0.9350    2.8840   -1.2700 ha        1 2DN      0.140000
     35 H6         -3.8650    4.2280   -2.8840 h1        1 2DN      0.044033
     36 H7         -2.1620    4.4630   -2.2340 h1        1 2DN      0.044033
     37 H8         -3.2480    3.1720   -1.5100 h1        1 2DN      0.044033
     38 H9         -2.0160    0.7990   -4.9280 ha        1 2DN      0.155000
     39 H10        -0.3120   -1.5950   -5.4100 ha        1 2DN      0.156000
     40 H11         1.8920   -4.6130   -5.2030 hn        1 2DN      0.299000
     41 H12        -1.7190   -4.4920    1.9800 hn        1 2DN      0.296500
     42 H13        -2.6950   -1.0210    2.5290 hc        1 2DN      0.065700
     43 H14        -1.6850   -2.2140    3.4560 hc        1 2DN      0.065700
     44 H15        -3.3360   -2.6900    2.8570 hc        1 2DN      0.065700
     45 HAQ2        0.4620   -3.7550   -5.1860 hn        1 2DN      0.299000
@<TRIPOS>BOND
     1    1    2 1   
     2    1   23 1   
     3    2    3 2   
     4    2    4 1   
     5    4    5 1   
     6    4   31 1   
     7    4   32 1   
     8    5    6 1   
     9    5   15 1   
    10    6    7 ar  
    11    6   13 ar  
    12    7    8 ar  
    13    7   33 1   
    14    8    9 ar  
    15    8   34 1   
    16    9   10 1   
    17    9   12 ar  
    18   10   11 1   
    19   11   35 1   
    20   11   36 1   
    21   11   37 1   
    22   12   13 ar  
    23   12   38 1   
    24   13   14 1   
    25   14   15 2   
    26   14   39 1   
    27   15   16 1   
    28   16   17 2   
    29   16   18 1   
    30   18   40 1   
    31   18   45 1   
    32   19   20 1   
    33   19   21 1   
    34   19   22 2   
    35   22   23 1   
    36   22   24 1   
    37   23   26 2   
    38   24   25 2   
    39   25   26 1   
    40   26   27 1   
    41   27   28 1   
    42   27   41 1   
    43   28   29 2   
    44   28   30 1   
    45   30   42 1   
    46   30   43 1   
    47   30   44 1   
@<TRIPOS>SUBSTRUCTURE
     1 2DN         1 TEMP              0 ****  ****    0 ROOT
