@<TRIPOS>MOLECULE
2DN
   45    47     1     0     0
SMALL
bcc


@<TRIPOS>ATOM
      1 OXT         1.1950   -3.4120   -1.2380 os        1 2DN     -0.459900
      2 C           1.7230   -2.3930   -0.5540 c         1 2DN      0.668100
      3 O           1.8150   -2.4910    0.6730 o         1 2DN     -0.558000
      4 CA          2.2450   -1.2400   -1.4010 c3        1 2DN     -0.012700
      5 N           1.4580   -0.8640   -2.5330 na        1 2DN     -0.032400
      6 CBB         0.4650    0.1320   -2.5330 ca        1 2DN     -0.041200
      7 CAJ         0.1970    1.1610   -1.6160 ca        1 2DN     -0.101000
      8 CAI        -0.8220    2.0520   -1.9100 ca        1 2DN     -0.156000
      9 CAW        -1.5730    1.9310   -3.1010 ca        1 2DN      0.100100
     10 OAR        -2.5790    2.8120   -3.4620 os        1 2DN     -0.329900
     11 CAA        -3.0460    3.6830   -2.4390 c3        1 2DN      0.114700
     12 CAK        -1.3290    0.9130   -4.0270 ca        1 2DN     -0.105000
     13 CBA        -0.3100    0.0060   -3.7460 ca        1 2DN     -0.073800
     14 CAL         0.2030   -1.1470   -4.4460 cc        1 2DN     -0.125200
     15 CAY         1.2440   -1.6670   -3.6770 cd        1 2DN     -0.126300
     16 CAV         2.0840   -2.8380   -3.9940 c         1 2DN      0.671300
     17 OAE         3.2810   -2.9310   -3.6770 o         1 2DN     -0.553100
     18 NAQ         1.4520   -3.9200   -4.6540 n         1 2DN     -0.683000
     19 SBD         0.5160   -5.9880   -3.2640 s4        1 2DN      2.189800
     20 OAF        -0.1640   -6.2450   -4.4130 o         1 2DN     -0.476900
     21 OAG         1.8140   -6.4090   -3.2000 o         1 2DN     -0.476900
     22 CAZ        -0.1120   -5.4580   -2.0320 ce        1 2DN     -1.093700
     23 SAS         0.4300   -4.8450   -0.5660 sx        1 2DN      0.914100
     24 NAO        -1.6110   -5.3860   -2.0420 ne        1 2DN     -0.146600
     25 NAN        -2.0820   -4.9310   -1.0080 nf        1 2DN     -0.098600
     26 CAX        -1.0970   -4.5720   -0.0290 cf        1 2DN     -0.533800
     27 NAP        -1.4110   -3.9710    1.1940 n         1 2DN     -0.393100
     28 CAT        -1.9280   -2.6620    1.2300 c         1 2DN      0.640100
     29 OAC        -1.7680   -1.8670    0.2900 o         1 2DN     -0.572100
     30 CAB        -2.5950   -2.2400    2.5160 c3        1 2DN     -0.178100
     31 H2          3.2680   -1.5600   -1.7700 h1        1 2DN      0.106200
     32 H3          2.3510   -0.3450   -0.7220 h1        1 2DN      0.106200
     33 H4          0.7680    1.2550   -0.6820 ha        1 2DN      0.142000
     34 H5         -1.0470    2.8590   -1.1980 ha        1 2DN      0.140000
     35 H6         -3.9300    4.1840   -2.9070 h1        1 2DN      0.044033
     36 H7         -2.2620    4.4370   -2.1800 h1        1 2DN      0.044033
     37 H8         -3.3520    3.1090   -1.5310 h1        1 2DN      0.044033
     38 H9         -1.9280    0.8380   -4.9450 ha        1 2DN      0.155000
     39 H10        -0.1570   -1.5120   -5.4040 ha        1 2DN      0.156000
     40 H11         2.0960   -4.4900   -5.1690 hn        1 2DN      0.299000
     41 H12        -1.8200   -4.6030    1.8520 hn        1 2DN      0.296500
     42 H13        -2.8900   -1.1660    2.4340 hc        1 2DN      0.065700
     43 H14        -1.8950   -2.3590    3.3780 hc        1 2DN      0.065700
     44 H15        -3.5100   -2.8540    2.6980 hc        1 2DN      0.065700
     45 HAQ2        0.6500   -3.6620   -5.1940 hn        1 2DN      0.299000
@<TRIPOS>BOND
     1    1    2 1   
     2    1   23 1   
     3    2    3 2   
     4    2    4 1   
     5    4    5 1   
     6    4   31 1   
     7    4   32 1   
     8    5    6 1   
     9    5   15 1   
    10    6    7 ar  
    11    6   13 ar  
    12    7    8 ar  
    13    7   33 1   
    14    8    9 ar  
    15    8   34 1   
    16    9   10 1   
    17    9   12 ar  
    18   10   11 1   
    19   11   35 1   
    20   11   36 1   
    21   11   37 1   
    22   12   13 ar  
    23   12   38 1   
    24   13   14 1   
    25   14   15 2   
    26   14   39 1   
    27   15   16 1   
    28   16   17 2   
    29   16   18 1   
    30   18   40 1   
    31   18   45 1   
    32   19   20 1   
    33   19   21 1   
    34   19   22 2   
    35   22   23 1   
    36   22   24 1   
    37   23   26 2   
    38   24   25 2   
    39   25   26 1   
    40   26   27 1   
    41   27   28 1   
    42   27   41 1   
    43   28   29 2   
    44   28   30 1   
    45   30   42 1   
    46   30   43 1   
    47   30   44 1   
@<TRIPOS>SUBSTRUCTURE
     1 2DN         1 TEMP              0 ****  ****    0 ROOT
