@<TRIPOS>MOLECULE
2DO
   24    23     1     0     0
SMALL
bcc


@<TRIPOS>ATOM
      1 N          -0.7900   -1.8990   -0.1480 n3        1 2DO     -0.892800
      2 CA         -0.7520   -0.4870    0.1710 c3        1 2DO      0.143500
      3 C          -2.0420    0.2200   -0.3320 c3        1 2DO      0.335900
      4 CB          0.4610    0.2790   -0.3770 c3        1 2DO     -0.122400
      5 CG          1.7640   -0.2630    0.1680 c3        1 2DO     -0.080400
      6 CD          2.9280    0.6270   -0.2170 c3        1 2DO     -0.079400
      7 CE          4.2350    0.0780    0.2970 c3        1 2DO     -0.094100
      8 O          -3.0870   -0.1270    0.5460 oh        1 2DO     -0.625300
      9 OXT        -1.9740    1.6250   -0.2560 oh        1 2DO     -0.625300
     10 H          -0.7200   -2.0420   -1.1370 hn        1 2DO      0.349300
     11 H2         -0.0320   -2.3720    0.3040 hn        1 2DO      0.349300
     12 HCA        -0.7490   -0.4040    1.3000 h1        1 2DO      0.074700
     13 HC         -2.2680   -0.0130   -1.4090 h2        1 2DO      0.071700
     14 HB2         0.3580    1.3610   -0.0960 hc        1 2DO      0.054200
     15 HB3         0.4660    0.2310   -1.4970 hc        1 2DO      0.054200
     16 HG2         1.9480   -1.2970   -0.2260 hc        1 2DO      0.038200
     17 HG3         1.7050   -0.3400    1.2860 hc        1 2DO      0.038200
     18 HD2         2.7640    1.6570    0.1960 hc        1 2DO      0.041200
     19 HD3         2.9710    0.7230   -1.3340 hc        1 2DO      0.041200
     20 HE1         5.0780    0.7510    0.0070 hc        1 2DO      0.034033
     21 HE2         4.2170   -0.0060    1.4100 hc        1 2DO      0.034033
     22 HE3         4.4320   -0.9360   -0.1280 hc        1 2DO      0.034033
     23 HO         -3.9120    0.1760    0.1480 ho        1 2DO      0.412500
     24 HXT        -1.8300    1.8670    0.6680 ho        1 2DO      0.412500
@<TRIPOS>BOND
     1    1    2 1   
     2    1   10 1   
     3    1   11 1   
     4    2    3 1   
     5    2    4 1   
     6    2   12 1   
     7    3    8 1   
     8    3    9 1   
     9    3   13 1   
    10    4    5 1   
    11    4   14 1   
    12    4   15 1   
    13    5    6 1   
    14    5   16 1   
    15    5   17 1   
    16    6    7 1   
    17    6   18 1   
    18    6   19 1   
    19    7   20 1   
    20    7   21 1   
    21    7   22 1   
    22    8   23 1   
    23    9   24 1   
@<TRIPOS>SUBSTRUCTURE
     1 2DO         1 TEMP              0 ****  ****    0 ROOT
