@<TRIPOS>MOLECULE
2DQ
   46    48     1     0     0
SMALL
bcc


@<TRIPOS>ATOM
      1 OXT        -0.5150   -0.4030    0.7750 o         1 2DQ     -0.812800
      2 C           0.4690   -1.0020    0.2800 c         1 2DQ      0.914600
      3 O           0.7980   -2.2010    0.4890 o         1 2DQ     -0.812800
      4 CA          1.4200   -0.1740   -0.6550 c3        1 2DQ     -0.128700
      5 N           0.9850   -0.0790   -2.0220 na        1 2DQ      0.049600
      6 CBA         0.6210   -1.1510   -2.8370 ca        1 2DQ     -0.052200
      7 CAM         0.6000   -2.5380   -2.5670 ca        1 2DQ     -0.074000
      8 CAL         0.2140   -3.3890   -3.5790 ca        1 2DQ     -0.187000
      9 CAW        -0.1640   -2.8870   -4.8530 ca        1 2DQ      0.075100
     10 OAS        -0.5070   -3.7280   -5.9090 os        1 2DQ     -0.347900
     11 CAB        -1.0600   -4.9800   -5.5300 c3        1 2DQ      0.120700
     12 CAN        -0.1740   -1.5300   -5.1420 ca        1 2DQ     -0.128000
     13 CAZ         0.2230   -0.6410   -4.1330 ca        1 2DQ     -0.093800
     14 CAO         0.3340    0.7820   -4.0610 cc        1 2DQ     -0.182200
     15 CAY         0.8010    1.0900   -2.7660 cd        1 2DQ     -0.147300
     16 CAU         1.1140    2.4470   -2.2810 c         1 2DQ      0.744300
     17 OAD         2.0730    2.7260   -1.5420 o         1 2DQ     -0.585100
     18 NAQ         0.2860    3.4770   -2.7540 n         1 2DQ     -0.681300
     19 SBC         0.4230    5.0980   -2.5420 sy        1 2DQ      1.518900
     20 OAE        -0.6400    5.6830   -3.2780 o         1 2DQ     -0.652300
     21 OAF         0.5030    5.4720   -1.1950 o         1 2DQ     -0.652300
     22 CAX         1.8680    5.4790   -3.3130 ca        1 2DQ     -0.420500
     23 CAJ         3.1000    5.2880   -2.6670 ca        1 2DQ      0.026000
     24 CAH         4.2950    5.6430   -3.2760 ca        1 2DQ     -0.215000
     25 CAV         4.2640    6.2000   -4.5690 ca        1 2DQ      0.181100
     26 OAR         5.4960    6.5250   -5.0930 os        1 2DQ     -0.323900
     27 CAA         5.5040    7.0430   -6.4180 c3        1 2DQ      0.112700
     28 CAI         3.0450    6.3970   -5.2350 ca        1 2DQ     -0.215000
     29 CAK         1.8640    6.0330   -4.5980 ca        1 2DQ      0.026000
     30 H2          1.5100    0.8630   -0.2310 h1        1 2DQ      0.060700
     31 H3          2.4320   -0.6670   -0.6500 h1        1 2DQ      0.060700
     32 H4          0.8620   -2.9010   -1.5520 ha        1 2DQ      0.207000
     33 H5          0.1910   -4.4720   -3.3950 ha        1 2DQ      0.128000
     34 H6         -1.5240   -5.3670   -6.4710 h1        1 2DQ      0.033367
     35 H7         -0.2500   -5.6700   -5.1870 h1        1 2DQ      0.033367
     36 H8         -1.8300   -4.8620   -4.7300 h1        1 2DQ      0.033367
     37 H9         -0.4760   -1.1650   -6.1310 ha        1 2DQ      0.133000
     38 H10         0.1220    1.4850   -4.8590 ha        1 2DQ      0.140000
     39 H11        -0.4970    3.1410   -3.2780 hn        1 2DQ      0.347500
     40 H12         3.1120    4.8330   -1.6570 ha        1 2DQ      0.168500
     41 H13         5.2590    5.4900   -2.7720 ha        1 2DQ      0.147500
     42 H14         4.9490    8.0110   -6.4650 h1        1 2DQ      0.045367
     43 H15         5.0660    6.3050   -7.1330 h1        1 2DQ      0.045367
     44 H16         6.5920    7.2000   -6.6290 h1        1 2DQ      0.045367
     45 H17         3.0120    6.8310   -6.2430 ha        1 2DQ      0.147500
     46 H18         0.8980    6.1950   -5.1100 ha        1 2DQ      0.168500
@<TRIPOS>BOND
     1    1    2 1   
     2    2    3 1   
     3    2    4 1   
     4    4    5 1   
     5    4   30 1   
     6    4   31 1   
     7    5    6 1   
     8    5   15 1   
     9    6    7 ar  
    10    6   13 ar  
    11    7    8 ar  
    12    7   32 1   
    13    8    9 ar  
    14    8   33 1   
    15    9   10 1   
    16    9   12 ar  
    17   10   11 1   
    18   11   34 1   
    19   11   35 1   
    20   11   36 1   
    21   12   13 ar  
    22   12   37 1   
    23   13   14 1   
    24   14   15 2   
    25   14   38 1   
    26   15   16 1   
    27   16   17 2   
    28   16   18 1   
    29   18   19 1   
    30   18   39 1   
    31   19   20 2   
    32   19   21 2   
    33   19   22 1   
    34   22   23 ar  
    35   22   29 ar  
    36   23   24 ar  
    37   23   40 1   
    38   24   25 ar  
    39   24   41 1   
    40   25   26 1   
    41   25   28 ar  
    42   26   27 1   
    43   27   42 1   
    44   27   43 1   
    45   27   44 1   
    46   28   29 ar  
    47   28   45 1   
    48   29   46 1   
@<TRIPOS>SUBSTRUCTURE
     1 2DQ         1 TEMP              0 ****  ****    0 ROOT
