@<TRIPOS>MOLECULE
2DQ
   47    49     1     0     0
SMALL
bcc


@<TRIPOS>ATOM
      1 OXT         1.2600    1.5570   -2.5750 os        1 2DQ     -0.449200
      2 C           1.6930    0.6410   -1.6370 c         1 2DQ      0.724600
      3 O           2.3630    1.1620   -0.7520 o         1 2DQ     -0.533500
      4 CA          1.3370   -0.8280   -1.7140 c3        1 2DQ     -0.037700
      5 N           0.7570   -1.2090   -2.9630 na        1 2DQ     -0.074400
      6 CBA         0.2350   -2.4600   -3.3150 ca        1 2DQ     -0.035200
      7 CAM         0.4300   -3.7290   -2.7520 ca        1 2DQ     -0.118000
      8 CAL        -0.1790   -4.8150   -3.3600 ca        1 2DQ     -0.151000
      9 CAW        -0.9730   -4.6490   -4.5170 ca        1 2DQ      0.099100
     10 OAS        -1.6050   -5.6920   -5.1710 os        1 2DQ     -0.324900
     11 CAB        -1.4130   -6.9910   -4.6260 c3        1 2DQ      0.112700
     12 CAN        -1.1810   -3.3930   -5.0980 ca        1 2DQ     -0.096000
     13 CAZ        -0.5830   -2.2880   -4.4970 ca        1 2DQ     -0.091800
     14 CAO        -0.5850   -0.8760   -4.8080 cc        1 2DQ     -0.048200
     15 CAY         0.2000   -0.2480   -3.8430 cd        1 2DQ     -0.175300
     16 CAU         0.5010    1.1620   -3.6740 c         1 2DQ      0.774800
     17 OAD         0.1760    2.1200   -4.3680 o         1 2DQ     -0.541500
     18 NAQ         0.9430    4.4540   -2.5230 n3        1 2DQ     -1.033700
     19 SBC         0.8180    6.0030   -2.1760 sy        1 2DQ      1.531200
     20 OAE         0.8470    6.1800   -0.7730 o         1 2DQ     -0.667300
     21 OAF        -0.2830    6.5580   -2.8700 o         1 2DQ     -0.667300
     22 CAX         2.2320    6.6700   -2.8180 ca        1 2DQ     -0.416500
     23 CAJ         3.3980    6.7550   -2.0440 ca        1 2DQ      0.016000
     24 CAH         4.5620    7.3140   -2.5490 ca        1 2DQ     -0.211500
     25 CAV         4.5650    7.8080   -3.8690 ca        1 2DQ      0.181100
     26 OAR         5.7640    8.3390   -4.2870 os        1 2DQ     -0.322900
     27 CAA         5.7950    8.8750   -5.6070 c3        1 2DQ      0.111700
     28 CAI         3.4080    7.7430   -4.6590 ca        1 2DQ     -0.211500
     29 CAK         2.2560    7.1760   -4.1210 ca        1 2DQ      0.016000
     30 H2          0.6340   -1.0470   -0.8540 h1        1 2DQ      0.099700
     31 H3          2.2840   -1.4250   -1.5500 h1        1 2DQ      0.099700
     32 H4          1.0510   -3.8620   -1.8550 ha        1 2DQ      0.142000
     33 H5         -0.0380   -5.8170   -2.9280 ha        1 2DQ      0.145000
     34 H6         -1.8190   -7.0480   -3.5860 h1        1 2DQ      0.046367
     35 H7         -0.3330   -7.2730   -4.6430 h1        1 2DQ      0.046367
     36 H8         -2.0030   -7.6490   -5.3140 h1        1 2DQ      0.046367
     37 H9         -1.7990   -3.2910   -6.0000 ha        1 2DQ      0.162000
     38 H10        -1.0980   -0.3970   -5.6400 ha        1 2DQ      0.181000
     39 H11         1.3970    3.7890   -1.9450 hn        1 2DQ      0.459300
     40 H12         3.3800    6.3840   -1.0030 ha        1 2DQ      0.154500
     41 H13         5.4760    7.3830   -1.9430 ha        1 2DQ      0.149000
     42 H14         6.8460    9.2480   -5.7090 h1        1 2DQ      0.048367
     43 H15         5.0650    9.7140   -5.7080 h1        1 2DQ      0.048367
     44 H16         5.5850    8.0770   -6.3600 h1        1 2DQ      0.048367
     45 H17         3.3970    8.1350   -5.6850 ha        1 2DQ      0.149000
     46 H18         1.3350    7.1380   -4.7310 ha        1 2DQ      0.154500
     47 HAQ2        0.5840    4.0360   -3.3490 hn        1 2DQ      0.459300
@<TRIPOS>BOND
     1    1    2 1   
     2    1   16 1   
     3    2    3 2   
     4    2    4 1   
     5    4    5 1   
     6    4   30 1   
     7    4   31 1   
     8    5    6 1   
     9    5   15 1   
    10    6    7 ar  
    11    6   13 ar  
    12    7    8 ar  
    13    7   32 1   
    14    8    9 ar  
    15    8   33 1   
    16    9   10 1   
    17    9   12 ar  
    18   10   11 1   
    19   11   34 1   
    20   11   35 1   
    21   11   36 1   
    22   12   13 ar  
    23   12   37 1   
    24   13   14 1   
    25   14   15 2   
    26   14   38 1   
    27   15   16 1   
    28   16   17 2   
    29   18   19 1   
    30   18   39 1   
    31   18   47 1   
    32   19   20 2   
    33   19   21 2   
    34   19   22 1   
    35   22   23 ar  
    36   22   29 ar  
    37   23   24 ar  
    38   23   40 1   
    39   24   25 ar  
    40   24   41 1   
    41   25   26 1   
    42   25   28 ar  
    43   26   27 1   
    44   27   42 1   
    45   27   43 1   
    46   27   44 1   
    47   28   29 ar  
    48   28   45 1   
    49   29   46 1   
@<TRIPOS>SUBSTRUCTURE
     1 2DQ         1 TEMP              0 ****  ****    0 ROOT
