@<TRIPOS>MOLECULE
2DQ
   47    49     1     0     0
SMALL
bcc


@<TRIPOS>ATOM
      1 OXT         1.2850    1.5650   -2.5580 os        1 2DQ     -0.449200
      2 C           1.7580    0.6510   -1.6370 c         1 2DQ      0.724600
      3 O           2.4570    1.1770   -0.7770 o         1 2DQ     -0.533500
      4 CA          1.4070   -0.8190   -1.6990 c3        1 2DQ     -0.037700
      5 N           0.7840   -1.2040   -2.9270 na        1 2DQ     -0.074400
      6 CBA         0.2560   -2.4580   -3.2580 ca        1 2DQ     -0.035200
      7 CAM         0.4790   -3.7260   -2.7030 ca        1 2DQ     -0.118000
      8 CAL        -0.1460   -4.8160   -3.2880 ca        1 2DQ     -0.151000
      9 CAW        -0.9820   -4.6550   -4.4150 ca        1 2DQ      0.099100
     10 OAS        -1.6310   -5.7020   -5.0450 os        1 2DQ     -0.324900
     11 CAB        -1.4120   -7.0000   -4.5070 c3        1 2DQ      0.112700
     12 CAN        -1.2180   -3.4010   -4.9880 ca        1 2DQ     -0.096000
     13 CAZ        -0.6050   -2.2920   -4.4100 ca        1 2DQ     -0.091800
     14 CAO        -0.6260   -0.8800   -4.7220 cc        1 2DQ     -0.048200
     15 CAY         0.1900   -0.2470   -3.7860 cd        1 2DQ     -0.175300
     16 CAU         0.4890    1.1650   -3.6280 c         1 2DQ      0.774800
     17 OAD         0.1340    2.1200   -4.3110 o         1 2DQ     -0.541500
     18 NAQ         0.9660    4.4610   -2.5010 n8        1 2DQ     -1.033700
     19 SBC         0.8550    6.0110   -2.1580 sy        1 2DQ      1.531200
     20 OAE         0.9390    6.1960   -0.7580 o         1 2DQ     -0.667300
     21 OAF        -0.2730    6.5640   -2.8110 o         1 2DQ     -0.667300
     22 CAX         2.2420    6.6750   -2.8580 ca        1 2DQ     -0.416500
     23 CAJ         3.4380    6.7630   -2.1310 ca        1 2DQ      0.016000
     24 CAH         4.5810    7.3180   -2.6850 ca        1 2DQ     -0.211500
     25 CAV         4.5320    7.8060   -4.0070 ca        1 2DQ      0.181100
     26 OAR         5.7140    8.3340   -4.4740 os        1 2DQ     -0.322900
     27 CAA         5.6930    8.8640   -5.7960 c3        1 2DQ      0.111700
     28 CAI         3.3440    7.7380   -4.7490 ca        1 2DQ     -0.211500
     29 CAK         2.2150    7.1740   -4.1640 ca        1 2DQ      0.016000
     30 H2          2.3620   -1.4110   -1.5700 h1        1 2DQ      0.099700
     31 H3          0.7370   -1.0410   -0.8140 h1        1 2DQ      0.099700
     32 H4          1.1330   -3.8550   -1.8290 ha        1 2DQ      0.142000
     33 H5          0.0170   -5.8160   -2.8600 ha        1 2DQ      0.145000
     34 H6         -1.7790   -7.0590   -3.4530 h1        1 2DQ      0.046367
     35 H7         -0.3310   -7.2760   -4.5640 h1        1 2DQ      0.046367
     36 H8         -2.0230   -7.6610   -5.1730 h1        1 2DQ      0.046367
     37 H9         -1.8690   -3.3030   -5.8680 ha        1 2DQ      0.162000
     38 H10        -1.1720   -0.4040   -5.5350 ha        1 2DQ      0.181000
     39 H11         1.4410    3.7980   -1.9380 hn        1 2DQ      0.459300
     40 H12         3.4610    6.3960   -1.0890 ha        1 2DQ      0.154500
     41 H13         5.5180    7.3890   -2.1160 ha        1 2DQ      0.149000
     42 H14         5.4530    8.0630   -6.5370 h1        1 2DQ      0.048367
     43 H15         6.7390    9.2360   -5.9410 h1        1 2DQ      0.048367
     44 H16         4.9600    9.7030   -5.8730 h1        1 2DQ      0.048367
     45 H17         3.2940    8.1250   -5.7760 ha        1 2DQ      0.149000
     46 H18         1.2710    7.1340   -4.7360 ha        1 2DQ      0.154500
     47 HAQ2        0.5750    4.0390   -3.3100 hn        1 2DQ      0.459300
@<TRIPOS>BOND
     1    1    2 1   
     2    1   16 1   
     3    2    3 2   
     4    2    4 1   
     5    4    5 1   
     6    4   30 1   
     7    4   31 1   
     8    5    6 1   
     9    5   15 1   
    10    6    7 ar  
    11    6   13 ar  
    12    7    8 ar  
    13    7   32 1   
    14    8    9 ar  
    15    8   33 1   
    16    9   10 1   
    17    9   12 ar  
    18   10   11 1   
    19   11   34 1   
    20   11   35 1   
    21   11   36 1   
    22   12   13 ar  
    23   12   37 1   
    24   13   14 1   
    25   14   15 2   
    26   14   38 1   
    27   15   16 1   
    28   16   17 2   
    29   18   19 1   
    30   18   39 1   
    31   18   47 1   
    32   19   20 2   
    33   19   21 2   
    34   19   22 1   
    35   22   23 ar  
    36   22   29 ar  
    37   23   24 ar  
    38   23   40 1   
    39   24   25 ar  
    40   24   41 1   
    41   25   26 1   
    42   25   28 ar  
    43   26   27 1   
    44   27   42 1   
    45   27   43 1   
    46   27   44 1   
    47   28   29 ar  
    48   28   45 1   
    49   29   46 1   
@<TRIPOS>SUBSTRUCTURE
     1 2DQ         1 TEMP              0 ****  ****    0 ROOT
