@<TRIPOS>MOLECULE
2DR
   19    19     1     0     0
SMALL
bcc


@<TRIPOS>ATOM
      1 C2         -1.1630   -0.4910   -0.9850 c3        1 2DR     -0.137400
      2 C3          0.1260   -0.4910   -0.9850 c3        1 2DR      0.122100
      3 C4          0.5270   -0.4910    0.5160 c3        1 2DR      0.103100
      4 C5          1.4880    0.4950    0.7620 c3        1 2DR      0.118400
      5 O1         -1.5610    1.6020    0.2470 oh        1 2DR     -0.623800
      6 O3          0.6420   -1.7170   -1.6560 oh        1 2DR     -0.589800
      7 O4         -0.7500   -0.1880    1.2870 os        1 2DR     -0.460600
      8 O5          1.7910    0.5240    2.1390 oh        1 2DR     -0.594800
      9 C1         -1.6060    0.2050    0.3810 c3        1 2DR      0.336900
     10 H21C       -1.4990   -1.4070   -1.0190 hc        1 2DR      0.076700
     11 H22C       -1.4990    0.0190   -1.7460 hc        1 2DR      0.076700
     12 H3          0.4660    0.3090   -1.4280 h1        1 2DR      0.052700
     13 H1         -2.5080   -0.0800    0.6250 h2        1 2DR      0.071700
     14 H4          0.8720   -1.3680    0.7710 h1        1 2DR      0.101700
     15 HA          1.0200   -1.4950   -2.4280 ho        1 2DR      0.406000
     16 H51C        1.1390    1.3650    0.4870 h1        1 2DR      0.054200
     17 H52C        2.2970    0.2950    0.2540 h1        1 2DR      0.054200
     18 H5          2.5490    0.9680    2.2660 ho        1 2DR      0.411000
     19 HB         -2.3330    1.9500    0.5130 ho        1 2DR      0.421000
@<TRIPOS>BOND
     1    1    2 1   
     2    1    9 1   
     3    1   10 1   
     4    1   11 1   
     5    2    3 1   
     6    2    6 1   
     7    2   12 1   
     8    3    4 1   
     9    3    7 1   
    10    3   14 1   
    11    4    8 1   
    12    4   16 1   
    13    4   17 1   
    14    5    9 1   
    15    5   19 1   
    16    6   15 1   
    17    7    9 1   
    18    8   18 1   
    19    9   13 1   
@<TRIPOS>SUBSTRUCTURE
     1 2DR         1 TEMP              0 ****  ****    0 ROOT
