@<TRIPOS>MOLECULE
2DR
   19    19     1     0     0
SMALL
bcc


@<TRIPOS>ATOM
      1 C2          0.1080   -0.3400   -0.0430 c3        1 2DR     -0.137400
      2 C3          1.6050   -0.0110   -0.1020 c3        1 2DR      0.122100
      3 C4          2.1040   -0.0640    1.3570 c3        1 2DR      0.103100
      4 C5          2.5870    1.3020    1.8430 c3        1 2DR      0.118400
      5 O1         -0.9130    0.6480    1.8820 oh        1 2DR     -0.623800
      6 O3          2.3380   -0.9840   -0.8260 oh        1 2DR     -0.589800
      7 O4          1.0070   -0.4820    2.1840 os        1 2DR     -0.460600
      8 O5          3.0870    1.2280    3.1610 oh        1 2DR     -0.594800
      9 C1         -0.2110   -0.4920    1.4460 c3        1 2DR      0.336900
     10 H21C       -0.5060    0.4800   -0.4880 hc        1 2DR      0.076700
     11 H22C       -0.1110   -1.2940   -0.5820 hc        1 2DR      0.076700
     12 H3          1.7780    1.0040   -0.5510 h1        1 2DR      0.052700
     13 H1         -0.7540   -1.4370    1.7140 h2        1 2DR      0.071700
     14 H4          2.9050   -0.8420    1.4910 h1        1 2DR      0.101700
     15 HA          2.0290   -0.9440   -1.7390 ho        1 2DR      0.406000
     16 H51C        3.4530    1.6520    1.2210 h1        1 2DR      0.054200
     17 H52C        1.7460    2.0450    1.7910 h1        1 2DR      0.054200
     18 H5          2.4000    0.8160    3.7010 ho        1 2DR      0.411000
     19 HB         -0.8840    0.6560    2.8470 ho        1 2DR      0.421000
@<TRIPOS>BOND
     1    1    2 1   
     2    1    9 1   
     3    1   10 1   
     4    1   11 1   
     5    2    3 1   
     6    2    6 1   
     7    2   12 1   
     8    3    4 1   
     9    3    7 1   
    10    3   14 1   
    11    4    8 1   
    12    4   16 1   
    13    4   17 1   
    14    5    9 1   
    15    5   19 1   
    16    6   15 1   
    17    7    9 1   
    18    8   18 1   
    19    9   13 1   
@<TRIPOS>SUBSTRUCTURE
     1 2DR         1 TEMP              0 ****  ****    0 ROOT
