@<TRIPOS>MOLECULE
2DR
   19    19     1     0     0
SMALL
bcc


@<TRIPOS>ATOM
      1 C2          1.5410    0.7270   -0.3380 c3        1 2DR     -0.137400
      2 C3          0.1500    1.3720   -0.3980 c3        1 2DR      0.122100
      3 C4         -0.8000    0.3900    0.3170 c3        1 2DR      0.103100
      4 C5         -1.8480   -0.1830   -0.6370 c3        1 2DR      0.118400
      5 O1          1.4000   -1.6430   -0.6390 oh        1 2DR     -0.623800
      6 O3          0.0970    2.5940    0.3180 oh        1 2DR     -0.589800
      7 O4         -0.0100   -0.6930    0.8330 os        1 2DR     -0.460600
      8 O5         -2.7400   -1.0420    0.0410 oh        1 2DR     -0.594800
      9 C1          1.3230   -0.6300    0.3360 c3        1 2DR      0.336900
     10 H21C        1.9680    0.5860   -1.3610 hc        1 2DR      0.076700
     11 H22C        2.2420    1.3490    0.2690 hc        1 2DR      0.076700
     12 H3         -0.1700    1.5430   -1.4610 h1        1 2DR      0.052700
     13 H1          2.0090   -0.8380    1.2010 h2        1 2DR      0.071700
     14 H4         -1.2900    0.8660    1.2100 h1        1 2DR      0.101700
     15 HA          0.6870    3.2090   -0.1350 ho        1 2DR      0.406000
     16 H51C       -2.4900    0.6400   -1.0490 h1        1 2DR      0.054200
     17 H52C       -1.3420   -0.7370   -1.4730 h1        1 2DR      0.054200
     18 H5         -2.2040   -1.6960    0.5080 ho        1 2DR      0.411000
     19 HB          1.0200   -2.4440   -0.2570 ho        1 2DR      0.421000
@<TRIPOS>BOND
     1    1    2 1   
     2    1    9 1   
     3    1   10 1   
     4    1   11 1   
     5    2    3 1   
     6    2    6 1   
     7    2   12 1   
     8    3    4 1   
     9    3    7 1   
    10    3   14 1   
    11    4    8 1   
    12    4   16 1   
    13    4   17 1   
    14    5    9 1   
    15    5   19 1   
    16    6   15 1   
    17    7    9 1   
    18    8   18 1   
    19    9   13 1   
@<TRIPOS>SUBSTRUCTURE
     1 2DR         1 TEMP              0 ****  ****    0 ROOT
