@<TRIPOS>MOLECULE
2DR
   19    19     1     0     0
SMALL
bcc


@<TRIPOS>ATOM
      1 C2          0.1150   -0.3380   -0.0510 c3        1 2DR     -0.137400
      2 C3          1.6170   -0.0240   -0.0960 c3        1 2DR      0.122100
      3 C4          2.0990   -0.0700    1.3680 c3        1 2DR      0.103100
      4 C5          2.5900    1.2960    1.8480 c3        1 2DR      0.118400
      5 O1         -0.9170    0.6760    1.8550 oh        1 2DR     -0.623800
      6 O3          2.3480   -1.0100   -0.8040 oh        1 2DR     -0.589800
      7 O4          0.9890   -0.4710    2.1870 os        1 2DR     -0.460600
      8 O5          3.0740    1.2280    3.1720 oh        1 2DR     -0.594800
      9 C1         -0.2210   -0.4750    1.4360 c3        1 2DR      0.336900
     10 H21C       -0.4860    0.4840   -0.5090 hc        1 2DR      0.076700
     11 H22C       -0.1070   -1.2940   -0.5850 hc        1 2DR      0.076700
     12 H3          1.8040    0.9850   -0.5520 h1        1 2DR      0.052700
     13 H1         -0.7760   -1.4130    1.7060 h2        1 2DR      0.071700
     14 H4          2.8910   -0.8540    1.5170 h1        1 2DR      0.101700
     15 HA          2.0490   -0.9750   -1.7210 ho        1 2DR      0.406000
     16 H51C        3.4660    1.6320    1.2320 h1        1 2DR      0.054200
     17 H52C        1.7570    2.0460    1.7810 h1        1 2DR      0.054200
     18 H5          2.3780    0.8270    3.7080 ho        1 2DR      0.411000
     19 HB         -0.8980    0.6910    2.8200 ho        1 2DR      0.421000
@<TRIPOS>BOND
     1    1    2 1   
     2    1    9 1   
     3    1   10 1   
     4    1   11 1   
     5    2    3 1   
     6    2    6 1   
     7    2   12 1   
     8    3    4 1   
     9    3    7 1   
    10    3   14 1   
    11    4    8 1   
    12    4   16 1   
    13    4   17 1   
    14    5    9 1   
    15    5   19 1   
    16    6   15 1   
    17    7    9 1   
    18    8   18 1   
    19    9   13 1   
@<TRIPOS>SUBSTRUCTURE
     1 2DR         1 TEMP              0 ****  ****    0 ROOT
