@<TRIPOS>MOLECULE
2DS
   52    50     1     0     0
SMALL
bcc


@<TRIPOS>ATOM
      1 C1         -0.4890   -0.4490   -0.0280 c2        1 2DS     -0.030000
      2 N1         -3.0000    0.6650    2.4500 n         1 2DS     -0.315000
      3 O1         -1.4340   -0.8020   -0.9800 oh        1 2DS     -0.291000
      4 C3        -11.1190   -4.0320    2.2260 ca        1 2DS      0.063000
      5 N3         -8.5280   -2.5280    4.3140 n         1 2DS     -0.276000
      6 O3        -12.1750   -4.1640    3.0930 oh        1 2DS     -0.293000
      7 C4          0.7970   -0.7910   -0.3250 c2        1 2DS      0.101000
      8 O4          1.1200   -1.4340   -1.5020 oh        1 2DS     -0.268000
      9 C6        -11.4420   -4.2370    0.8610 ca        1 2DS      0.037000
     10 O6        -12.7200   -4.5450    0.4490 oh        1 2DS     -0.261000
     11 C7          1.9540   -0.5220    0.5030 c2        1 2DS     -0.437000
     12 O7         -2.5880   -1.4300    1.5800 o         1 2DS     -0.379000
     13 C9        -10.4570   -4.1270   -0.1220 ca        1 2DS     -0.124000
     14 O9        -10.0480   -4.1660    4.9150 o         1 2DS     -0.423000
     15 C10         3.2190   -0.4430    0.1390 c1        1 2DS      0.228000
     16 C12        -9.1500   -3.8200    0.2550 ca        1 2DS     -0.142000
     17 O12        -6.4680   -0.7260    4.3930 o         1 2DS     -0.584500
     18 C13        -0.2310    1.2350    1.7420 c2        1 2DS     -0.182000
     19 O14        -6.2850   -0.8490    6.6020 o         1 2DS     -0.584500
     20 C15        -8.8250   -3.6130    1.5920 ca        1 2DS     -0.101000
     21 C16        -0.9380    0.2500    1.1710 c2        1 2DS     -0.096000
     22 C18        -9.8040   -3.7040    2.5900 ca        1 2DS     -0.155000
     23 C19        -2.2440   -0.2380    1.7370 c2        1 2DS      0.337000
     24 C21        -9.4600   -3.4900    4.0330 c2        1 2DS      0.339000
     25 C22        -4.3180    0.3420    2.9460 c3        1 2DS     -0.093000
     26 C24        -7.9840   -2.2030    5.5700 c2        1 2DS     -0.048000
     27 C25        -4.4480    0.7040    4.4230 c2        1 2DS      0.339000
     28 C27        -6.8370   -1.1890    5.5230 c2        1 2DS      0.378000
     29 C30        -8.3860   -2.7000    6.7540 c2        1 2DS     -0.244000
     30 HN1        -4.4900   -0.7840    2.8720 h1        1 2DS      0.196000
     31 HO1        -2.1540   -1.2640   -0.5160 ho        1 2DS      0.250000
     32 HN3        -8.1080   -2.0270    3.5530 hn        1 2DS      0.260000
     33 HO3       -11.8380   -4.2010    4.0060 ho        1 2DS      0.271000
     34 HO4         0.2940   -1.6900   -1.9450 ho        1 2DS      0.241000
     35 HO6       -13.2770   -4.6170    1.2390 ho        1 2DS      0.234000
     36 H7          1.7220   -0.3930    1.5860 ha        1 2DS      0.207000
     37 H10        -0.5400    1.7390    2.6670 ha        1 2DS      0.127500
     38 H13         0.7110    1.6010    1.3080 ha        1 2DS      0.127500
     39 H15        -7.7800   -3.3850    1.8580 ha        1 2DS      0.153000
     40 C20        -5.4090    0.9920    2.1060 c1        1 2DS      0.004000
     41 H22        -2.8120    1.6340    2.3330 hn        1 2DS      0.225000
     42 H24        -7.8790   -2.3610    7.6680 ha        1 2DS      0.131500
     43 H30        -9.1910   -3.4330    6.8760 ha        1 2DS      0.131500
     44 H30A       -4.4500   -0.1410    6.1350 ho        1 2DS      0.287000
     45 O11        -6.5530    1.2710    2.6060 oh        1 2DS     -0.158000
     46 H18        -7.1300    1.3490    5.6860 ha        1 2DS      0.001500
     47 H19        -7.5110    1.8610    5.4530 ha        1 2DS      0.001500
     48 H20        -6.7010    1.0810    3.5710 ho        1 2DS      0.249000
     49 O10        -4.9500    1.7480    4.8580 o         1 2DS     -0.405000
     50 O15        -3.9590   -0.2080    5.2870 oh        1 2DS     -0.311000
     51 H9        -10.7250   -4.2870   -1.1760 ha        1 2DS      0.144000
     52 H12        -8.3680   -3.7390   -0.5150 ha        1 2DS      0.137000
@<TRIPOS>BOND
     1    1    3 1   
     2    1    7 1   
     3    1   21 1   
     4    2   23 1   
     5    2   25 1   
     6    2   41 1   
     7    3   31 1   
     8    4    6 1   
     9    4    9 1   
    10    4   22 1   
    11    5   24 1   
    12    5   26 1   
    13    5   32 1   
    14    6   33 1   
    15    7    8 1   
    16    7   11 1   
    17    8   34 1   
    18    9   10 1   
    19    9   13 1   
    20   10   35 1   
    21   11   15 1   
    22   11   36 1   
    23   12   23 1   
    24   13   16 1   
    25   13   51 1   
    26   14   24 1   
    27   16   20 1   
    28   16   52 1   
    29   17   28 1   
    30   18   21 1   
    31   18   37 1   
    32   18   38 1   
    33   19   28 1   
    34   20   22 1   
    35   20   39 1   
    36   21   23 1   
    37   22   24 1   
    38   25   27 1   
    39   25   30 1   
    40   25   40 1   
    41   26   28 1   
    42   26   29 1   
    43   27   49 1   
    44   27   50 1   
    45   29   42 1   
    46   29   43 1   
    47   40   45 1   
    48   44   50 1   
    49   45   48 1   
    50   46   47 1   
@<TRIPOS>SUBSTRUCTURE
     1 2DS         1 TEMP              0 ****  ****    0 ROOT
