@<TRIPOS>MOLECULE
2DS
   52    47     1     0     0
SMALL
bcc


@<TRIPOS>ATOM
      1 C1          5.7000   -0.3910   -4.1510 c1        1 2DS      0.039500
      2 N1          2.8060    0.3440   -1.8250 n         1 2DS     -0.336000
      3 O1          5.2110   -0.3520   -5.4740 oh        1 2DS     -0.254500
      4 C3         -6.2590    0.2140    3.7170 c1        1 2DS      0.098000
      5 N3         -3.2560   -0.9270    1.6470 n         1 2DS     -0.300000
      6 O3         -7.4090    0.3830    2.9630 o         1 2DS     -0.223000
      7 C4          7.0600   -0.5830   -4.2620 c1        1 2DS      0.039500
      8 O4          7.6460   -0.7780   -5.5400 oh        1 2DS     -0.254500
      9 C6         -6.5690    0.5830    5.0160 c2        1 2DS     -0.031000
     10 O6         -7.9040    0.8780    5.3610 oh        1 2DS     -0.271000
     11 C7          7.8770   -0.4520   -3.1330 c1        1 2DS     -0.133250
     12 O7          3.0690   -0.0750   -4.0580 o         1 2DS     -0.385000
     13 C9         -5.5730    0.5930    6.0020 c1        1 2DS     -0.161000
     14 O9         -5.4050   -0.4480    1.1120 o         1 2DS     -0.448000
     15 C10         7.3160   -0.1280   -1.9000 c1        1 2DS     -0.133250
     16 O10         1.3110   -0.3940    0.1770 o         1 2DS     -0.376000
     17 C12        -4.2770    0.2340    5.6800 c1        1 2DS     -0.133250
     18 O12        -3.6600   -2.9360   -0.1040 o         1 2DS     -0.552500
     19 C13         5.9530    0.0650   -1.7870 c1        1 2DS     -0.077000
     20 O14        -3.4750   -1.6510   -1.8470 o         1 2DS     -0.552500
     21 C15        -3.9560   -0.1450    4.3520 c1        1 2DS     -0.133250
     22 O15        -0.7250   -0.1670   -0.8140 os        1 2DS     -0.265000
     23 C16         5.1370   -0.0640   -2.9010 c1        1 2DS     -0.117000
     24 C18        -4.9410   -0.1530    3.3830 c1        1 2DS     -0.109000
     25 C19         3.5950    0.0210   -3.0030 c2        1 2DS      0.355000
     26 C21        -4.5960   -0.5520    1.9700 c2        1 2DS      0.350000
     27 C22         1.4090    0.5950   -1.9520 c3        1 2DS     -0.015000
     28 C24        -2.7610   -0.7920    0.2680 c3        1 2DS     -0.102000
     29 C25         0.6860    0.0050   -0.7700 c2        1 2DS      0.291000
     30 C27        -3.3660   -1.8430   -0.5870 c2        1 2DS      0.339000
     31 C30        -1.2500   -0.9310    0.2540 c3        1 2DS     -0.016000
     32 HN1         3.2210    0.4590   -1.0090 hn        1 2DS      0.255000
     33 HO1         5.4190    0.4720   -5.8600 ho        1 2DS      0.234000
     34 HN3        -2.7040   -1.3180    2.3130 hn        1 2DS      0.258000
     35 HO3        -7.9800   -0.2760    3.1410 ho        1 2DS      0.238000
     36 HO4         8.2810   -1.3990   -5.4840 ho        1 2DS      0.234000
     37 HO6        -8.0160    0.7850    6.2780 ho        1 2DS      0.216000
     38 H7          8.8350   -0.5860   -3.2090 ha        1 2DS      0.137500
     39 H9         -5.5360    0.8250    6.9040 ha        1 2DS      0.124000
     40 H10         7.9100   -0.0960   -1.0610 ha        1 2DS      0.137500
     41 H12        -3.6460    0.3220    6.4860 ha        1 2DS      0.137500
     42 H13         5.5710    0.2880   -0.9360 ha        1 2DS      0.161000
     43 H15        -3.0630   -0.4840    4.6440 ha        1 2DS      0.137500
     44 C20         1.1740    2.0880   -2.0020 c3        1 2DS     -0.017000
     45 H22         1.0840    0.1940   -2.7560 h1        1 2DS      0.156000
     46 H24        -3.0170    0.1200   -0.0950 h1        1 2DS      0.114000
     47 H30        -0.8690   -0.5920    1.1340 h1        1 2DS      0.119500
     48 H30A       -1.0090   -1.8570    0.1340 h1        1 2DS      0.119500
     49 O11         1.3890    2.6500   -0.7160 oh        1 2DS     -0.344000
     50 H18         1.7660    2.4700   -2.6080 h1        1 2DS      0.109000
     51 H19         0.2390    2.2690   -2.2920 h1        1 2DS      0.109000
     52 H20         1.5600    3.5090   -0.7970 ho        1 2DS      0.228000
@<TRIPOS>BOND
     1    1    3 1   
     2    1    7 1   
     3    2   25 1   
     4    2   27 1   
     5    2   32 1   
     6    3   33 1   
     7    4    9 1   
     8    4   24 1   
     9    5   26 1   
    10    5   28 1   
    11    5   34 1   
    12    6   35 1   
    13    7    8 1   
    14    8   36 1   
    15    9   10 1   
    16    9   13 1   
    17   10   37 1   
    18   11   15 1   
    19   11   38 1   
    20   12   25 1   
    21   13   39 1   
    22   14   26 1   
    23   15   40 1   
    24   16   29 1   
    25   17   21 1   
    26   17   41 1   
    27   18   30 1   
    28   19   23 1   
    29   19   42 1   
    30   20   30 1   
    31   21   43 1   
    32   22   29 1   
    33   22   31 1   
    34   23   25 1   
    35   24   26 1   
    36   27   29 1   
    37   27   44 1   
    38   27   45 1   
    39   28   30 1   
    40   28   31 1   
    41   28   46 1   
    42   31   47 1   
    43   31   48 1   
    44   44   49 1   
    45   44   50 1   
    46   44   51 1   
    47   49   52 1   
@<TRIPOS>SUBSTRUCTURE
     1 2DS         1 TEMP              0 ****  ****    0 ROOT
