@<TRIPOS>MOLECULE
2DS
   52    53     1     0     0
SMALL
bcc


@<TRIPOS>ATOM
      1 C1         -6.5130    1.2360    0.1640 ca        1 2DS      0.110100
      2 N1         -3.3060   -0.4140   -0.3880 n         1 2DS     -0.519900
      3 O1         -6.3440    2.4370   -0.4790 oh        1 2DS     -0.535100
      4 C3          6.2700    1.1680    0.5590 ca        1 2DS      0.110100
      5 N3          3.1910   -0.6740   -0.1760 n         1 2DS     -0.504900
      6 O3          6.8530    0.4150    1.5490 oh        1 2DS     -0.540100
      7 C4         -7.8490    0.9390    0.5310 ca        1 2DS      0.085100
      8 O4         -8.8930    1.7950    0.2590 oh        1 2DS     -0.504100
      9 C6          7.1050    2.1720    0.0090 ca        1 2DS      0.081100
     10 O6          8.3980    2.3690    0.4410 oh        1 2DS     -0.508100
     11 C7         -8.1510   -0.2560    1.1890 ca        1 2DS     -0.121000
     12 O7         -3.6540    1.8030    0.0900 o         1 2DS     -0.654100
     13 C9          6.6330    3.0050   -1.0080 ca        1 2DS     -0.126000
     14 O9          4.1960   -0.3760    1.8650 o         1 2DS     -0.686100
     15 C10        -7.1220   -1.1500    1.4860 ca        1 2DS     -0.143000
     16 C12         5.3270    2.8390   -1.4720 ca        1 2DS     -0.147000
     17 O12         1.7480   -1.9240   -2.1320 o         1 2DS     -0.828300
     18 C13        -5.8090   -0.8700    1.1220 ca        1 2DS     -0.099000
     19 O14         0.7680   -3.3260   -0.6950 o         1 2DS     -0.828300
     20 C15         4.5040    1.8510   -0.9410 ca        1 2DS     -0.101000
     21 C16        -5.4920    0.3160    0.4460 ca        1 2DS     -0.176600
     22 C18         4.9660    0.9970    0.0700 ca        1 2DS     -0.169600
     23 C19        -4.0820    0.6230    0.0610 c         1 2DS      0.679700
     24 C21         4.0820   -0.0620    0.6490 c         1 2DS      0.663700
     25 C22        -1.8870   -0.2950   -0.6120 c3        1 2DS      0.015700
     26 C24         2.2720   -1.7020    0.2500 c3        1 2DS     -0.042300
     27 C25        -1.0760   -0.7930    0.5830 c         1 2DS      0.627100
     28 C27         1.5520   -2.3750   -0.9710 c         1 2DS      0.916600
     29 C30         1.1930   -1.2120    1.2320 c3        1 2DS      0.135400
     30 HN1        -3.6560   -1.3470   -0.3650 hn        1 2DS      0.335500
     31 HO1        -5.3960    2.6650   -0.4860 ho        1 2DS      0.471000
     32 HN3         3.1340   -0.4310   -1.1440 hn        1 2DS      0.344500
     33 HO3         6.1670   -0.1130    1.9970 ho        1 2DS      0.475000
     34 HO4        -8.5220    2.5950   -0.1450 ho        1 2DS      0.437000
     35 HO6         8.5640    1.7500    1.1690 ho        1 2DS      0.435000
     36 H7         -9.1920   -0.4710    1.4680 ha        1 2DS      0.147000
     37 H10        -7.3540   -2.0860    2.0150 ha        1 2DS      0.137000
     38 H13        -5.0120   -1.5840    1.3880 ha        1 2DS      0.155000
     39 H15         3.4740    1.7520   -1.3190 ha        1 2DS      0.150000
     40 C20        -1.4300   -1.0840   -1.8720 c3        1 2DS      0.130400
     41 H22        -1.6280    0.7960   -0.7670 h1        1 2DS      0.108700
     42 H24         2.8570   -2.4990    0.7960 h1        1 2DS      0.069700
     43 H30         1.6080   -0.5290    2.0170 h1        1 2DS      0.072200
     44 H30A        0.7030   -2.1070    1.6980 h1        1 2DS      0.072200
     45 O11        -1.8330   -2.4290   -1.8070 oh        1 2DS     -0.637800
     46 H18        -1.9390   -0.6470   -2.7730 h1        1 2DS      0.077200
     47 H19        -0.3120   -0.9850   -1.9640 h1        1 2DS      0.077200
     48 H20        -1.0660   -2.9510   -1.5010 ho        1 2DS      0.465000
     49 O10        -1.4710   -1.4220    1.5670 o         1 2DS     -0.553000
     50 O15         0.2350   -0.4350    0.4900 os        1 2DS     -0.435900
     51 H9          7.2920    3.7790   -1.4240 ha        1 2DS      0.143000
     52 H12         4.9480    3.4970   -2.2670 ha        1 2DS      0.133000
@<TRIPOS>BOND
     1    1    3 1   
     2    1    7 ar  
     3    1   21 ar  
     4    2   23 1   
     5    2   25 1   
     6    2   30 1   
     7    3   31 1   
     8    4    6 1   
     9    4    9 ar  
    10    4   22 ar  
    11    5   24 1   
    12    5   26 1   
    13    5   32 1   
    14    6   33 1   
    15    7    8 1   
    16    7   11 ar  
    17    8   34 1   
    18    9   10 1   
    19    9   13 ar  
    20   10   35 1   
    21   11   15 ar  
    22   11   36 1   
    23   12   23 2   
    24   13   16 ar  
    25   13   51 1   
    26   14   24 2   
    27   15   18 ar  
    28   15   37 1   
    29   16   20 ar  
    30   16   52 1   
    31   17   28 1   
    32   18   21 ar  
    33   18   38 1   
    34   19   28 1   
    35   20   22 ar  
    36   20   39 1   
    37   21   23 1   
    38   22   24 1   
    39   25   27 1   
    40   25   40 1   
    41   25   41 1   
    42   26   28 1   
    43   26   29 1   
    44   26   42 1   
    45   27   49 2   
    46   27   50 1   
    47   29   43 1   
    48   29   44 1   
    49   29   50 1   
    50   40   45 1   
    51   40   46 1   
    52   40   47 1   
    53   45   48 1   
@<TRIPOS>SUBSTRUCTURE
     1 2DS         1 TEMP              0 ****  ****    0 ROOT
