@<TRIPOS>MOLECULE
2DT
   33    33     1     0     0
SMALL
bcc


@<TRIPOS>ATOM
      1 P          -0.5470   -5.5590    1.1400 p4        1 2DT      1.682200
      2 OP1         0.8820   -5.7710    0.6990 o         1 2DT     -0.913000
      3 OP2        -0.5920   -5.4090    2.6420 os        1 2DT     -1.241000
      4 OP3        -1.3820   -6.7470    0.7270 o         1 2DT     -0.961800
      5 O5'        -1.1190   -4.2510    0.4620 os        1 2DT     -0.577200
      6 N1         -0.0900    1.4190    0.1180 n         1 2DT     -0.363000
      7 C6         -0.0400    2.6460   -0.5920 cc        1 2DT      0.074600
      8 C2          0.6940    1.2480    1.3420 c         1 2DT      0.796500
      9 O2          0.6330    0.2050    1.9610 o         1 2DT     -0.712500
     10 N3          1.5510    2.3320    1.8210 n         1 2DT     -0.598500
     11 C4          1.5690    3.5780    1.1410 c         1 2DT      0.718700
     12 O4          2.2730    4.4810    1.5450 o         1 2DT     -0.686500
     13 C5          0.7830    3.7530   -0.0880 cd        1 2DT     -0.305400
     14 C5M         0.9030    5.0320   -0.8860 c3        1 2DT     -0.028900
     15 C2'        -0.5120   -0.0230   -1.5390 c3        1 2DT     -0.089400
     16 C5'        -0.2700   -3.1350    0.3330 c3        1 2DT      0.201400
     17 C4'        -1.1010   -1.9000   -0.0780 c3        1 2DT      0.104100
     18 O4'        -0.7700   -0.9010    0.6120 os        1 2DT     -0.444600
     19 C1'        -0.9100    0.3680   -0.3460 c3        1 2DT      0.305500
     20 C3'        -0.7790   -1.4960   -1.5720 c3        1 2DT     -0.163400
     21 H6         -0.5630    2.7590   -1.4090 h4        1 2DT      0.288000
     22 HN3         2.0390    2.2240    2.5840 hn        1 2DT      0.320500
     23 H71         0.8320    5.8010   -0.2830 hc        1 2DT      0.052700
     24 H72         0.1850    5.0700   -1.5520 hc        1 2DT      0.052700
     25 H73         1.7710    5.0530   -1.3410 hc        1 2DT      0.052700
     26 H2'        -1.0290    0.4320   -2.2360 hc        1 2DT      0.044700
     27 H2''        0.4450    0.1530   -1.6530 hc        1 2DT      0.044700
     28 H5'         0.4060   -3.3160   -0.3520 h1        1 2DT      0.016700
     29 H5''        0.1720   -2.9600    1.1900 h1        1 2DT      0.016700
     30 H4'        -2.0560   -2.0830    0.0260 h1        1 2DT      0.015700
     31 H1'        -1.8440    0.6610   -0.3820 h2        1 2DT      0.073700
     32 H3'1        0.0120   -1.9760   -1.8890 hc        1 2DT      0.111200
     33 H3'2       -1.5460   -1.6880   -2.1470 hc        1 2DT      0.111200
@<TRIPOS>BOND
     1    1    2 1   
     2    1    4 2   
     3    1    5 1   
     4    5   16 1   
     5    6    7 1   
     6    6    8 1   
     7    6   19 1   
     8    7   13 2   
     9    7   21 1   
    10    8    9 2   
    11    8   10 1   
    12   10   11 1   
    13   10   22 1   
    14   11   12 2   
    15   11   13 1   
    16   13   14 1   
    17   14   23 1   
    18   14   24 1   
    19   14   25 1   
    20   15   19 1   
    21   15   20 1   
    22   15   26 1   
    23   15   27 1   
    24   16   17 1   
    25   16   28 1   
    26   16   29 1   
    27   17   18 1   
    28   17   20 1   
    29   17   30 1   
    30   18   19 1   
    31   19   31 1   
    32   20   32 1   
    33   20   33 1   
@<TRIPOS>SUBSTRUCTURE
     1 2DT         1 TEMP              0 ****  ****    0 ROOT
