@<TRIPOS>MOLECULE
2DT
   33    34     1     0     0
SMALL
bcc


@<TRIPOS>ATOM
      1 P           0.1020   -1.8500   -3.9080 p5        1 2DT      1.430800
      2 OP1         1.3360   -2.5120   -3.4280 o         1 2DT     -0.843000
      3 OP2        -0.5670   -2.0820   -5.2020 o         1 2DT     -0.843000
      4 OP3         0.4920   -0.2670   -3.7360 oh        1 2DT     -0.790400
      5 O5'        -1.0430   -1.9740   -2.7290 os        1 2DT     -0.581200
      6 N1         -1.2080    0.3590    2.5830 n         1 2DT     -0.315400
      7 C6          0.1090    0.6820    2.7980 c1        1 2DT     -0.075900
      8 C2         -2.0460   -0.1140    3.6290 c         1 2DT      0.719100
      9 O2         -3.2780   -0.3550    3.4930 o         1 2DT     -0.709100
     10 N3         -1.4760   -0.2650    4.9010 n         1 2DT     -0.595500
     11 C4         -0.1210    0.0470    5.1780 c         1 2DT      0.676300
     12 O4          0.2540   -0.1410    6.3650 o         1 2DT     -0.725100
     13 C5          0.6530    0.5530    4.0690 ce        1 2DT     -0.504500
     14 C5M         2.0550    0.9220    4.3220 c3        1 2DT      0.047100
     15 C2'        -1.1300    1.4740    0.3160 c3        1 2DT     -0.107400
     16 C5'        -0.6590   -1.7010   -1.4160 c3        1 2DT      0.197400
     17 C4'        -1.5860   -0.6220   -0.8370 c3        1 2DT      0.124100
     18 O4'        -1.7180   -0.8450    0.5760 os        1 2DT     -0.435600
     19 C1'        -1.7880    0.4370    1.2560 c3        1 2DT      0.333500
     20 C3'        -1.1020    0.8140   -1.0510 c3        1 2DT     -0.100400
     21 H6          1.2990   -0.1570   -3.2460 ho        1 2DT      0.423000
     22 HN3        -2.0580   -0.6200    5.6230 hn        1 2DT      0.300500
     23 H71         2.1210    1.8310    4.9750 hc        1 2DT     -0.001300
     24 H72         2.5960    0.0950    4.8480 hc        1 2DT     -0.001300
     25 H73         2.5820    1.1420    3.3610 hc        1 2DT     -0.001300
     26 H2'        -1.7360    2.4110    0.3120 hc        1 2DT      0.062200
     27 H2''       -0.0940    1.7200    0.6650 hc        1 2DT      0.062200
     28 H5'         0.4160   -1.3790   -1.3790 h1        1 2DT      0.033700
     29 H5''       -0.7840   -2.6350   -0.7980 h1        1 2DT      0.033700
     30 H4'        -2.6110   -0.7570   -1.2830 h1        1 2DT      0.042700
     31 H1'        -2.8930    0.6550    1.3770 h2        1 2DT      0.048700
     32 H3'1       -1.7730    1.3410   -1.7740 hc        1 2DT      0.048700
     33 H3'2       -0.0730    0.8250   -1.4900 hc        1 2DT      0.048700
@<TRIPOS>BOND
     1    1    2 1   
     2    1    3 1   
     3    1    4 1   
     4    1    5 1   
     5    4   21 1   
     6    5   16 1   
     7    6    7 2   
     8    6    8 1   
     9    6   19 1   
    10    7   13 2   
    11    8    9 2   
    12    8   10 1   
    13   10   11 1   
    14   10   22 1   
    15   11   12 2   
    16   11   13 1   
    17   13   14 1   
    18   14   23 1   
    19   14   24 1   
    20   14   25 1   
    21   15   19 1   
    22   15   20 1   
    23   15   26 1   
    24   15   27 1   
    25   16   17 1   
    26   16   28 1   
    27   16   29 1   
    28   17   18 1   
    29   17   20 1   
    30   17   30 1   
    31   18   19 1   
    32   19   31 1   
    33   20   32 1   
    34   20   33 1   
@<TRIPOS>SUBSTRUCTURE
     1 2DT         1 TEMP              0 ****  ****    0 ROOT
