@<TRIPOS>MOLECULE
2DU
   45    47     1     0     0
SMALL
bcc


@<TRIPOS>ATOM
      1 O           0.4570   -0.5660    0.8010 o         1 2DU     -0.811300
      2 C           1.3100   -1.1020    0.0530 c         1 2DU      0.914600
      3 OXT         1.7310   -2.2880    0.1250 o         1 2DU     -0.811300
      4 CA          1.9620   -0.2000   -1.0540 c3        1 2DU     -0.130700
      5 N           1.1970   -0.0890   -2.2660 na        1 2DU      0.051600
      6 CAZ         0.6920   -1.1560   -3.0080 ca        1 2DU     -0.051200
      7 CAM         0.8040   -2.5500   -2.7980 ca        1 2DU     -0.074000
      8 CAL         0.2180   -3.3930   -3.7170 ca        1 2DU     -0.186000
      9 CAW        -0.4890   -2.8770   -4.8360 ca        1 2DU      0.077100
     10 OAS        -1.0450   -3.7050   -5.8080 os        1 2DU     -0.346900
     11 CAA        -1.4150   -5.0010   -5.3590 c3        1 2DU      0.120700
     12 CAN        -0.6350   -1.5160   -5.0580 ca        1 2DU     -0.128000
     13 CAY        -0.0420   -0.6340   -4.1430 ca        1 2DU     -0.093800
     14 CAO         0.0160    0.7900   -4.0430 cc        1 2DU     -0.180200
     15 CAX         0.7760    1.0880   -2.8920 cd        1 2DU     -0.152300
     16 CAU         1.1360    2.4440   -2.4440 c         1 2DU      0.743300
     17 OAC         2.2240    2.7550   -1.9280 o         1 2DU     -0.588100
     18 NAR         0.1890    3.4520   -2.6890 n         1 2DU     -0.689300
     19 SBB         0.3020    5.0630   -2.4030 s6        1 2DU      1.447600
     20 OAD        -0.7540    5.6670   -3.1220 o         1 2DU     -0.644800
     21 OAE         0.3710    5.3730   -1.0390 o         1 2DU     -0.644800
     22 CAQ         1.8090    5.4650   -3.1540 c3        1 2DU     -0.261300
     23 CAV         2.1530    6.9020   -3.0540 ca        1 2DU     -0.058300
     24 CAJ         2.4660    7.4650   -1.8080 ca        1 2DU     -0.114000
     25 CAH         2.8220    8.8090   -1.7180 ca        1 2DU     -0.132000
     26 CAG         2.8730    9.6010   -2.8650 ca        1 2DU     -0.131000
     27 CAI         2.5630    9.0450   -4.1060 ca        1 2DU     -0.132000
     28 CAK         2.2060    7.7010   -4.2020 ca        1 2DU     -0.114000
     29 H2          2.1100    0.8280   -0.6240 h1        1 2DU      0.061700
     30 H3          2.9640   -0.6410   -1.3200 h1        1 2DU      0.061700
     31 H4          1.3270   -2.9260   -1.8960 ha        1 2DU      0.207000
     32 H5          0.2930   -4.4800   -3.5770 ha        1 2DU      0.129000
     33 H6         -1.9650   -4.9570   -4.3880 h1        1 2DU      0.033700
     34 H7         -2.0790   -5.3900   -6.1720 h1        1 2DU      0.033700
     35 H8         -0.5080   -5.6470   -5.2600 h1        1 2DU      0.033700
     36 H9         -1.1920   -1.1400   -5.9250 ha        1 2DU      0.134000
     37 H10        -0.4230    1.5010   -4.7350 ha        1 2DU      0.140000
     38 H11        -0.6700    3.1030   -3.0660 hn        1 2DU      0.349500
     39 H12         1.8110    5.1610   -4.2340 h1        1 2DU      0.130200
     40 H13         2.6470    4.8750   -2.6770 h1        1 2DU      0.130200
     41 H14         2.4080    6.8420   -0.8990 ha        1 2DU      0.147000
     42 H15         3.0610    9.2440   -0.7360 ha        1 2DU      0.129000
     43 H16         3.1550   10.6610   -2.7910 ha        1 2DU      0.124000
     44 H17         2.5980    9.6670   -5.0120 ha        1 2DU      0.129000
     45 H18         1.9600    7.2690   -5.1840 ha        1 2DU      0.147000
@<TRIPOS>BOND
     1    1    2 1   
     2    2    3 1   
     3    2    4 1   
     4    4    5 1   
     5    4   29 1   
     6    4   30 1   
     7    5    6 1   
     8    5   15 1   
     9    6    7 ar  
    10    6   13 ar  
    11    7    8 ar  
    12    7   31 1   
    13    8    9 ar  
    14    8   32 1   
    15    9   10 1   
    16    9   12 ar  
    17   10   11 1   
    18   11   33 1   
    19   11   34 1   
    20   11   35 1   
    21   12   13 ar  
    22   12   36 1   
    23   13   14 1   
    24   14   15 2   
    25   14   37 1   
    26   15   16 1   
    27   16   17 2   
    28   16   18 1   
    29   18   19 1   
    30   18   38 1   
    31   19   20 2   
    32   19   21 2   
    33   19   22 1   
    34   22   23 1   
    35   22   39 1   
    36   22   40 1   
    37   23   24 ar  
    38   23   28 ar  
    39   24   25 ar  
    40   24   41 1   
    41   25   26 ar  
    42   25   42 1   
    43   26   27 ar  
    44   26   43 1   
    45   27   28 ar  
    46   27   44 1   
    47   28   45 1   
@<TRIPOS>SUBSTRUCTURE
     1 2DU         1 TEMP              0 ****  ****    0 ROOT
