@<TRIPOS>MOLECULE
2DU
   46    48     1     0     0
SMALL
bcc


@<TRIPOS>ATOM
      1 O           0.9540    1.3010    0.8150 os        1 2DU     -0.431200
      2 C           1.4590    0.0190    0.9240 c         1 2DU      0.723600
      3 OXT         1.8280   -0.2450    2.0620 o         1 2DU     -0.533500
      4 CA          1.5600   -0.9140   -0.2630 c3        1 2DU     -0.044700
      5 N           0.7770   -0.4900   -1.3840 na        1 2DU     -0.071400
      6 CAZ         0.7840   -1.0660   -2.6650 ca        1 2DU     -0.039200
      7 CAM         1.0800   -2.3700   -3.0810 ca        1 2DU     -0.120000
      8 CAL         0.9180   -2.6830   -4.4240 ca        1 2DU     -0.153000
      9 CAW         0.4620   -1.7150   -5.3430 ca        1 2DU      0.095100
     10 OAS         0.2830   -1.9620   -6.6930 os        1 2DU     -0.324900
     11 CAA         0.5140   -3.2950   -7.1290 c3        1 2DU      0.112700
     12 CAN         0.1570   -0.4050   -4.9500 ca        1 2DU     -0.088000
     13 CAY         0.3240   -0.0710   -3.6100 ca        1 2DU     -0.096800
     14 CAO         0.1200    1.1570   -2.8700 cc        1 2DU     -0.026200
     15 CAX         0.4520    0.8870   -1.5460 cd        1 2DU     -0.205300
     16 CAU         0.4700    1.7750   -0.3990 c         1 2DU      0.791800
     17 OAC         0.1190    2.9510   -0.3220 o         1 2DU     -0.590500
     18 NAR        -1.7570    5.1590   -1.1520 n8        1 2DU     -1.032700
     19 SBB        -0.9410    5.4070   -2.5010 s6        1 2DU      1.473900
     20 OAD        -0.8130    4.2030   -3.2300 o         1 2DU     -0.666800
     21 OAE        -1.5020    6.5080   -3.1770 o         1 2DU     -0.666800
     22 CAQ         0.6320    5.8300   -1.9000 c3        1 2DU     -0.258300
     23 CAV         1.6250    6.1020   -2.9650 ca        1 2DU     -0.062300
     24 CAJ         2.1630    7.3860   -3.1210 ca        1 2DU     -0.117000
     25 CAH         3.1190    7.6300   -4.1050 ca        1 2DU     -0.127500
     26 CAG         3.5490    6.5980   -4.9370 ca        1 2DU     -0.125000
     27 CAI         3.0170    5.3170   -4.7860 ca        1 2DU     -0.127500
     28 CAK         2.0600    5.0680   -3.8040 ca        1 2DU     -0.117000
     29 H2          1.2010   -1.9350    0.0630 h1        1 2DU      0.095700
     30 H3          2.6570   -0.9990   -0.5270 h1        1 2DU      0.095700
     31 H4          1.4280   -3.1290   -2.3670 ha        1 2DU      0.141000
     32 H5          1.1510   -3.7020   -4.7640 ha        1 2DU      0.143000
     33 H6         -0.1670   -4.0090   -6.6040 h1        1 2DU      0.045367
     34 H7          1.5820   -3.5830   -6.9720 h1        1 2DU      0.045367
     35 H8          0.2750   -3.2550   -8.2230 h1        1 2DU      0.045367
     36 H9         -0.2050    0.3300   -5.6840 ha        1 2DU      0.167000
     37 H10        -0.2350    2.1110   -3.2770 ha        1 2DU      0.223000
     38 H11        -1.6030    4.3860   -0.5500 hn        1 2DU      0.456800
     39 H12         1.0330    4.9960   -1.2550 h1        1 2DU      0.117700
     40 H13         0.5690    6.7240   -1.2230 h1        1 2DU      0.117700
     41 H14         1.8270    8.2060   -2.4690 ha        1 2DU      0.140000
     42 H15         3.5340    8.6430   -4.2240 ha        1 2DU      0.132500
     43 H16         4.3040    6.7930   -5.7130 ha        1 2DU      0.131000
     44 H17         3.3490    4.5010   -5.4450 ha        1 2DU      0.132500
     45 H18         1.6250    4.0610   -3.6970 ha        1 2DU      0.140000
     46 HAR2       -2.4710    5.7630   -0.8290 hn        1 2DU      0.456800
@<TRIPOS>BOND
     1    1    2 1   
     2    1   16 1   
     3    2    3 2   
     4    2    4 1   
     5    4    5 1   
     6    4   29 1   
     7    4   30 1   
     8    5    6 1   
     9    5   15 1   
    10    6    7 ar  
    11    6   13 ar  
    12    7    8 ar  
    13    7   31 1   
    14    8    9 ar  
    15    8   32 1   
    16    9   10 1   
    17    9   12 ar  
    18   10   11 1   
    19   11   33 1   
    20   11   34 1   
    21   11   35 1   
    22   12   13 ar  
    23   12   36 1   
    24   13   14 1   
    25   14   15 2   
    26   14   37 1   
    27   15   16 1   
    28   16   17 2   
    29   18   19 1   
    30   18   38 1   
    31   18   46 1   
    32   19   20 2   
    33   19   21 2   
    34   19   22 1   
    35   22   23 1   
    36   22   39 1   
    37   22   40 1   
    38   23   24 ar  
    39   23   28 ar  
    40   24   25 ar  
    41   24   41 1   
    42   25   26 ar  
    43   25   42 1   
    44   26   27 ar  
    45   26   43 1   
    46   27   28 ar  
    47   27   44 1   
    48   28   45 1   
@<TRIPOS>SUBSTRUCTURE
     1 2DU         1 TEMP              0 ****  ****    0 ROOT
