@<TRIPOS>MOLECULE
2DU
   46    48     1     0     0
SMALL
bcc


@<TRIPOS>ATOM
      1 O           1.3520    1.1760    0.7650 os        1 2DU     -0.431200
      2 C           1.8890   -0.0970    0.7790 c         1 2DU      0.723600
      3 OXT         2.3740   -0.3910    1.8660 o         1 2DU     -0.533500
      4 CA          1.8880   -0.9900   -0.4430 c3        1 2DU     -0.044700
      5 N           0.9890   -0.5460   -1.4660 na        1 2DU     -0.070400
      6 CAZ         0.8790   -1.0800   -2.7600 ca        1 2DU     -0.039200
      7 CAM         1.1550   -2.3630   -3.2480 ca        1 2DU     -0.120000
      8 CAL         0.8660   -2.6350   -4.5780 ca        1 2DU     -0.153000
      9 CAW         0.3030   -1.6480   -5.4140 ca        1 2DU      0.095100
     10 OAS        -0.0040   -1.8540   -6.7480 os        1 2DU     -0.324900
     11 CAA         0.2060   -3.1670   -7.2500 c3        1 2DU      0.112700
     12 CAN         0.0150   -0.3580   -4.9480 ca        1 2DU     -0.088000
     13 CAY         0.3090   -0.0650   -3.6200 ca        1 2DU     -0.096800
     14 CAO         0.1580    1.1350   -2.8220 cc        1 2DU     -0.026200
     15 CAX         0.6250    0.8280   -1.5470 cd        1 2DU     -0.205300
     16 CAU         0.7410    1.6790   -0.3780 c         1 2DU      0.791800
     17 OAC         0.3770    2.8440   -0.2250 o         1 2DU     -0.590500
     18 NAR        -1.6120    5.0360   -0.7890 n3        1 2DU     -1.032700
     19 SBB        -0.9380    5.3460   -2.2020 s6        1 2DU      1.473900
     20 OAD        -0.8600    4.1700   -2.9820 o         1 2DU     -0.666800
     21 OAE        -1.5840    6.4570   -2.7810 o         1 2DU     -0.666800
     22 CAQ         0.6780    5.7840   -1.7430 c3        1 2DU     -0.258300
     23 CAV         1.5560    6.1140   -2.8900 ca        1 2DU     -0.062300
     24 CAJ         2.0510    7.4130   -3.0520 ca        1 2DU     -0.117000
     25 CAH         2.9010    7.7120   -4.1160 ca        1 2DU     -0.127500
     26 CAG         3.2670    6.7180   -5.0220 ca        1 2DU     -0.125000
     27 CAI         2.7760    5.4210   -4.8650 ca        1 2DU     -0.127500
     28 CAK         1.9260    5.1180   -3.8040 ca        1 2DU     -0.117000
     29 H2          2.9550   -1.0420   -0.8180 h1        1 2DU      0.095700
     30 H3          1.5820   -2.0280   -0.1190 h1        1 2DU      0.095700
     31 H4          1.5870   -3.1370   -2.5990 ha        1 2DU      0.141000
     32 H5          1.0830   -3.6370   -4.9750 ha        1 2DU      0.143000
     33 H6         -0.4060   -3.9120   -6.6860 h1        1 2DU      0.045367
     34 H7          1.2900   -3.4370   -7.2090 h1        1 2DU      0.045367
     35 H8         -0.1410   -3.0960   -8.3120 h1        1 2DU      0.045367
     36 H9         -0.4310    0.3920   -5.6160 ha        1 2DU      0.167000
     37 H10        -0.2530    2.0940   -3.1590 ha        1 2DU      0.223000
     38 H11        -1.3850    4.2470   -0.2320 hn        1 2DU      0.456800
     39 H12         0.6650    6.6540   -1.0320 h1        1 2DU      0.117700
     40 H13         1.1570    4.9390   -1.1700 h1        1 2DU      0.117700
     41 H14         1.7650    8.2040   -2.3420 ha        1 2DU      0.140000
     42 H15         3.2830    8.7370   -4.2390 ha        1 2DU      0.132500
     43 H16         3.9380    6.9550   -5.8610 ha        1 2DU      0.131000
     44 H17         3.0570    4.6360   -5.5820 ha        1 2DU      0.132500
     45 H18         1.5230    4.0980   -3.6910 ha        1 2DU      0.140000
     46 HAR2       -2.3020    5.6120   -0.3770 hn        1 2DU      0.456800
@<TRIPOS>BOND
     1    1    2 1   
     2    1   16 1   
     3    2    3 2   
     4    2    4 1   
     5    4    5 1   
     6    4   29 1   
     7    4   30 1   
     8    5    6 1   
     9    5   15 1   
    10    6    7 ar  
    11    6   13 ar  
    12    7    8 ar  
    13    7   31 1   
    14    8    9 ar  
    15    8   32 1   
    16    9   10 1   
    17    9   12 ar  
    18   10   11 1   
    19   11   33 1   
    20   11   34 1   
    21   11   35 1   
    22   12   13 ar  
    23   12   36 1   
    24   13   14 1   
    25   14   15 2   
    26   14   37 1   
    27   15   16 1   
    28   16   17 2   
    29   18   19 1   
    30   18   38 1   
    31   18   46 1   
    32   19   20 2   
    33   19   21 2   
    34   19   22 1   
    35   22   23 1   
    36   22   39 1   
    37   22   40 1   
    38   23   24 ar  
    39   23   28 ar  
    40   24   25 ar  
    41   24   41 1   
    42   25   26 ar  
    43   25   42 1   
    44   26   27 ar  
    45   26   43 1   
    46   27   28 ar  
    47   27   44 1   
    48   28   45 1   
@<TRIPOS>SUBSTRUCTURE
     1 2DU         1 TEMP              0 ****  ****    0 ROOT
