@<TRIPOS>MOLECULE
2DV
   48    50     1     0     0
SMALL
bcc


@<TRIPOS>ATOM
      1 O           0.4900   -0.5630    0.7970 o         1 2DV     -0.810300
      2 C           1.3110   -1.1300    0.0380 c         1 2DV      0.915600
      3 OXT         1.6890   -2.3310    0.1000 o         1 2DV     -0.810300
      4 CA          1.9820   -0.2490   -1.0760 c3        1 2DV     -0.132700
      5 N           1.2090   -0.1210   -2.2820 na        1 2DV      0.053600
      6 CBC         0.6900   -1.1780   -3.0280 ca        1 2DV     -0.051200
      7 CAO         0.7950   -2.5750   -2.8310 ca        1 2DV     -0.074000
      8 CAN         0.1960   -3.4050   -3.7510 ca        1 2DV     -0.185000
      9 CAY        -0.5190   -2.8760   -4.8590 ca        1 2DV      0.078100
     10 OAU        -1.0890   -3.6920   -5.8330 os        1 2DV     -0.346900
     11 CAA        -1.4490   -4.9950   -5.3980 c3        1 2DV      0.120700
     12 CAP        -0.6600   -1.5120   -5.0670 ca        1 2DV     -0.128000
     13 CBB        -0.0540   -0.6410   -4.1500 ca        1 2DV     -0.093800
     14 CAQ         0.0100    0.7810   -4.0350 cc        1 2DV     -0.178200
     15 CBA         0.7840    1.0640   -2.8900 cd        1 2DV     -0.155300
     16 CAW         1.1500    2.4120   -2.4290 c         1 2DV      0.745300
     17 OAC         2.2460    2.7220   -1.9280 o         1 2DV     -0.588100
     18 NAT         0.1960    3.4230   -2.6420 n         1 2DV     -0.692300
     19 SBF         0.3110    5.0240   -2.3250 s6        1 2DV      1.451600
     20 OAD        -0.7490    5.6500   -3.0160 o         1 2DV     -0.643300
     21 OAE         0.4150    5.3170   -0.9610 o         1 2DV     -0.643300
     22 CAS         1.8090    5.4470   -3.0970 c3        1 2DV     -0.269300
     23 CAX         2.1730    6.8750   -2.9620 ca        1 2DV     -0.019300
     24 CAJ         2.2480    7.6970   -4.0940 ca        1 2DV     -0.123000
     25 CAL         2.6250    9.0320   -3.9710 ca        1 2DV     -0.081000
     26 CAZ         2.9330    9.5510   -2.7120 ca        1 2DV     -0.172300
     27 CBE         3.3340   11.0120   -2.5770 c3        1 2DV      0.688200
     28 FAH         4.1660   11.2870   -1.5180 f         1 2DV     -0.241967
     29 FAI         4.0030   11.5270   -3.6630 f         1 2DV     -0.241967
     30 FAG         2.2810   11.8780   -2.4020 f         1 2DV     -0.241967
     31 CAM         2.8580    8.7410   -1.5760 ca        1 2DV     -0.081000
     32 CAK         2.4810    7.4070   -1.7010 ca        1 2DV     -0.123000
     33 H2          2.9670   -0.7200   -1.3500 h1        1 2DV      0.061700
     34 H3          2.1630    0.7750   -0.6510 h1        1 2DV      0.061700
     35 H4          1.3220   -2.9600   -1.9350 ha        1 2DV      0.207000
     36 H5          0.2660   -4.4940   -3.6210 ha        1 2DV      0.130000
     37 H6         -0.5390   -5.6390   -5.3170 h1        1 2DV      0.034367
     38 H7         -1.9890   -4.9650   -4.4210 h1        1 2DV      0.034367
     39 H8         -2.1200   -5.3740   -6.2090 h1        1 2DV      0.034367
     40 H9         -1.2240   -1.1260   -5.9250 ha        1 2DV      0.135000
     41 H10        -0.4340    1.5010   -4.7150 ha        1 2DV      0.140000
     42 H11        -0.6670    3.0780   -3.0120 hn        1 2DV      0.352500
     43 H12         2.6520    4.8350   -2.6560 h1        1 2DV      0.133700
     44 H13         1.7820    5.1730   -4.1860 h1        1 2DV      0.133700
     45 H14         2.0050    7.2900   -5.0880 ha        1 2DV      0.159000
     46 H15         2.6870    9.6770   -4.8610 ha        1 2DV      0.149000
     47 H16         3.1020    9.1570   -0.5850 ha        1 2DV      0.149000
     48 H17         2.4050    6.7670   -0.8050 ha        1 2DV      0.159000
@<TRIPOS>BOND
     1    1    2 1   
     2    2    3 1   
     3    2    4 1   
     4    4    5 1   
     5    4   33 1   
     6    4   34 1   
     7    5    6 1   
     8    5   15 1   
     9    6    7 ar  
    10    6   13 ar  
    11    7    8 ar  
    12    7   35 1   
    13    8    9 ar  
    14    8   36 1   
    15    9   10 1   
    16    9   12 ar  
    17   10   11 1   
    18   11   37 1   
    19   11   38 1   
    20   11   39 1   
    21   12   13 ar  
    22   12   40 1   
    23   13   14 1   
    24   14   15 2   
    25   14   41 1   
    26   15   16 1   
    27   16   17 2   
    28   16   18 1   
    29   18   19 1   
    30   18   42 1   
    31   19   20 2   
    32   19   21 2   
    33   19   22 1   
    34   22   23 1   
    35   22   43 1   
    36   22   44 1   
    37   23   24 ar  
    38   23   32 ar  
    39   24   25 ar  
    40   24   45 1   
    41   25   26 ar  
    42   25   46 1   
    43   26   27 1   
    44   26   31 ar  
    45   27   28 1   
    46   27   29 1   
    47   27   30 1   
    48   31   32 ar  
    49   31   47 1   
    50   32   48 1   
@<TRIPOS>SUBSTRUCTURE
     1 2DV         1 TEMP              0 ****  ****    0 ROOT
