@<TRIPOS>MOLECULE
2DV
   49    51     1     0     0
SMALL
bcc


@<TRIPOS>ATOM
      1 O           0.8340    2.6180   -1.2430 os        1 2DV     -0.443200
      2 C           1.9860    1.8640   -1.1040 c         1 2DV      0.723600
      3 OXT         2.7860    2.3710   -0.3270 o         1 2DV     -0.524500
      4 CA          2.2070    0.5790   -1.8720 c3        1 2DV     -0.040700
      5 N           1.0120    0.0570   -2.4590 na        1 2DV     -0.071400
      6 CBC         0.8980   -1.0560   -3.3030 ca        1 2DV     -0.035200
      7 CAO         1.7440   -2.1590   -3.4880 ca        1 2DV     -0.117000
      8 CAN         1.3350   -3.1590   -4.3560 ca        1 2DV     -0.151000
      9 CAY         0.0980   -3.0740   -5.0320 ca        1 2DV      0.101100
     10 OAU        -0.3680   -4.0390   -5.9060 os        1 2DV     -0.323900
     11 CAA         0.4720   -5.1680   -6.1120 c3        1 2DV      0.112700
     12 CAP        -0.7640   -1.9840   -4.8620 ca        1 2DV     -0.096000
     13 CBB        -0.3670   -0.9650   -4.0010 ca        1 2DV     -0.091800
     14 CAQ        -0.9810    0.2810   -3.5990 cc        1 2DV     -0.041200
     15 CBA        -0.1070    0.8930   -2.7040 cd        1 2DV     -0.181300
     16 CAW        -0.2210    2.1740   -2.0310 c         1 2DV      0.785800
     17 OAC        -1.1450    2.9840   -2.0510 o         1 2DV     -0.575500
     18 NAT        -2.3770    5.7270   -1.6500 n3        1 2DV     -1.031700
     19 SBF        -1.2240    6.5850   -2.3400 s6        1 2DV      1.469900
     20 OAD        -1.0490    6.2000   -3.6840 o         1 2DV     -0.656800
     21 OAE        -1.4500    7.9510   -2.0780 o         1 2DV     -0.656800
     22 CAS         0.1880    6.0720   -1.4580 c3        1 2DV     -0.269300
     23 CAX         1.4590    6.6670   -1.9300 ca        1 2DV     -0.017300
     24 CAJ         2.2440    7.4340   -1.0600 ca        1 2DV     -0.127500
     25 CAL         3.1200    6.9680   -3.6700 ca        1 2DV     -0.079000
     26 CAZ         3.8960    7.7270   -2.7920 ca        1 2DV     -0.170300
     27 CBE         5.2190    8.3120   -3.2670 c3        1 2DV      0.688200
     28 FAH         6.1540    8.4960   -2.2770 f         1 2DV     -0.239300
     29 FAI         5.8750    7.5530   -4.2060 f         1 2DV     -0.239300
     30 FAG         5.1130    9.5490   -3.8570 f         1 2DV     -0.239300
     31 CAM         3.4590    7.9650   -1.4880 ca        1 2DV     -0.079000
     32 CAK         1.9070    6.4380   -3.2390 ca        1 2DV     -0.127500
     33 H2          2.6270   -0.1890   -1.1560 h1        1 2DV      0.100200
     34 H3          2.9930    0.7910   -2.6580 h1        1 2DV      0.100200
     35 H4          2.7050   -2.2320   -2.9600 ha        1 2DV      0.143000
     36 H5          1.9910   -4.0290   -4.5140 ha        1 2DV      0.146000
     37 H6          0.6290   -5.7240   -5.1560 h1        1 2DV      0.047033
     38 H7          1.4510   -4.8580   -6.5530 h1        1 2DV      0.047033
     39 H8         -0.1080   -5.7910   -6.8400 h1        1 2DV      0.047033
     40 H9         -1.7230   -1.9430   -5.3970 ha        1 2DV      0.163000
     41 H10        -1.9440    0.6650   -3.9330 ha        1 2DV      0.181000
     42 H11        -3.0480    6.1130   -1.0340 hn        1 2DV      0.457300
     43 H12         0.0630    6.2990   -0.3650 h1        1 2DV      0.122200
     44 H13         0.2950    4.9480   -1.5130 h1        1 2DV      0.122200
     45 H14         1.9030    7.6220   -0.0300 ha        1 2DV      0.155500
     46 H15         3.4690    6.7890   -4.6990 ha        1 2DV      0.151000
     47 H16         4.0760    8.5640   -0.8010 ha        1 2DV      0.151000
     48 H17         1.2830    5.8530   -3.9380 ha        1 2DV      0.155500
     49 HAT2       -2.5020    4.7540   -1.7950 hn        1 2DV      0.457300
@<TRIPOS>BOND
     1    1    2 1   
     2    1   16 1   
     3    2    3 2   
     4    2    4 1   
     5    4    5 1   
     6    4   33 1   
     7    4   34 1   
     8    5    6 1   
     9    5   15 1   
    10    6    7 ar  
    11    6   13 ar  
    12    7    8 ar  
    13    7   35 1   
    14    8    9 ar  
    15    8   36 1   
    16    9   10 1   
    17    9   12 ar  
    18   10   11 1   
    19   11   37 1   
    20   11   38 1   
    21   11   39 1   
    22   12   13 ar  
    23   12   40 1   
    24   13   14 1   
    25   14   15 2   
    26   14   41 1   
    27   15   16 1   
    28   16   17 2   
    29   18   19 1   
    30   18   42 1   
    31   18   49 1   
    32   19   20 2   
    33   19   21 2   
    34   19   22 1   
    35   22   23 1   
    36   22   43 1   
    37   22   44 1   
    38   23   24 ar  
    39   23   32 ar  
    40   24   31 ar  
    41   24   45 1   
    42   25   26 ar  
    43   25   32 ar  
    44   25   46 1   
    45   26   27 1   
    46   26   31 ar  
    47   27   28 1   
    48   27   29 1   
    49   27   30 1   
    50   31   47 1   
    51   32   48 1   
@<TRIPOS>SUBSTRUCTURE
     1 2DV         1 TEMP              0 ****  ****    0 ROOT
