@<TRIPOS>MOLECULE
2DV
   49    51     1     0     0
SMALL
bcc


@<TRIPOS>ATOM
      1 O           0.8730    2.5830   -1.1850 os        1 2DV     -0.443200
      2 C           2.0330    1.8360   -1.0920 c         1 2DV      0.723600
      3 OXT         2.8480    2.3300   -0.3230 o         1 2DV     -0.524500
      4 CA          2.2450    0.5710   -1.8960 c3        1 2DV     -0.040700
      5 N           1.0400    0.0540   -2.4680 na        1 2DV     -0.071400
      6 CBC         0.9160   -1.0380   -3.3390 ca        1 2DV     -0.035200
      7 CAO         1.7670   -2.1280   -3.5720 ca        1 2DV     -0.117000
      8 CAN         1.3450   -3.1090   -4.4560 ca        1 2DV     -0.151000
      9 CAY         0.0920   -3.0150   -5.1020 ca        1 2DV      0.101100
     10 OAU        -0.3860   -3.9620   -5.9900 os        1 2DV     -0.323900
     11 CAA         0.4610   -5.0750   -6.2490 c3        1 2DV      0.112700
     12 CAP        -0.7730   -1.9380   -4.8840 ca        1 2DV     -0.096000
     13 CBB        -0.3650   -0.9380   -4.0050 ca        1 2DV     -0.091800
     14 CAQ        -0.9800    0.2920   -3.5570 cc        1 2DV     -0.041200
     15 CBA        -0.0900    0.8870   -2.6660 cd        1 2DV     -0.181300
     16 CAW        -0.1980    2.1500   -1.9590 c         1 2DV      0.785800
     17 OAC        -1.1280    2.9520   -1.9360 o         1 2DV     -0.575500
     18 NAT        -2.3540    5.6820   -1.4300 n8        1 2DV     -1.031700
     19 SBF        -1.2380    6.5560   -2.1600 s6        1 2DV      1.469900
     20 OAD        -1.1260    6.1920   -3.5170 o         1 2DV     -0.656800
     21 OAE        -1.4560    7.9170   -1.8670 o         1 2DV     -0.656800
     22 CAS         0.2160    6.0360   -1.3550 c3        1 2DV     -0.269300
     23 CAX         1.4620    6.6360   -1.8830 ca        1 2DV     -0.017300
     24 CAJ         2.2890    7.3940   -1.0440 ca        1 2DV     -0.127500
     25 CAL         3.0360    6.9550   -3.7000 ca        1 2DV     -0.079000
     26 CAZ         3.8550    7.7050   -2.8530 ca        1 2DV     -0.170300
     27 CBE         5.1540    8.2940   -3.3860 c3        1 2DV      0.688200
     28 FAH         6.1360    8.4680   -2.4410 f         1 2DV     -0.239300
     29 FAI         5.7630    7.5430   -4.3640 f         1 2DV     -0.239300
     30 FAG         5.0190    9.5360   -3.9580 f         1 2DV     -0.239300
     31 CAM         3.4830    7.9280   -1.5260 ca        1 2DV     -0.079000
     32 CAK         1.8450    6.4210   -3.2150 ca        1 2DV     -0.127500
     33 H2          2.6880   -0.2100   -1.2090 h1        1 2DV      0.100200
     34 H3          3.0110    0.8080   -2.6950 h1        1 2DV      0.100200
     35 H4          2.7400   -2.2060   -3.0670 ha        1 2DV      0.143000
     36 H5          2.0040   -3.9680   -4.6520 ha        1 2DV      0.146000
     37 H6          0.6460   -5.6570   -5.3140 h1        1 2DV      0.047033
     38 H7          1.4250   -4.7420   -6.7030 h1        1 2DV      0.047033
     39 H8         -0.1300   -5.6830   -6.9810 h1        1 2DV      0.047033
     40 H9         -1.7450   -1.8910   -5.3960 ha        1 2DV      0.163000
     41 H10        -1.9530    0.6760   -3.8580 ha        1 2DV      0.181000
     42 H11        -2.9950    6.0550   -0.7760 hn        1 2DV      0.457300
     43 H12         0.3210    4.9130   -1.4250 h1        1 2DV      0.122200
     44 H13         0.1450    6.2520   -0.2550 h1        1 2DV      0.122200
     45 H14         2.0000    7.5720    0.0030 ha        1 2DV      0.155500
     46 H15         3.3340    6.7860   -4.7460 ha        1 2DV      0.151000
     47 H16         4.1340    8.5210   -0.8640 ha        1 2DV      0.151000
     48 H17         1.1870    5.8440   -3.8880 ha        1 2DV      0.155500
     49 HAT2       -2.4810    4.7100   -1.5830 hn        1 2DV      0.457300
@<TRIPOS>BOND
     1    1    2 1   
     2    1   16 1   
     3    2    3 2   
     4    2    4 1   
     5    4    5 1   
     6    4   33 1   
     7    4   34 1   
     8    5    6 1   
     9    5   15 1   
    10    6    7 ar  
    11    6   13 ar  
    12    7    8 ar  
    13    7   35 1   
    14    8    9 ar  
    15    8   36 1   
    16    9   10 1   
    17    9   12 ar  
    18   10   11 1   
    19   11   37 1   
    20   11   38 1   
    21   11   39 1   
    22   12   13 ar  
    23   12   40 1   
    24   13   14 1   
    25   14   15 2   
    26   14   41 1   
    27   15   16 1   
    28   16   17 2   
    29   18   19 1   
    30   18   42 1   
    31   18   49 1   
    32   19   20 2   
    33   19   21 2   
    34   19   22 1   
    35   22   23 1   
    36   22   43 1   
    37   22   44 1   
    38   23   24 ar  
    39   23   32 ar  
    40   24   31 ar  
    41   24   45 1   
    42   25   26 ar  
    43   25   32 ar  
    44   25   46 1   
    45   26   27 1   
    46   26   31 ar  
    47   27   28 1   
    48   27   29 1   
    49   27   30 1   
    50   31   47 1   
    51   32   48 1   
@<TRIPOS>SUBSTRUCTURE
     1 2DV         1 TEMP              0 ****  ****    0 ROOT
