@<TRIPOS>MOLECULE
2DW
   49    52     1     0     0
SMALL
bcc


@<TRIPOS>ATOM
      1 O           0.8330   -1.5530   -2.1620 os        1 2DW     -0.450200
      2 C           1.6390   -0.6110   -1.5550 c         1 2DW      0.724600
      3 OXT         2.3380   -1.0960   -0.6730 o         1 2DW     -0.533500
      4 CA          1.6490    0.8420   -1.9790 c3        1 2DW     -0.037700
      5 N           0.5760    1.1850   -2.8590 na        1 2DW     -0.074400
      6 CBC         0.3600    2.4100   -3.5030 ca        1 2DW     -0.034200
      7 CAN         0.8600    3.6920   -3.2320 ca        1 2DW     -0.118000
      8 CAI         0.4150    4.7460   -4.0150 ca        1 2DW     -0.151000
      9 CAW        -0.5190    4.5360   -5.0530 ca        1 2DW      0.099100
     10 OAT        -1.0020    5.5460   -5.8670 os        1 2DW     -0.324900
     11 CAA        -0.5220    6.8580   -5.6030 c3        1 2DW      0.112700
     12 CAO        -1.0330    3.2670   -5.3410 ca        1 2DW     -0.096000
     13 CBB        -0.5930    2.1930   -4.5710 ca        1 2DW     -0.091800
     14 CAQ        -0.8960    0.7800   -4.5870 cc        1 2DW     -0.047200
     15 CAY        -0.1460    0.1940   -3.5690 cd        1 2DW     -0.175300
     16 CAV        -0.0540   -1.2010   -3.1760 c         1 2DW      0.775800
     17 OAC        -0.6520   -2.1780   -3.6140 o         1 2DW     -0.541500
     18 NAS         0.8400   -4.4670   -2.2160 n8        1 2DW     -1.033700
     19 SBE         1.1000   -6.0300   -2.0760 sy        1 2DW      1.525200
     20 OAD         0.6630   -6.6950   -3.2430 o         1 2DW     -0.664800
     21 OAE         2.4340   -6.2600   -1.6670 o         1 2DW     -0.664800
     22 CAX         0.0840   -6.4830   -0.7940 ca        1 2DW     -0.371500
     23 CAP         0.5440   -6.5440    0.5040 ca        1 2DW      0.021000
     24 CBA        -0.3040   -6.9360    1.5720 ca        1 2DW     -0.072000
     25 CAL         0.1650   -7.0000    2.9130 ca        1 2DW     -0.099000
     26 CAH        -0.6790   -7.3800    3.9270 ca        1 2DW     -0.139000
     27 CAG        -2.0270   -7.7140    3.6480 ca        1 2DW     -0.107000
     28 CAK        -2.5050   -7.6630    2.3620 ca        1 2DW     -0.133000
     29 CAZ        -1.6540   -7.2730    1.2920 ca        1 2DW      0.007000
     30 CAM        -2.1130   -7.2170   -0.0520 ca        1 2DW     -0.140000
     31 CAJ        -1.2660   -6.8340   -1.0610 ca        1 2DW     -0.043000
     32 H2          1.5770    1.4770   -1.0470 h1        1 2DW      0.099700
     33 H3          2.6530    1.0420   -2.4620 h1        1 2DW      0.099700
     34 H4          1.5830    3.8600   -2.4220 ha        1 2DW      0.142000
     35 H5          0.8020    5.7570   -3.8170 ha        1 2DW      0.145000
     36 H6         -0.7990    7.1810   -4.5700 h1        1 2DW      0.046700
     37 H7          0.5840    6.9120   -5.7490 h1        1 2DW      0.046700
     38 H8         -1.0510    7.4840   -6.3660 h1        1 2DW      0.046700
     39 H9         -1.7630    3.1310   -6.1510 ha        1 2DW      0.162000
     40 H10        -1.5820    0.2720   -5.2620 ha        1 2DW      0.181000
     41 H11         0.1590   -4.0660   -2.8170 hn        1 2DW      0.460800
     42 H12         1.5990   -6.2980    0.7280 ha        1 2DW      0.154000
     43 H13         1.2150   -6.7400    3.1180 ha        1 2DW      0.138000
     44 H14        -0.3200   -7.4320    4.9660 ha        1 2DW      0.135000
     45 H15        -2.6830   -8.0170    4.4780 ha        1 2DW      0.134000
     46 H16        -3.5500   -7.9230    2.1360 ha        1 2DW      0.136000
     47 H17        -3.1570   -7.4900   -0.2660 ha        1 2DW      0.138000
     48 H18        -1.6150   -6.8120   -2.1080 ha        1 2DW      0.152000
     49 HAS2        1.3300   -3.7720   -1.7060 hn        1 2DW      0.460800
@<TRIPOS>BOND
     1    1    2 1   
     2    1   16 1   
     3    2    3 2   
     4    2    4 1   
     5    4    5 1   
     6    4   32 1   
     7    4   33 1   
     8    5    6 1   
     9    5   15 1   
    10    6    7 ar  
    11    6   13 ar  
    12    7    8 ar  
    13    7   34 1   
    14    8    9 ar  
    15    8   35 1   
    16    9   10 1   
    17    9   12 ar  
    18   10   11 1   
    19   11   36 1   
    20   11   37 1   
    21   11   38 1   
    22   12   13 ar  
    23   12   39 1   
    24   13   14 1   
    25   14   15 2   
    26   14   40 1   
    27   15   16 1   
    28   16   17 2   
    29   18   19 1   
    30   18   41 1   
    31   18   49 1   
    32   19   20 2   
    33   19   21 2   
    34   19   22 1   
    35   22   23 ar  
    36   22   31 ar  
    37   23   24 ar  
    38   23   42 1   
    39   24   25 ar  
    40   24   29 ar  
    41   25   26 ar  
    42   25   43 1   
    43   26   27 ar  
    44   26   44 1   
    45   27   28 ar  
    46   27   45 1   
    47   28   29 ar  
    48   28   46 1   
    49   29   30 ar  
    50   30   31 ar  
    51   30   47 1   
    52   31   48 1   
@<TRIPOS>SUBSTRUCTURE
     1 2DW         1 TEMP              0 ****  ****    0 ROOT
