@<TRIPOS>MOLECULE
2DW
   48    51     1     0     0
SMALL
bcc


@<TRIPOS>ATOM
      1 O          -2.0070   -1.6120   -1.2840 o         1 2DW     -0.824300
      2 C          -1.0610   -1.1820   -0.5640 c         1 2DW      0.905600
      3 OXT        -1.1210   -1.0750    0.6900 o         1 2DW     -0.824300
      4 CA          0.3150   -0.8390   -1.1990 c3        1 2DW     -0.105700
      5 N           0.3300   -0.4300   -2.5740 na        1 2DW     -0.000400
      6 CBC         0.3470    0.8920   -3.0290 ca        1 2DW     -0.052200
      7 CAN         0.2700    2.1070   -2.3230 ca        1 2DW     -0.099000
      8 CAI         0.3170    3.2870   -3.0420 ca        1 2DW     -0.177000
      9 CAW         0.4340    3.2710   -4.4520 ca        1 2DW      0.066100
     10 OAT         0.5410    4.4410   -5.2000 os        1 2DW     -0.343900
     11 CAA        -0.1280    5.5690   -4.6530 c3        1 2DW      0.119700
     12 CAO         0.5020    2.0860   -5.1790 ca        1 2DW     -0.108000
     13 CBB         0.4660    0.8810   -4.4740 ca        1 2DW     -0.084800
     14 CAQ         0.5140   -0.5000   -4.8690 cc        1 2DW     -0.167200
     15 CAY         0.4220   -1.2610   -3.6970 cd        1 2DW     -0.104300
     16 CAV         0.4010   -2.7490   -3.6390 c         1 2DW      0.731300
     17 OAC         1.3870   -3.4270   -3.9680 o         1 2DW     -0.567100
     18 NAS        -0.7950   -3.3300   -3.2350 n         1 2DW     -0.681300
     19 SBE        -1.2290   -4.9090   -3.1300 sy        1 2DW      1.510900
     20 OAD        -2.6350   -4.9870   -3.2360 o         1 2DW     -0.654300
     21 OAE        -0.5470   -5.7240   -4.0560 o         1 2DW     -0.654300
     22 CAX        -0.7630   -5.3290   -1.5660 ca        1 2DW     -0.394500
     23 CAP        -1.0780   -4.5510   -0.4710 ca        1 2DW      0.037000
     24 CBA        -0.6700   -4.9210    0.8390 ca        1 2DW     -0.080000
     25 CAL        -0.9210   -4.0690    1.9500 ca        1 2DW     -0.069000
     26 CAH        -0.5370   -4.4590    3.2120 ca        1 2DW     -0.165000
     27 CAG         0.1140   -5.6980    3.4120 ca        1 2DW     -0.106000
     28 CAK         0.3930   -6.5240    2.3480 ca        1 2DW     -0.157000
     29 CAZ         0.0170   -6.1460    1.0320 ca        1 2DW      0.010000
     30 CAM         0.3200   -6.9470   -0.1050 ca        1 2DW     -0.159000
     31 CAJ        -0.0440   -6.5390   -1.3610 ca        1 2DW     -0.038000
     32 H2          0.7770   -0.0160   -0.5850 h1        1 2DW      0.059700
     33 H3          0.9550   -1.7610   -1.1000 h1        1 2DW      0.059700
     34 H4          0.1610    2.1130   -1.2290 ha        1 2DW      0.146000
     35 H5          0.2590    4.2470   -2.5130 ha        1 2DW      0.126000
     36 H6         -0.1850    6.2900   -5.5070 h1        1 2DW      0.033367
     37 H7         -1.1510    5.3030   -4.2920 h1        1 2DW      0.033367
     38 H8          0.4750    6.0040   -3.8190 h1        1 2DW      0.033367
     39 H9          0.5910    2.1010   -6.2730 ha        1 2DW      0.140000
     40 H10         0.6060   -0.8820   -5.8800 ha        1 2DW      0.156000
     41 H11        -1.4660   -2.6470   -2.8880 hn        1 2DW      0.396500
     42 H12        -1.6530   -3.6020   -0.5790 ha        1 2DW      0.204000
     43 H13        -1.3930   -3.0820    1.7620 ha        1 2DW      0.199000
     44 H14        -0.7240   -3.8050    4.0760 ha        1 2DW      0.131000
     45 H15         0.4050   -5.9890    4.4320 ha        1 2DW      0.118000
     46 H16         0.9130   -7.4810    2.4950 ha        1 2DW      0.122000
     47 H17         0.8610   -7.8920    0.0450 ha        1 2DW      0.125000
     48 H18         0.2190   -7.1440   -2.2470 ha        1 2DW      0.152000
@<TRIPOS>BOND
     1    1    2 1   
     2    2    3 1   
     3    2    4 1   
     4    4    5 1   
     5    4   32 1   
     6    4   33 1   
     7    5    6 1   
     8    5   15 1   
     9    6    7 ar  
    10    6   13 ar  
    11    7    8 ar  
    12    7   34 1   
    13    8    9 ar  
    14    8   35 1   
    15    9   10 1   
    16    9   12 ar  
    17   10   11 1   
    18   11   36 1   
    19   11   37 1   
    20   11   38 1   
    21   12   13 ar  
    22   12   39 1   
    23   13   14 1   
    24   14   15 2   
    25   14   40 1   
    26   15   16 1   
    27   16   17 2   
    28   16   18 1   
    29   18   19 1   
    30   18   41 1   
    31   19   20 2   
    32   19   21 2   
    33   19   22 1   
    34   22   23 ar  
    35   22   31 ar  
    36   23   24 ar  
    37   23   42 1   
    38   24   25 ar  
    39   24   29 ar  
    40   25   26 ar  
    41   25   43 1   
    42   26   27 ar  
    43   26   44 1   
    44   27   28 ar  
    45   27   45 1   
    46   28   29 ar  
    47   28   46 1   
    48   29   30 ar  
    49   30   31 ar  
    50   30   47 1   
    51   31   48 1   
@<TRIPOS>SUBSTRUCTURE
     1 2DW         1 TEMP              0 ****  ****    0 ROOT
