@<TRIPOS>MOLECULE
2DW
   49    52     1     0     0
SMALL
bcc


@<TRIPOS>ATOM
      1 O           0.1480   -2.2060   -0.8350 o         1 2DW     -0.824300
      2 C           0.7510   -1.2680   -0.2020 c         1 2DW      0.926600
      3 OXT         0.9420   -1.3110    1.0320 o         1 2DW     -0.824300
      4 CA          1.3140   -0.0670   -0.9920 c3        1 2DW     -0.094700
      5 N           0.8740    0.0590   -2.3540 na        1 2DW      0.007600
      6 CBC         0.4330    1.2360   -2.9680 ca        1 2DW     -0.057200
      7 CAN         0.4510    2.5700   -2.5180 ca        1 2DW     -0.100000
      8 CAI        -0.0300    3.5530   -3.3600 ca        1 2DW     -0.164000
      9 CAW        -0.5270    3.2320   -4.6470 ca        1 2DW      0.099100
     10 OAT        -1.0210    4.1750   -5.5340 os        1 2DW     -0.329900
     11 CAA        -0.9910    5.5280   -5.0990 c3        1 2DW      0.114700
     12 CAO        -0.5560    1.9210   -5.1200 ca        1 2DW     -0.116000
     13 CBB        -0.0800    0.9100   -4.2820 ca        1 2DW     -0.072800
     14 CAQ         0.0350   -0.5140   -4.4280 cc        1 2DW     -0.171200
     15 CAY         0.6050   -0.9950   -3.2390 cd        1 2DW     -0.128300
     16 CAV         0.9110   -2.3920   -2.9140 c         1 2DW      0.662300
     17 OAC         1.9770   -2.8790   -2.5550 o         1 2DW     -0.478100
     18 NAS        -0.2280   -3.3480   -3.1870 n4        1 2DW     -0.614700
     19 SBE         0.1260   -5.1790   -3.2120 sy        1 2DW      1.482200
     20 OAD        -0.8280   -5.5940   -4.1440 o         1 2DW     -0.597300
     21 OAE         1.4480   -5.3070   -3.5840 o         1 2DW     -0.597300
     22 CAX        -0.2520   -5.5550   -1.6960 ca        1 2DW     -0.542500
     23 CAP         0.2850   -4.9250   -0.5780 ca        1 2DW      0.135000
     24 CBA        -0.1230   -5.2630    0.7340 ca        1 2DW     -0.094000
     25 CAL         0.3190   -4.5030    1.8530 ca        1 2DW     -0.049000
     26 CAH        -0.0700   -4.8690    3.1220 ca        1 2DW     -0.149000
     27 CAG        -0.9130   -5.9850    3.3180 ca        1 2DW     -0.069000
     28 CAK        -1.3880   -6.7090    2.2450 ca        1 2DW     -0.161000
     29 CAZ        -1.0180   -6.3490    0.9280 ca        1 2DW      0.034000
     30 CAM        -1.5360   -7.0190   -0.2220 ca        1 2DW     -0.129000
     31 CAJ        -1.1900   -6.6190   -1.4790 ca        1 2DW     -0.056000
     32 H2          2.4380   -0.1710   -0.9900 h1        1 2DW      0.080200
     33 H3          1.0380    0.8730   -0.4370 h1        1 2DW      0.080200
     34 H4          0.8370    2.8230   -1.5200 ha        1 2DW      0.145000
     35 H5         -0.0250    4.5990   -3.0180 ha        1 2DW      0.141000
     36 H6         -1.4210    6.0890   -5.9680 h1        1 2DW      0.043700
     37 H7          0.0570    5.8590   -4.8980 h1        1 2DW      0.043700
     38 H8         -1.6270    5.6670   -4.1910 h1        1 2DW      0.043700
     39 H9         -0.9420    1.6960   -6.1230 ha        1 2DW      0.153000
     40 H10        -0.2310   -1.0880   -5.3100 ha        1 2DW      0.152000
     41 H11        -0.8910   -3.1460   -2.4210 hn        1 2DW      0.473300
     42 H12         1.0330   -4.1070   -0.6890 ha        1 2DW      0.202000
     43 H13         0.9250   -3.5910    1.6720 ha        1 2DW      0.199000
     44 H14         0.2610   -4.2830    3.9930 ha        1 2DW      0.150000
     45 H15        -1.2000   -6.2640    4.3440 ha        1 2DW      0.139000
     46 H16        -2.0640   -7.5640    2.3960 ha        1 2DW      0.140000
     47 H17        -2.2350   -7.8560   -0.0700 ha        1 2DW      0.147000
     48 H18        -1.6300   -7.1130   -2.3630 ha        1 2DW      0.152000
     49 HAS2       -0.6780   -3.0650   -4.0550 hn        1 2DW      0.473300
@<TRIPOS>BOND
     1    1    2 1   
     2    2    3 1   
     3    2    4 1   
     4    4    5 1   
     5    4   32 1   
     6    4   33 1   
     7    5    6 1   
     8    5   15 1   
     9    6    7 ar  
    10    6   13 ar  
    11    7    8 ar  
    12    7   34 1   
    13    8    9 ar  
    14    8   35 1   
    15    9   10 1   
    16    9   12 ar  
    17   10   11 1   
    18   11   36 1   
    19   11   37 1   
    20   11   38 1   
    21   12   13 ar  
    22   12   39 1   
    23   13   14 1   
    24   14   15 2   
    25   14   40 1   
    26   15   16 1   
    27   16   17 2   
    28   16   18 1   
    29   18   19 1   
    30   18   41 1   
    31   18   49 1   
    32   19   20 2   
    33   19   21 2   
    34   19   22 1   
    35   22   23 ar  
    36   22   31 ar  
    37   23   24 ar  
    38   23   42 1   
    39   24   25 ar  
    40   24   29 ar  
    41   25   26 ar  
    42   25   43 1   
    43   26   27 ar  
    44   26   44 1   
    45   27   28 ar  
    46   27   45 1   
    47   28   29 ar  
    48   28   46 1   
    49   29   30 ar  
    50   30   31 ar  
    51   30   47 1   
    52   31   48 1   
@<TRIPOS>SUBSTRUCTURE
     1 2DW         1 TEMP              0 ****  ****    0 ROOT
