@<TRIPOS>MOLECULE
2DX
   84    88     1     0     0
SMALL
bcc


@<TRIPOS>ATOM
      1 C1          7.5270   -0.7800   -2.3830 c3        1 2DX     -0.097100
      2 C2          6.4280   -0.9820   -1.3760 c3        1 2DX     -0.103400
      3 C3          5.3420    0.1010   -1.4680 c3        1 2DX      0.113500
      4 N5          5.7880    1.4580   -1.2020 n3        1 2DX     -0.838200
      5 C6          6.0840    2.2450   -2.3690 c3        1 2DX      0.153100
      6 C7          4.1980   -0.3010   -0.5000 c         1 2DX      0.663100
      7 O8          4.1890   -1.4210    0.0500 o         1 2DX     -0.631100
      8 N9          3.1600    0.5880   -0.3350 n         1 2DX     -0.546900
      9 C10         2.0580    0.3310    0.5550 c3        1 2DX      0.047700
     10 C12         1.7160    1.5070    1.5030 c3        1 2DX     -0.075700
     11 C13         0.6290    1.0550    2.4720 c3        1 2DX     -0.077900
     12 C14         0.2630    2.1670    3.4310 c3        1 2DX     -0.074400
     13 C15         1.4770    2.6540    4.1950 c3        1 2DX     -0.079400
     14 C16         2.5800    3.0800    3.2480 c3        1 2DX     -0.074400
     15 C17         2.9410    1.9750    2.2750 c3        1 2DX     -0.077900
     16 C18         0.7860    0.0500   -0.2890 c         1 2DX      0.646100
     17 O19         0.1820    1.0020   -0.8260 o         1 2DX     -0.625100
     18 N20         0.3530   -1.2560   -0.5070 n         1 2DX     -0.433800
     19 C21         0.9290   -2.3720    0.2260 c3        1 2DX      0.083000
     20 C22         0.6100   -3.7120   -0.4590 c3        1 2DX      0.169500
     21 C24         1.0090   -4.9780    0.3170 c3        1 2DX     -0.073400
     22 C25        -0.0330   -6.0190   -0.1110 c3        1 2DX     -0.084400
     23 C26        -1.1380   -5.2420   -0.8630 c3        1 2DX      0.184800
     24 N27        -0.8400   -3.8340   -0.6700 n3        1 2DX     -0.753600
     25 C28        -1.3260   -2.8360   -1.5800 c3        1 2DX      0.196800
     26 C29        -0.9900   -1.4090   -1.0510 c3        1 2DX      0.034700
     27 C31        -2.0810   -0.9970   -0.0290 c         1 2DX      0.640100
     28 O32        -1.9020   -1.0600    1.2000 o         1 2DX     -0.592100
     29 N33        -3.2910   -0.5780   -0.5670 n         1 2DX     -0.550900
     30 C34        -4.2680    0.1220    0.2400 c3        1 2DX      0.146000
     31 C35        -5.6700   -0.4890    0.0620 c3        1 2DX     -0.118400
     32 C36        -6.6820    0.3620    0.7960 c3        1 2DX      0.128400
     33 O37        -6.7720    1.6800    0.2480 os        1 2DX     -0.328900
     34 C38        -5.5560    2.2920    0.0030 ca        1 2DX      0.132100
     35 C39        -5.6260    3.6750   -0.2370 ca        1 2DX     -0.159000
     36 C40        -4.4570    4.3750   -0.5130 ca        1 2DX     -0.101000
     37 C41        -3.2300    3.7110   -0.5410 ca        1 2DX     -0.161000
     38 C42        -3.1670    2.3410   -0.3020 ca        1 2DX     -0.090000
     39 C43        -4.3290    1.6070   -0.0380 ca        1 2DX     -0.181300
     40 H1          8.2120   -1.6630   -2.3800 hc        1 2DX      0.035367
     41 H2          7.1100   -0.6630   -3.4130 hc        1 2DX      0.035367
     42 H3          8.1330    0.1280   -2.1440 hc        1 2DX      0.035367
     43 H4          5.9360   -1.9770   -1.5430 hc        1 2DX      0.065700
     44 H5          6.8510   -1.0010   -0.3370 hc        1 2DX      0.065700
     45 H6          4.8920    0.0550   -2.5060 h1        1 2DX      0.074700
     46 H7          6.5590    1.4540   -0.5610 hn        1 2DX      0.373800
     47 H9          6.8760    1.7980   -3.0310 h1        1 2DX      0.035033
     48 H10         5.1490    2.3680   -2.9770 h1        1 2DX      0.035033
     49 H11         6.4300    3.2580   -2.0330 h1        1 2DX      0.035033
     50 H12         3.2220    1.5020   -0.7200 hn        1 2DX      0.333500
     51 H13         2.3190   -0.5570    1.2060 h1        1 2DX      0.098700
     52 H14         1.3200    2.3620    0.8870 hc        1 2DX      0.074700
     53 H15        -0.2830    0.7340    1.8980 hc        1 2DX      0.049200
     54 H16         0.9910    0.1650    3.0530 hc        1 2DX      0.049200
     55 H17        -0.1900    3.0200    2.8610 hc        1 2DX      0.041700
     56 H18        -0.5120    1.7940    4.1510 hc        1 2DX      0.041700
     57 H19         1.1900    3.5160    4.8500 hc        1 2DX      0.039200
     58 H20         1.8530    1.8340    4.8620 hc        1 2DX      0.039200
     59 H21         2.2490    3.9860    2.6760 hc        1 2DX      0.041700
     60 H22         3.4900    3.3660    3.8360 hc        1 2DX      0.041700
     61 H23         3.3830    1.1090    2.8330 hc        1 2DX      0.049200
     62 H24         3.7230    2.3590    1.5690 hc        1 2DX      0.049200
     63 H25         2.0530   -2.2640    0.2400 h1        1 2DX      0.075200
     64 H26         0.5370   -2.3820    1.2840 h1        1 2DX      0.075200
     65 H27         1.1620   -3.7280   -1.4510 h1        1 2DX      0.030700
     66 H28         2.0440   -5.2940    0.0490 hc        1 2DX      0.055700
     67 H29         0.9670   -4.7990    1.4180 hc        1 2DX      0.055700
     68 H30         0.4200   -6.7870   -0.7810 hc        1 2DX      0.048700
     69 H31        -0.4610   -6.5400    0.7790 hc        1 2DX      0.048700
     70 H32        -1.1550   -5.5410   -1.9480 h1        1 2DX      0.035700
     71 H33        -2.1520   -5.4490   -0.4280 h1        1 2DX      0.035700
     72 H35        -0.8800   -2.9310   -2.6150 h1        1 2DX      0.043200
     73 H36        -2.4420   -2.9390   -1.6730 h1        1 2DX      0.043200
     74 H37        -1.0510   -0.7050   -1.9390 h1        1 2DX      0.086700
     75 H38        -3.3190   -0.3770   -1.5400 hn        1 2DX      0.302500
     76 H39        -3.9680   -0.0060    1.3290 h1        1 2DX      0.098700
     77 H40        -5.9410   -0.5400   -1.0240 hc        1 2DX      0.062700
     78 H41        -5.6850   -1.5300    0.4740 hc        1 2DX      0.062700
     79 H42        -7.7230   -0.0410    0.6750 h1        1 2DX      0.059200
     80 H43        -6.4270    0.4430    1.8860 h1        1 2DX      0.059200
     81 H44        -6.6020    4.1790   -0.2040 ha        1 2DX      0.147000
     82 H45        -4.5030    5.4570   -0.7050 ha        1 2DX      0.132000
     83 H46        -2.3060    4.2700   -0.7500 ha        1 2DX      0.137000
     84 H47        -2.1830    1.8390   -0.3190 ha        1 2DX      0.155000
@<TRIPOS>BOND
     1    1    2 1   
     2    1   40 1   
     3    1   41 1   
     4    1   42 1   
     5    2    3 1   
     6    2   43 1   
     7    2   44 1   
     8    3    4 1   
     9    3    6 1   
    10    3   45 1   
    11    4    5 1   
    12    4   46 1   
    13    5   47 1   
    14    5   48 1   
    15    5   49 1   
    16    6    7 2   
    17    6    8 1   
    18    8    9 1   
    19    8   50 1   
    20    9   10 1   
    21    9   16 1   
    22    9   51 1   
    23   10   11 1   
    24   10   15 1   
    25   10   52 1   
    26   11   12 1   
    27   11   53 1   
    28   11   54 1   
    29   12   13 1   
    30   12   55 1   
    31   12   56 1   
    32   13   14 1   
    33   13   57 1   
    34   13   58 1   
    35   14   15 1   
    36   14   59 1   
    37   14   60 1   
    38   15   61 1   
    39   15   62 1   
    40   16   17 2   
    41   16   18 1   
    42   18   19 1   
    43   18   26 1   
    44   19   20 1   
    45   19   63 1   
    46   19   64 1   
    47   20   21 1   
    48   20   24 1   
    49   20   65 1   
    50   21   22 1   
    51   21   66 1   
    52   21   67 1   
    53   22   23 1   
    54   22   68 1   
    55   22   69 1   
    56   23   24 1   
    57   23   70 1   
    58   23   71 1   
    59   24   25 1   
    60   25   26 1   
    61   25   72 1   
    62   25   73 1   
    63   26   27 1   
    64   26   74 1   
    65   27   28 2   
    66   27   29 1   
    67   29   30 1   
    68   29   75 1   
    69   30   31 1   
    70   30   39 1   
    71   30   76 1   
    72   31   32 1   
    73   31   77 1   
    74   31   78 1   
    75   32   33 1   
    76   32   79 1   
    77   32   80 1   
    78   33   34 1   
    79   34   35 ar  
    80   34   39 ar  
    81   35   36 ar  
    82   35   81 1   
    83   36   37 ar  
    84   36   82 1   
    85   37   38 ar  
    86   37   83 1   
    87   38   39 ar  
    88   38   84 1   
@<TRIPOS>SUBSTRUCTURE
     1 2DX         1 TEMP              0 ****  ****    0 ROOT
