@<TRIPOS>MOLECULE
2DX
   87    91     1     0     0
SMALL
bcc


@<TRIPOS>ATOM
      1 C1         -0.4850   -0.3930    1.8190 c3        1 2DX     -0.138100
      2 C2          0.8720   -0.5350    1.1760 c3        1 2DX     -0.111400
      3 C3          1.9430    0.3290    1.8710 c3        1 2DX      0.050500
      4 N5          1.5780    1.7890    1.8510 n4        1 2DX     -0.759000
      5 C6          2.2970    2.5880    2.8750 c3        1 2DX      0.068100
      6 C7          3.3000    0.0940    1.1870 c         1 2DX      0.523100
      7 O8          3.8890    0.9220    0.5060 o         1 2DX     -0.387100
      8 N9          3.8950   -1.2650    1.3420 n4        1 2DX     -0.662800
      9 C10         5.4250   -1.2900    1.3960 c3        1 2DX      0.073500
     10 C12         5.9130   -1.1200    2.8500 c3        1 2DX     -0.088700
     11 C13         7.4300   -1.2740    2.9250 c3        1 2DX     -0.077400
     12 C14         7.9220   -1.0770    4.3470 c3        1 2DX     -0.081400
     13 C15         7.4960    0.2600    4.9090 c3        1 2DX     -0.087400
     14 C16         5.9940    0.4300    4.8190 c3        1 2DX     -0.081400
     15 C17         5.5090    0.2450    3.3940 c3        1 2DX     -0.077400
     16 C18         5.8670   -2.6700    0.8290 c         1 2DX      0.648100
     17 O19         5.1120   -3.6390    1.0670 o         1 2DX     -0.596100
     18 N20         6.9870   -2.8100    0.0430 n         1 2DX     -0.428800
     19 C21         7.9590   -1.7560   -0.2390 c3        1 2DX      0.082000
     20 C22         8.5100   -1.8730   -1.6770 c3        1 2DX      0.152500
     21 C24         9.7140   -0.9810   -2.0180 c3        1 2DX     -0.073400
     22 C25        10.4610   -1.7730   -3.0990 c3        1 2DX     -0.086400
     23 C26         9.8480   -3.1930   -3.1030 c3        1 2DX      0.169800
     24 N27         8.9680   -3.2520   -1.9390 n3        1 2DX     -0.793600
     25 C28         7.8580   -4.1640   -1.8620 c3        1 2DX      0.161800
     26 C29         7.3770   -4.1610   -0.3710 c3        1 2DX      0.037700
     27 C31         8.4610   -4.7010    0.5940 c         1 2DX      0.527100
     28 O32         8.5000   -4.4360    1.7890 o         1 2DX     -0.429100
     29 N33         9.5250   -5.5810    0.0320 n4        1 2DX     -0.667800
     30 C34        10.1840   -6.5350    1.0360 c3        1 2DX      0.213800
     31 C35        11.6970   -6.5790    0.7780 c3        1 2DX     -0.144400
     32 C36        12.2810   -7.8500    1.3670 c3        1 2DX      0.129400
     33 O37        11.7090   -9.0070    0.7500 os        1 2DX     -0.291900
     34 C38        10.3330   -9.0400    0.7940 ca        1 2DX      0.178100
     35 C39         9.7380  -10.3130    0.6780 ca        1 2DX     -0.126000
     36 C40         8.3560  -10.4180    0.7260 ca        1 2DX     -0.049000
     37 C41         7.5610   -9.2740    0.9060 ca        1 2DX     -0.138000
     38 C42         8.1510   -8.0250    1.0120 ca        1 2DX     -0.116000
     39 C43         9.5490   -7.8830    0.9270 ca        1 2DX     -0.263300
     40 H1         -0.9980    0.5540    1.5200 hc        1 2DX      0.086367
     41 H2         -1.1440   -1.2360    1.4730 hc        1 2DX      0.086367
     42 H3         -0.4250   -0.4500    2.9330 hc        1 2DX      0.086367
     43 H4          0.8080   -0.2760    0.0840 hc        1 2DX      0.093200
     44 H5          1.1950   -1.6090    1.2570 hc        1 2DX      0.093200
     45 H6          2.0150    0.0260    2.9650 hx        1 2DX      0.152700
     46 H7          1.7690    2.1800    0.9150 hn        1 2DX      0.487800
     47 H9          1.9850    3.6690    2.7710 hx        1 2DX      0.127700
     48 H10         3.4050    2.5040    2.7110 hx        1 2DX      0.127700
     49 H11         2.0280    2.2280    3.9050 hx        1 2DX      0.127700
     50 H12         3.5910   -1.8530    0.5450 hn        1 2DX      0.487800
     51 H13         5.7870   -0.4320    0.7560 hx        1 2DX      0.139700
     52 H14         5.4580   -1.9320    3.4900 hc        1 2DX      0.095700
     53 H15         7.9170   -0.5220    2.2490 hc        1 2DX      0.035950
     54 H16         7.7240   -2.3040    2.5880 hc        1 2DX      0.035950
     55 H17         7.5310   -1.9050    4.9970 hc        1 2DX      0.070700
     56 H18         9.0420   -1.1470    4.3540 hc        1 2DX      0.070700
     57 H19         8.0060    1.0900    4.3520 hc        1 2DX      0.076700
     58 H20         7.8150    0.3340    5.9830 hc        1 2DX      0.076700
     59 H21         5.4890   -0.3140    5.4900 hc        1 2DX      0.070700
     60 H22         5.7110    1.4560    5.1760 hc        1 2DX      0.070700
     61 H23         4.3900    0.3590    3.3750 hc        1 2DX      0.035950
     62 H24         5.9430    1.0530    2.7450 hc        1 2DX      0.035950
     63 H25         8.8030   -1.8310    0.5070 h1        1 2DX      0.071200
     64 H26         7.4810   -0.7450   -0.1350 h1        1 2DX      0.071200
     65 H27         7.6640   -1.5950   -2.3810 h1        1 2DX      0.052700
     66 H28        10.3610   -0.8120   -1.1230 hc        1 2DX      0.071700
     67 H29         9.3750    0.0120   -2.4000 hc        1 2DX      0.071700
     68 H30        11.5550   -1.8170   -2.8760 hc        1 2DX      0.084200
     69 H31        10.3330   -1.3000   -4.1040 hc        1 2DX      0.084200
     70 H32         9.3030   -3.3850   -4.0680 h1        1 2DX      0.063200
     71 H33        10.6410   -3.9780   -2.9820 h1        1 2DX      0.063200
     72 H35         8.1520   -5.1950   -2.1940 h1        1 2DX      0.078200
     73 H36         6.9740   -3.8680   -2.5030 h1        1 2DX      0.078200
     74 H37         6.4920   -4.8640   -0.2740 h1        1 2DX      0.148700
     75 H38         9.1260   -6.1550   -0.7230 hn        1 2DX      0.472300
     76 H39         9.9930   -6.1040    2.0670 hx        1 2DX      0.126700
     77 H40        11.9250   -6.5700   -0.3220 hc        1 2DX      0.081200
     78 H41        12.1920   -5.6910    1.2500 hc        1 2DX      0.081200
     79 H42        12.1190   -7.9000    2.4760 h1        1 2DX      0.099200
     80 H43        13.3770   -7.9410    1.1300 h1        1 2DX      0.099200
     81 H44        10.3840  -11.2000    0.5620 ha        1 2DX      0.190000
     82 H45         7.8770  -11.4090    0.6400 ha        1 2DX      0.175000
     83 H46         6.4680   -9.3800    0.9770 ha        1 2DX      0.157000
     84 H47         7.5230   -7.1400    1.1910 ha        1 2DX      0.104000
     85 H52         0.5570    1.8540    2.0230 hn        1 2DX      0.487800
     86 H92         3.5470   -1.7160    2.2030 hn        1 2DX      0.487800
     87 H332       10.2480   -4.9670   -0.3740 hn        1 2DX      0.472300
@<TRIPOS>BOND
     1    1    2 1   
     2    1   40 1   
     3    1   41 1   
     4    1   42 1   
     5    2    3 1   
     6    2   43 1   
     7    2   44 1   
     8    3    4 1   
     9    3    6 1   
    10    3   45 1   
    11    4    5 1   
    12    4   46 1   
    13    4   85 1   
    14    5   47 1   
    15    5   48 1   
    16    5   49 1   
    17    6    7 2   
    18    6    8 1   
    19    8    9 1   
    20    8   50 1   
    21    8   86 1   
    22    9   10 1   
    23    9   16 1   
    24    9   51 1   
    25   10   11 1   
    26   10   15 1   
    27   10   52 1   
    28   11   12 1   
    29   11   53 1   
    30   11   54 1   
    31   12   13 1   
    32   12   55 1   
    33   12   56 1   
    34   13   14 1   
    35   13   57 1   
    36   13   58 1   
    37   14   15 1   
    38   14   59 1   
    39   14   60 1   
    40   15   61 1   
    41   15   62 1   
    42   16   17 2   
    43   16   18 1   
    44   18   19 1   
    45   18   26 1   
    46   19   20 1   
    47   19   63 1   
    48   19   64 1   
    49   20   21 1   
    50   20   24 1   
    51   20   65 1   
    52   21   22 1   
    53   21   66 1   
    54   21   67 1   
    55   22   23 1   
    56   22   68 1   
    57   22   69 1   
    58   23   24 1   
    59   23   70 1   
    60   23   71 1   
    61   24   25 1   
    62   25   26 1   
    63   25   72 1   
    64   25   73 1   
    65   26   27 1   
    66   26   74 1   
    67   27   28 2   
    68   27   29 1   
    69   29   30 1   
    70   29   75 1   
    71   29   87 1   
    72   30   31 1   
    73   30   39 1   
    74   30   76 1   
    75   31   32 1   
    76   31   77 1   
    77   31   78 1   
    78   32   33 1   
    79   32   79 1   
    80   32   80 1   
    81   33   34 1   
    82   34   35 ar  
    83   34   39 ar  
    84   35   36 ar  
    85   35   81 1   
    86   36   37 ar  
    87   36   82 1   
    88   37   38 ar  
    89   37   83 1   
    90   38   39 ar  
    91   38   84 1   
@<TRIPOS>SUBSTRUCTURE
     1 2DX         1 TEMP              0 ****  ****    0 ROOT
