@<TRIPOS>MOLECULE
2DX
   87    91     1     0     0
SMALL
bcc


@<TRIPOS>ATOM
      1 C1         -0.4850   -0.3800    1.7850 c3        1 2DX     -0.138100
      2 C2          0.8750   -0.5240    1.1480 c3        1 2DX     -0.111400
      3 C3          1.9440    0.3380    1.8490 c3        1 2DX      0.050500
      4 N5          1.5830    1.7980    1.8270 n4        1 2DX     -0.759000
      5 C6          2.2970    2.5960    2.8550 c3        1 2DX      0.068100
      6 C7          3.3050    0.1000    1.1720 c         1 2DX      0.523100
      7 O8          3.8980    0.9270    0.4940 o         1 2DX     -0.387100
      8 N9          3.8960   -1.2610    1.3300 n4        1 2DX     -0.662800
      9 C10         5.4260   -1.2890    1.3910 c3        1 2DX      0.073500
     10 C12         5.9060   -1.1200    2.8480 c3        1 2DX     -0.088700
     11 C13         7.4220   -1.2780    2.9300 c3        1 2DX     -0.077400
     12 C14         7.9070   -1.0820    4.3550 c3        1 2DX     -0.081400
     13 C15         7.4810    0.2560    4.9150 c3        1 2DX     -0.087400
     14 C16         5.9810    0.4300    4.8180 c3        1 2DX     -0.081400
     15 C17         5.5030    0.2460    3.3890 c3        1 2DX     -0.077400
     16 C18         5.8670   -2.6700    0.8260 c         1 2DX      0.648100
     17 O19         5.1090   -3.6370    1.0590 o         1 2DX     -0.596100
     18 N20         6.9910   -2.8120    0.0470 n         1 2DX     -0.428800
     19 C21         7.9660   -1.7600   -0.2310 c3        1 2DX      0.082000
     20 C22         8.5240   -1.8770   -1.6660 c3        1 2DX      0.152500
     21 C24         9.7310   -0.9870   -2.0020 c3        1 2DX     -0.073400
     22 C25        10.4820   -1.7810   -3.0800 c3        1 2DX     -0.086400
     23 C26         9.8660   -3.2000   -3.0870 c3        1 2DX      0.169800
     24 N27         8.9810   -3.2570   -1.9260 n3        1 2DX     -0.793600
     25 C28         7.8690   -4.1670   -1.8550 c3        1 2DX      0.160800
     26 C29         7.3810   -4.1630   -0.3660 c3        1 2DX      0.037700
     27 C31         8.4580   -4.7060    0.6040 c         1 2DX      0.527100
     28 O32         8.4900   -4.4430    1.8000 o         1 2DX     -0.429100
     29 N33         9.5270   -5.5840    0.0470 n4        1 2DX     -0.667800
     30 C34        10.1790   -6.5410    1.0530 c3        1 2DX      0.213800
     31 C35        11.6930   -6.5830    0.8070 c3        1 2DX     -0.144400
     32 C36        12.2740   -7.8560    1.3960 c3        1 2DX      0.129400
     33 O37        11.7070   -9.0110    0.7700 os        1 2DX     -0.291900
     34 C38        10.3310   -9.0450    0.8040 ca        1 2DX      0.178100
     35 C39         9.7380  -10.3190    0.6780 ca        1 2DX     -0.126000
     36 C40         8.3560  -10.4250    0.7150 ca        1 2DX     -0.049000
     37 C41         7.5590   -9.2810    0.8940 ca        1 2DX     -0.138000
     38 C42         8.1470   -8.0330    1.0090 ca        1 2DX     -0.116000
     39 C43         9.5450   -7.8890    0.9350 ca        1 2DX     -0.263300
     40 H1         -1.1440   -1.2200    1.4350 hc        1 2DX      0.086367
     41 H2         -0.4310   -0.4360    2.8990 hc        1 2DX      0.086367
     42 H3         -0.9950    0.5690    1.4840 hc        1 2DX      0.086367
     43 H4          0.8170   -0.2640    0.0570 hc        1 2DX      0.093200
     44 H5          1.1950   -1.5980    1.2310 hc        1 2DX      0.093200
     45 H6          2.0110    0.0340    2.9430 hx        1 2DX      0.152700
     46 H7          0.5610    1.8660    1.9940 hn        1 2DX      0.487800
     47 H9          2.0220    2.2350    3.8840 hx        1 2DX      0.127700
     48 H10         3.4060    2.5090    2.6980 hx        1 2DX      0.127700
     49 H11         1.9890    3.6770    2.7500 hx        1 2DX      0.127700
     50 H12         3.5940   -1.8480    0.5300 hn        1 2DX      0.487800
     51 H13         5.7930   -0.4320    0.7530 hx        1 2DX      0.139700
     52 H14         5.4460   -1.9310    3.4850 hc        1 2DX      0.095700
     53 H15         7.7160   -2.3080    2.5950 hc        1 2DX      0.036200
     54 H16         7.9140   -0.5270    2.2580 hc        1 2DX      0.036200
     55 H17         9.0280   -1.1550    4.3680 hc        1 2DX      0.070700
     56 H18         7.5120   -1.9090    5.0030 hc        1 2DX      0.070700
     57 H19         7.9970    1.0850    4.3610 hc        1 2DX      0.076700
     58 H20         7.7950    0.3290    5.9910 hc        1 2DX      0.076700
     59 H21         5.4710   -0.3140    5.4860 hc        1 2DX      0.070700
     60 H22         5.6980    1.4560    5.1730 hc        1 2DX      0.070700
     61 H23         4.3840    0.3620    3.3650 hc        1 2DX      0.036200
     62 H24         5.9420    1.0520    2.7430 hc        1 2DX      0.036200
     63 H25         8.8060   -1.8360    0.5190 h1        1 2DX      0.071200
     64 H26         7.4900   -0.7480   -0.1290 h1        1 2DX      0.071200
     65 H27         7.6820   -1.5990   -2.3740 h1        1 2DX      0.052700
     66 H28         9.3960    0.0060   -2.3850 hc        1 2DX      0.071700
     67 H29        10.3750   -0.8200   -1.1040 hc        1 2DX      0.071700
     68 H30        10.3590   -1.3070   -4.0850 hc        1 2DX      0.084200
     69 H31        11.5740   -1.8270   -2.8520 hc        1 2DX      0.084200
     70 H32        10.6570   -3.9870   -2.9610 h1        1 2DX      0.063200
     71 H33         9.3260   -3.3910   -4.0540 h1        1 2DX      0.063200
     72 H35         6.9890   -3.8700   -2.5000 h1        1 2DX      0.078200
     73 H36         8.1630   -5.1990   -2.1850 h1        1 2DX      0.078200
     74 H37         6.4930   -4.8650   -0.2730 h1        1 2DX      0.148700
     75 H38         9.1330   -6.1570   -0.7120 hn        1 2DX      0.472300
     76 H39         9.9790   -6.1140    2.0840 hx        1 2DX      0.126700
     77 H40        12.1840   -5.6970    1.2860 hc        1 2DX      0.081200
     78 H41        11.9300   -6.5700   -0.2910 hc        1 2DX      0.081200
     79 H42        12.1030   -7.9100    2.5030 h1        1 2DX      0.099200
     80 H43        13.3720   -7.9450    1.1670 h1        1 2DX      0.099200
     81 H44        10.3850  -11.2040    0.5640 ha        1 2DX      0.190000
     82 H45         7.8780  -11.4150    0.6230 ha        1 2DX      0.175000
     83 H46         6.4650   -9.3890    0.9560 ha        1 2DX      0.157000
     84 H47         7.5170   -7.1480    1.1870 ha        1 2DX      0.104000
     85 H52         1.7800    2.1890    0.8920 hn        1 2DX      0.487800
     86 H92         3.5420   -1.7110    2.1880 hn        1 2DX      0.487800
     87 H332       10.2520   -4.9700   -0.3520 hn        1 2DX      0.472300
@<TRIPOS>BOND
     1    1    2 1   
     2    1   40 1   
     3    1   41 1   
     4    1   42 1   
     5    2    3 1   
     6    2   43 1   
     7    2   44 1   
     8    3    4 1   
     9    3    6 1   
    10    3   45 1   
    11    4    5 1   
    12    4   46 1   
    13    4   85 1   
    14    5   47 1   
    15    5   48 1   
    16    5   49 1   
    17    6    7 2   
    18    6    8 1   
    19    8    9 1   
    20    8   50 1   
    21    8   86 1   
    22    9   10 1   
    23    9   16 1   
    24    9   51 1   
    25   10   11 1   
    26   10   15 1   
    27   10   52 1   
    28   11   12 1   
    29   11   53 1   
    30   11   54 1   
    31   12   13 1   
    32   12   55 1   
    33   12   56 1   
    34   13   14 1   
    35   13   57 1   
    36   13   58 1   
    37   14   15 1   
    38   14   59 1   
    39   14   60 1   
    40   15   61 1   
    41   15   62 1   
    42   16   17 2   
    43   16   18 1   
    44   18   19 1   
    45   18   26 1   
    46   19   20 1   
    47   19   63 1   
    48   19   64 1   
    49   20   21 1   
    50   20   24 1   
    51   20   65 1   
    52   21   22 1   
    53   21   66 1   
    54   21   67 1   
    55   22   23 1   
    56   22   68 1   
    57   22   69 1   
    58   23   24 1   
    59   23   70 1   
    60   23   71 1   
    61   24   25 1   
    62   25   26 1   
    63   25   72 1   
    64   25   73 1   
    65   26   27 1   
    66   26   74 1   
    67   27   28 2   
    68   27   29 1   
    69   29   30 1   
    70   29   75 1   
    71   29   87 1   
    72   30   31 1   
    73   30   39 1   
    74   30   76 1   
    75   31   32 1   
    76   31   77 1   
    77   31   78 1   
    78   32   33 1   
    79   32   79 1   
    80   32   80 1   
    81   33   34 1   
    82   34   35 ar  
    83   34   39 ar  
    84   35   36 ar  
    85   35   81 1   
    86   36   37 ar  
    87   36   82 1   
    88   37   38 ar  
    89   37   83 1   
    90   38   39 ar  
    91   38   84 1   
@<TRIPOS>SUBSTRUCTURE
     1 2DX         1 TEMP              0 ****  ****    0 ROOT
