@<TRIPOS>MOLECULE
2DX
   87    91     1     0     0
SMALL
bcc


@<TRIPOS>ATOM
      1 C1         -0.4760   -0.3720    1.8430 c3        1 2DX     -0.138100
      2 C2          0.8770   -0.5190    1.1950 c3        1 2DX     -0.111400
      3 C3          1.9540    0.3440    1.8850 c3        1 2DX      0.050500
      4 N5          1.5930    1.8040    1.8630 ny        1 2DX     -0.759000
      5 C6          2.3170    2.6040    2.8830 c3        1 2DX      0.068100
      6 C7          3.3080    0.1040    1.1960 c         1 2DX      0.523100
      7 O8          3.8960    0.9290    0.5110 o         1 2DX     -0.387100
      8 N9          3.9000   -1.2570    1.3510 ny        1 2DX     -0.662800
      9 C10         5.4300   -1.2860    1.3990 c3        1 2DX      0.073500
     10 C12         5.9240   -1.1130    2.8510 c3        1 2DX     -0.088700
     11 C13         7.4410   -1.2710    2.9190 c3        1 2DX     -0.077400
     12 C14         7.9400   -1.0710    4.3380 c3        1 2DX     -0.081400
     13 C15         7.5190    0.2690    4.8990 c3        1 2DX     -0.087400
     14 C16         6.0180    0.4420    4.8160 c3        1 2DX     -0.081400
     15 C17         5.5260    0.2550    3.3920 c3        1 2DX     -0.077400
     16 C18         5.8660   -2.6680    0.8340 c         1 2DX      0.648100
     17 O19         5.1100   -3.6350    1.0770 o         1 2DX     -0.596100
     18 N20         6.9820   -2.8130    0.0440 n         1 2DX     -0.428800
     19 C21         7.9550   -1.7630   -0.2450 c3        1 2DX      0.082000
     20 C22         8.5000   -1.8850   -1.6860 c3        1 2DX      0.152500
     21 C24         9.7050   -0.9960   -2.0350 c3        1 2DX     -0.073400
     22 C25        10.4440   -1.7940   -3.1170 c3        1 2DX     -0.086400
     23 C26         9.8280   -3.2120   -3.1140 c3        1 2DX      0.169800
     24 N27         8.9530   -3.2660   -1.9460 n3        1 2DX     -0.793600
     25 C28         7.8410   -4.1740   -1.8610 c3        1 2DX      0.161800
     26 C29         7.3670   -4.1660   -0.3680 c3        1 2DX      0.037700
     27 C31         8.4540   -4.7070    0.5930 c         1 2DX      0.527100
     28 O32         8.4980   -4.4390    1.7880 o         1 2DX     -0.429100
     29 N33         9.5150   -5.5890    0.0290 ny        1 2DX     -0.667800
     30 C34        10.1750   -6.5430    1.0320 c3        1 2DX      0.213800
     31 C35        11.6870   -6.5900    0.7690 c3        1 2DX     -0.144400
     32 C36        12.2710   -7.8630    1.3580 c3        1 2DX      0.129400
     33 O37        11.6940   -9.0190    0.7430 os        1 2DX     -0.291900
     34 C38        10.3180   -9.0490    0.7910 ca        1 2DX      0.178100
     35 C39         9.7200  -10.3210    0.6770 ca        1 2DX     -0.126000
     36 C40         8.3390  -10.4230    0.7290 ca        1 2DX     -0.049000
     37 C41         7.5470   -9.2770    0.9110 ca        1 2DX     -0.138000
     38 C42         8.1390   -8.0300    1.0150 ca        1 2DX     -0.116000
     39 C43         9.5370   -7.8900    0.9260 ca        1 2DX     -0.263300
     40 H1         -0.9880    0.5760    1.5450 hc        1 2DX      0.086367
     41 H2         -1.1390   -1.2140    1.5020 hc        1 2DX      0.086367
     42 H3         -0.4120   -0.4270    2.9570 hc        1 2DX      0.086367
     43 H4          0.8100   -0.2610    0.1040 hc        1 2DX      0.093200
     44 H5          1.1980   -1.5930    1.2770 hc        1 2DX      0.093200
     45 H6          2.0300    0.0420    2.9780 hx        1 2DX      0.152700
     46 H7          1.7820    2.1930    0.9260 hn        1 2DX      0.487800
     47 H9          2.0090    3.6850    2.7780 hx        1 2DX      0.127700
     48 H10         3.4250    2.5150    2.7160 hx        1 2DX      0.127700
     49 H11         2.0500    2.2450    3.9150 hx        1 2DX      0.127700
     50 H12         3.5910   -1.8460    0.5560 hn        1 2DX      0.487800
     51 H13         5.7920   -0.4300    0.7550 hx        1 2DX      0.139700
     52 H14         5.4710   -1.9220    3.4940 hc        1 2DX      0.095700
     53 H15         7.9270   -0.5220    2.2400 hc        1 2DX      0.035950
     54 H16         7.7320   -2.3020    2.5840 hc        1 2DX      0.035950
     55 H17         9.0600   -1.1440    4.3410 hc        1 2DX      0.070700
     56 H18         7.5500   -1.8960    4.9930 hc        1 2DX      0.070700
     57 H19         7.8430    0.3450    5.9710 hc        1 2DX      0.076700
     58 H20         8.0300    1.0960    4.3380 hc        1 2DX      0.076700
     59 H21         5.5140   -0.2990    5.4900 hc        1 2DX      0.070700
     60 H22         5.7380    1.4690    5.1700 hc        1 2DX      0.070700
     61 H23         4.4070    0.3710    3.3780 hc        1 2DX      0.035950
     62 H24         5.9590    1.0590    2.7390 hc        1 2DX      0.035950
     63 H25         7.4810   -0.7500   -0.1420 h1        1 2DX      0.071200
     64 H26         8.8030   -1.8370    0.4970 h1        1 2DX      0.071200
     65 H27         7.6520   -1.6070   -2.3860 h1        1 2DX      0.052700
     66 H28         9.3660   -0.0040   -2.4180 hc        1 2DX      0.071700
     67 H29        10.3570   -0.8270   -1.1440 hc        1 2DX      0.071700
     68 H30        10.3130   -1.3230   -4.1230 hc        1 2DX      0.084200
     69 H31        11.5390   -1.8400   -2.8990 hc        1 2DX      0.084200
     70 H32         9.2790   -3.4060   -4.0760 h1        1 2DX      0.063200
     71 H33        10.6200   -3.9990   -2.9940 h1        1 2DX      0.063200
     72 H35         8.1320   -5.2070   -2.1920 h1        1 2DX      0.078200
     73 H36         6.9560   -3.8780   -2.5000 h1        1 2DX      0.078200
     74 H37         6.4810   -4.8670   -0.2650 h1        1 2DX      0.148700
     75 H38         9.1130   -6.1630   -0.7240 hn        1 2DX      0.472300
     76 H39         9.9880   -6.1110    2.0630 hx        1 2DX      0.126700
     77 H40        12.1860   -5.7030    1.2400 hc        1 2DX      0.081200
     78 H41        11.9120   -6.5820   -0.3310 hc        1 2DX      0.081200
     79 H42        12.1110   -7.9110    2.4670 h1        1 2DX      0.099200
     80 H43        13.3660   -7.9550    1.1170 h1        1 2DX      0.099200
     81 H44        10.3640  -11.2090    0.5590 ha        1 2DX      0.190000
     82 H45         7.8580  -11.4130    0.6460 ha        1 2DX      0.175000
     83 H46         6.4530   -9.3820    0.9850 ha        1 2DX      0.157000
     84 H47         7.5130   -7.1430    1.1960 ha        1 2DX      0.104000
     85 H52         0.5730    1.8730    2.0380 hn        1 2DX      0.487800
     86 H92         3.5540   -1.7050    2.2140 hn        1 2DX      0.487800
     87 H332       10.2380   -4.9770   -0.3800 hn        1 2DX      0.472300
@<TRIPOS>BOND
     1    1    2 1   
     2    1   40 1   
     3    1   41 1   
     4    1   42 1   
     5    2    3 1   
     6    2   43 1   
     7    2   44 1   
     8    3    4 1   
     9    3    6 1   
    10    3   45 1   
    11    4    5 1   
    12    4   46 1   
    13    4   85 1   
    14    5   47 1   
    15    5   48 1   
    16    5   49 1   
    17    6    7 2   
    18    6    8 1   
    19    8    9 1   
    20    8   50 1   
    21    8   86 1   
    22    9   10 1   
    23    9   16 1   
    24    9   51 1   
    25   10   11 1   
    26   10   15 1   
    27   10   52 1   
    28   11   12 1   
    29   11   53 1   
    30   11   54 1   
    31   12   13 1   
    32   12   55 1   
    33   12   56 1   
    34   13   14 1   
    35   13   57 1   
    36   13   58 1   
    37   14   15 1   
    38   14   59 1   
    39   14   60 1   
    40   15   61 1   
    41   15   62 1   
    42   16   17 2   
    43   16   18 1   
    44   18   19 1   
    45   18   26 1   
    46   19   20 1   
    47   19   63 1   
    48   19   64 1   
    49   20   21 1   
    50   20   24 1   
    51   20   65 1   
    52   21   22 1   
    53   21   66 1   
    54   21   67 1   
    55   22   23 1   
    56   22   68 1   
    57   22   69 1   
    58   23   24 1   
    59   23   70 1   
    60   23   71 1   
    61   24   25 1   
    62   25   26 1   
    63   25   72 1   
    64   25   73 1   
    65   26   27 1   
    66   26   74 1   
    67   27   28 2   
    68   27   29 1   
    69   29   30 1   
    70   29   75 1   
    71   29   87 1   
    72   30   31 1   
    73   30   39 1   
    74   30   76 1   
    75   31   32 1   
    76   31   77 1   
    77   31   78 1   
    78   32   33 1   
    79   32   79 1   
    80   32   80 1   
    81   33   34 1   
    82   34   35 ar  
    83   34   39 ar  
    84   35   36 ar  
    85   35   81 1   
    86   36   37 ar  
    87   36   82 1   
    88   37   38 ar  
    89   37   83 1   
    90   38   39 ar  
    91   38   84 1   
@<TRIPOS>SUBSTRUCTURE
     1 2DX         1 TEMP              0 ****  ****    0 ROOT
