@<TRIPOS>MOLECULE
2DX
   84    86     1     0     0
SMALL
bcc


@<TRIPOS>ATOM
      1 C1         -3.4790    2.8790   -4.0110 c3        1 2DX     -0.215000
      2 C2         -2.0640    2.4090   -4.2500 c3        1 2DX     -0.181000
      3 C3         -1.2740    2.5570   -3.0000 c3        1 2DX     -0.035000
      4 N5         -0.1480    3.4520   -3.2330 n3        1 2DX     -0.316000
      5 C6         -0.5710    4.8330   -3.0450 c3        1 2DX     -0.123000
      6 C7         -0.7520    1.1780   -2.5650 c2        1 2DX      0.324000
      7 O8         -0.9890    0.1840   -3.2610 o         1 2DX     -0.403000
      8 N9         -0.0880    1.0210   -1.2690 n         1 2DX     -0.355000
      9 C10         0.9140   -0.0390   -1.0800 c3        1 2DX      0.029000
     10 C12         1.2940   -0.5930   -2.4030 c3        1 2DX     -0.114000
     11 C13         2.8800   -0.2080   -2.7130 c3        1 2DX     -0.158500
     12 C14         3.5150   -0.9660   -1.4170 c3        1 2DX     -0.152000
     13 C15         3.2620   -2.4690   -1.4180 c3        1 2DX     -0.156000
     14 C16         2.2150   -2.8100   -2.2580 c3        1 2DX     -0.152000
     15 C17         1.0340   -2.0820   -2.4130 c3        1 2DX     -0.158500
     16 C18         2.1210    0.5350   -0.4140 c2        1 2DX      0.289000
     17 O19         2.9690    1.0040   -1.0620 o         1 2DX     -0.332000
     18 N20         2.3580    0.2840    1.0680 n         1 2DX     -0.297000
     19 C21         3.6230    0.6110    1.7110 c3        1 2DX     -0.058000
     20 C22         3.5000    1.5500    2.9260 c3        1 2DX     -0.061000
     21 C24         3.0440    2.7230    2.5890 c3        1 2DX     -0.191000
     22 C25         2.0550    3.1200    3.7520 c3        1 2DX     -0.180000
     23 C26         1.8480    1.8080    4.5880 c3        1 2DX     -0.088000
     24 N27         2.3620    0.8470    3.8450 n3        1 2DX     -0.225000
     25 C28         1.1300    0.5260    3.1420 c3        1 2DX     -0.106000
     26 C29         1.3230   -0.3060    1.9510 c3        1 2DX     -0.012000
     27 C31        -0.0420   -0.5750    1.1800 c2        1 2DX      0.298000
     28 O32        -0.3640    0.1320    0.2810 o         1 2DX     -0.367000
     29 N33        -0.9750   -1.5950    1.6790 n         1 2DX     -0.367000
     30 C34        -2.3670   -1.7450    1.0410 c3        1 2DX      0.070000
     31 C35        -3.0990   -0.6390    1.3670 c3        1 2DX     -0.205000
     32 C36        -3.8350   -0.6820    2.6410 c3        1 2DX     -0.022000
     33 O37        -4.6560   -1.7710    2.8450 os        1 2DX     -0.212000
     34 C38        -4.1670   -3.1290    2.3240 c2        1 2DX      0.096000
     35 C39        -4.8670   -4.3100    2.5480 c2        1 2DX     -0.167000
     36 C40        -4.4160   -5.5240    1.9680 c1        1 2DX     -0.092000
     37 C41        -3.2390   -5.5350    1.1530 c1        1 2DX     -0.123500
     38 C42        -2.5220   -4.3310    0.9240 c1        1 2DX     -0.123500
     39 C43        -2.9610   -3.1410    1.4890 c1        1 2DX     -0.177000
     40 H1         -3.4770    3.8320   -3.8140 hc        1 2DX      0.074000
     41 H2         -3.8530    2.4030   -3.2740 hc        1 2DX      0.074000
     42 H3         -4.0160    2.7140   -4.8110 hc        1 2DX      0.074000
     43 H4         -2.0750    1.4520   -4.5200 hc        1 2DX      0.104500
     44 H5         -1.6500    2.9540   -4.9720 hc        1 2DX      0.104500
     45 H6         -1.8600    2.9370   -2.2790 h1        1 2DX      0.122000
     46 H7          0.1670    3.3380   -4.1140 hn        1 2DX      0.167000
     47 H9         -1.1800    4.8880   -2.2810 h1        1 2DX      0.073667
     48 H10         0.2290    5.4060   -2.8740 h1        1 2DX      0.073667
     49 H11        -1.0270    5.1450   -3.8480 h1        1 2DX      0.073667
     50 H12        -0.2600    1.6020   -0.6010 hn        1 2DX      0.250000
     51 H13         0.5380   -0.7540   -0.5200 h1        1 2DX      0.136000
     52 H14         0.7150   -0.1630   -3.1070 hc        1 2DX      0.105000
     53 H15         3.0280    0.7300   -2.6790 hc        1 2DX      0.088500
     54 H16         3.1900   -0.5980   -3.5480 hc        1 2DX      0.088500
     55 H17         3.1230   -0.5820   -0.6030 hc        1 2DX      0.078500
     56 H18         4.5230   -0.8020   -1.4050 hc        1 2DX      0.078500
     57 H19         4.0730   -2.9290   -1.7140 hc        1 2DX      0.078500
     58 H20         3.0510   -2.7500   -0.5290 hc        1 2DX      0.078500
     59 H21         1.9430   -3.7100   -1.9950 hc        1 2DX      0.078500
     60 H22         2.6000   -2.8830   -3.1480 hc        1 2DX      0.078500
     61 H23         0.4060   -2.3120   -1.6640 hc        1 2DX      0.088500
     62 H24         0.6270   -2.3220   -3.2470 hc        1 2DX      0.088500
     63 H25         4.0560   -0.2500    2.0180 h1        1 2DX      0.105000
     64 H26         4.2010    1.0300    1.0570 h1        1 2DX      0.105000
     65 H27         4.3430    1.6220    3.4040 h1        1 2DX      0.103000
     66 H28         2.5470    2.6670    1.7070 hc        1 2DX      0.102500
     67 H29         3.7710    3.3640    2.5290 hc        1 2DX      0.102500
     68 H30         1.2040    3.4240    3.3860 hc        1 2DX      0.087500
     69 H31         2.4600    3.8300    4.3200 hc        1 2DX      0.087500
     70 H32         2.3320    1.8700    5.4610 h1        1 2DX      0.091500
     71 H33         0.9110    1.6510    4.7340 h1        1 2DX      0.091500
     72 H35         0.5280    0.0530    3.7650 h1        1 2DX      0.099000
     73 H36         0.7090    1.3500    2.8740 h1        1 2DX      0.099000
     74 H37         1.5640   -1.1920    2.2020 h1        1 2DX      0.120000
     75 H38        -0.7150   -2.1680    2.3620 hn        1 2DX      0.232000
     76 H39        -2.2580   -1.7610    0.0620 h1        1 2DX      0.152000
     77 H40        -3.7250   -0.4860    0.6740 hc        1 2DX      0.109500
     78 H41        -2.4810    0.1330    1.4000 hc        1 2DX      0.109500
     79 H42        -3.1790   -0.6750    3.3540 h1        1 2DX      0.094500
     80 H43        -4.4150    0.1470    2.6830 h1        1 2DX      0.094500
     81 H44        -5.6850   -4.3040    3.1150 ha        1 2DX      0.148000
     82 H45        -4.9210   -6.3740    2.1280 ha        1 2DX      0.132000
     83 H46        -2.9220   -6.3900    0.7470 ha        1 2DX      0.149000
     84 H47        -1.7130   -4.3400    0.3640 ha        1 2DX      0.149000
@<TRIPOS>BOND
     1    1    2 1   
     2    1   40 1   
     3    1   41 1   
     4    1   42 1   
     5    2    3 1   
     6    2   43 1   
     7    2   44 1   
     8    3    4 1   
     9    3    6 1   
    10    3   45 1   
    11    4    5 1   
    12    4   46 1   
    13    5   47 1   
    14    5   48 1   
    15    5   49 1   
    16    6    7 1   
    17    6    8 1   
    18    8    9 1   
    19    8   50 1   
    20    9   10 1   
    21    9   16 1   
    22    9   51 1   
    23   10   11 1   
    24   10   15 1   
    25   10   52 1   
    26   11   12 1   
    27   11   53 1   
    28   11   54 1   
    29   12   13 1   
    30   12   55 1   
    31   12   56 1   
    32   13   14 1   
    33   13   57 1   
    34   13   58 1   
    35   14   15 1   
    36   14   59 1   
    37   14   60 1   
    38   15   61 1   
    39   15   62 1   
    40   16   17 1   
    41   16   18 1   
    42   18   19 1   
    43   18   26 1   
    44   19   20 1   
    45   19   63 1   
    46   19   64 1   
    47   20   21 1   
    48   20   24 1   
    49   20   65 1   
    50   21   22 1   
    51   21   66 1   
    52   21   67 1   
    53   22   23 1   
    54   22   68 1   
    55   22   69 1   
    56   23   24 1   
    57   23   70 1   
    58   23   71 1   
    59   24   25 1   
    60   25   26 1   
    61   25   72 1   
    62   25   73 1   
    63   26   27 1   
    64   26   74 1   
    65   27   28 1   
    66   27   29 1   
    67   29   30 1   
    68   29   75 1   
    69   30   31 1   
    70   30   39 1   
    71   30   76 1   
    72   31   32 1   
    73   31   77 1   
    74   31   78 1   
    75   32   33 1   
    76   32   79 1   
    77   32   80 1   
    78   33   34 1   
    79   34   35 1   
    80   34   39 1   
    81   35   36 1   
    82   35   81 1   
    83   36   82 1   
    84   37   38 1   
    85   37   83 1   
    86   38   84 1   
@<TRIPOS>SUBSTRUCTURE
     1 2DX         1 TEMP              0 ****  ****    0 ROOT
