@<TRIPOS>MOLECULE
2DY
   88    86     1     0     0
SMALL
bcc


@<TRIPOS>ATOM
      1 C1          4.3930    0.2530    1.4330 c3        1 2DY     -0.213000
      2 C2          2.9520    0.1460    1.9110 c3        1 2DY     -0.149000
      3 C3          2.2220    1.4570    1.6220 c3        1 2DY     -0.033000
      4 N5          3.0100    2.5560    2.0870 n3        1 2DY     -0.281000
      5 C6          3.7180    3.1640    0.9620 c3        1 2DY     -0.133000
      6 C7          0.8810    1.4580    2.3340 c1        1 2DY      0.262000
      7 O8          0.7780    0.9460    3.4240 o         1 2DY     -0.377000
      8 N9         -0.2500    2.2140    1.7680 n2        1 2DY     -0.379000
      9 C10        -1.1210    1.5940    0.7770 c3        1 2DY      0.031000
     10 C12        -2.5920    1.8150    1.1760 c3        1 2DY     -0.122000
     11 C13        -3.4920    1.1310    0.1480 c3        1 2DY     -0.157500
     12 C14        -4.9640    1.1430    0.5560 c3        1 2DY     -0.155000
     13 C15        -5.1800    0.6110    1.9630 c3        1 2DY     -0.157000
     14 C16        -4.2810    1.2960    2.9940 c3        1 2DY     -0.155000
     15 C17        -2.8070    1.2820    2.5820 c3        1 2DY     -0.157500
     16 C18        -0.8730    2.2070   -0.5470 c1        1 2DY      0.268000
     17 O19        -1.1320    3.3840   -0.7210 o         1 2DY     -0.343000
     18 N20        -0.0650    1.4840   -1.5470 n2        1 2DY     -0.283000
     19 C21         0.4340    2.1210   -2.7260 c3        1 2DY     -0.081000
     20 C22         1.9880    2.0140   -2.9120 c3        1 2DY     -0.044000
     21 C24         2.3830    2.4120   -4.2120 c3        1 2DY     -0.119000
     22 C25         3.1090    1.2360   -4.8510 c1        1 2DY     -0.127000
     23 C26         4.1780    1.3230   -5.7480 c1        1 2DY     -0.127833
     24 C27         5.1530    0.3300   -5.7690 c1        1 2DY     -0.127833
     25 C28         5.0640   -0.7690   -4.8830 c1        1 2DY     -0.127833
     26 C29         3.9940   -0.8590   -3.9840 c1        1 2DY     -0.127833
     27 C30         3.0180    0.1330   -3.9620 c1        1 2DY      0.025000
     28 N31         2.2590    0.5770   -2.7620 n3        1 2DY     -0.211000
     29 C32         1.7020   -0.0280   -1.5610 c3        1 2DY     -0.070000
     30 C33         0.2600    0.1620   -1.4090 c3        1 2DY     -0.052000
     31 C35        -0.3040   -0.4740    0.0270 c2        1 2DY      0.306000
     32 O36        -0.1080    0.1050    1.0480 o         1 2DY     -0.378000
     33 N37        -0.8620   -1.8510    0.0560 n         1 2DY     -0.363000
     34 C38        -1.1850   -2.5280    1.4150 c3        1 2DY      0.081000
     35 C40        -0.0700   -3.1620    1.8370 c3        1 2DY     -0.217000
     36 C41        -0.2540   -4.2660    2.7810 c3        1 2DY     -0.020000
     37 O42        -1.1350   -5.2410    2.4210 os        1 2DY     -0.208000
     38 C43        -2.3920   -4.8100    1.6520 c2        1 2DY      0.096000
     39 C44        -3.4900   -5.6440    1.5140 c2        1 2DY     -0.155000
     40 C45        -4.6830   -5.1520    0.9530 c1        1 2DY     -0.093000
     41 C46        -4.7650   -3.8020    0.5290 c1        1 2DY     -0.127833
     42 C47        -3.6480   -2.9480    0.6690 c1        1 2DY     -0.127833
     43 C48        -2.4730   -3.4310    1.2200 c1        1 2DY     -0.166000
     44 H1          4.4560    0.9310    0.7420 hc        1 2DY      0.081667
     45 H2          4.6890   -0.6360    1.0590 hc        1 2DY      0.081667
     46 H3          4.9680    0.4980    2.1830 hc        1 2DY      0.081667
     47 H4          2.9390   -0.0340    2.8900 hc        1 2DY      0.086000
     48 H5          2.5080   -0.5830    1.4420 hc        1 2DY      0.086000
     49 H6          2.0760    1.5450    0.6370 h1        1 2DY      0.135000
     50 H7          2.4660    3.1780    2.4750 hn        1 2DY      0.171000
     51 H9          3.6550    2.5790    0.1790 h1        1 2DY      0.075667
     52 H10         4.6620    3.2910    1.1990 h1        1 2DY      0.075667
     53 H11         3.3030    4.0550    0.7490 h1        1 2DY      0.075667
     54 H12        -0.3590    3.1000    1.9790 hn        1 2DY      0.237000
     55 H13        -0.9340    0.6280    0.7320 h1        1 2DY      0.133000
     56 H14        -2.7810    2.7840    1.1700 hc        1 2DY      0.118000
     57 H15        -3.4000    1.5840   -0.6970 hc        1 2DY      0.085250
     58 H16        -3.2020    0.2010    0.0420 hc        1 2DY      0.085250
     59 H17        -5.3010    2.0620    0.5060 hc        1 2DY      0.082750
     60 H18        -5.4670    0.5860   -0.0700 hc        1 2DY      0.082750
     61 H19        -4.9930   -0.3570    1.9700 hc        1 2DY      0.080500
     62 H20        -6.1060    0.7510    2.2110 hc        1 2DY      0.080500
     63 H21        -4.3760    0.8260    3.8670 hc        1 2DY      0.082750
     64 H22        -4.5810    2.2550    3.1050 hc        1 2DY      0.082750
     65 H23        -2.4670    0.3370    2.6250 hc        1 2DY      0.085250
     66 H24        -2.2820    1.8470    3.2290 hc        1 2DY      0.085250
     67 H25        -0.0020    1.7140   -3.5080 h1        1 2DY      0.120500
     68 H26         0.1940    3.0590   -2.6930 h1        1 2DY      0.120500
     69 H27         2.4660    2.5420   -2.2160 h1        1 2DY      0.125000
     70 H28         1.5760    2.6280   -4.7460 hc        1 2DY      0.103500
     71 H29         3.0010    3.1770   -4.1440 hc        1 2DY      0.103500
     72 H30         4.2420    2.0960   -6.3730 ha        1 2DY      0.136000
     73 H31         5.9140    0.3930   -6.4070 ha        1 2DY      0.136000
     74 H32         5.7500   -1.4670   -4.8980 ha        1 2DY      0.136000
     75 H33         3.9320   -1.6180   -3.3730 ha        1 2DY      0.136000
     76 H34         1.8890   -0.9960   -1.5820 h1        1 2DY      0.119500
     77 H35         2.1460    0.3570   -0.7880 h1        1 2DY      0.119500
     78 H36        -0.2390   -0.3940   -2.0750 h1        1 2DY      0.120000
     79 H37        -1.0620   -2.2860   -0.7360 hn        1 2DY      0.241000
     80 H38        -1.3990   -1.8340    2.0570 h1        1 2DY      0.114000
     81 H39         0.5280   -2.4810    2.2690 hc        1 2DY      0.114000
     82 H40         0.3940   -3.5170    1.0470 hc        1 2DY      0.114000
     83 H41        -0.5610   -3.8910    3.6010 h1        1 2DY      0.103000
     84 H42         0.6090   -4.6910    2.9020 h1        1 2DY      0.103000
     85 H43        -3.4380   -6.5540    1.7990 ha        1 2DY      0.153000
     86 H44        -5.4770   -5.7580    0.8540 ha        1 2DY      0.138000
     87 H45        -5.6030   -3.4600    0.1370 ha        1 2DY      0.136000
     88 H46        -3.7030   -2.0380    0.3840 ha        1 2DY      0.136000
@<TRIPOS>BOND
     1    1    2 1   
     2    1   44 1   
     3    1   45 1   
     4    1   46 1   
     5    2    3 1   
     6    2   47 1   
     7    2   48 1   
     8    3    4 1   
     9    3    6 1   
    10    3   49 1   
    11    4    5 1   
    12    4   50 1   
    13    5   51 1   
    14    5   52 1   
    15    5   53 1   
    16    6    7 1   
    17    8    9 1   
    18    8   54 1   
    19    9   10 1   
    20    9   16 1   
    21    9   55 1   
    22   10   11 1   
    23   10   15 1   
    24   10   56 1   
    25   11   12 1   
    26   11   57 1   
    27   11   58 1   
    28   12   13 1   
    29   12   59 1   
    30   12   60 1   
    31   13   14 1   
    32   13   61 1   
    33   13   62 1   
    34   14   15 1   
    35   14   63 1   
    36   14   64 1   
    37   15   65 1   
    38   15   66 1   
    39   16   17 1   
    40   18   19 1   
    41   18   30 1   
    42   19   20 1   
    43   19   67 1   
    44   19   68 1   
    45   20   21 1   
    46   20   28 1   
    47   20   69 1   
    48   21   22 1   
    49   21   70 1   
    50   21   71 1   
    51   22   27 1   
    52   23   24 1   
    53   23   72 1   
    54   24   73 1   
    55   25   26 1   
    56   25   74 1   
    57   26   75 1   
    58   27   28 1   
    59   28   29 1   
    60   29   30 1   
    61   29   76 1   
    62   29   77 1   
    63   30   31 1   
    64   30   78 1   
    65   31   32 1   
    66   31   33 1   
    67   33   34 1   
    68   33   79 1   
    69   34   35 1   
    70   34   43 1   
    71   34   80 1   
    72   35   36 1   
    73   35   81 1   
    74   35   82 1   
    75   36   37 1   
    76   36   83 1   
    77   36   84 1   
    78   37   38 1   
    79   38   39 1   
    80   38   43 1   
    81   39   40 1   
    82   39   85 1   
    83   40   86 1   
    84   41   42 1   
    85   41   87 1   
    86   42   88 1   
@<TRIPOS>SUBSTRUCTURE
     1 2DY         1 TEMP              0 ****  ****    0 ROOT
