@<TRIPOS>MOLECULE
2DY
   88    93     1     0     0
SMALL
bcc


@<TRIPOS>ATOM
      1 C1         -3.3180   -1.9040    4.4810 c3        1 2DY     -0.089100
      2 C2         -2.2670   -2.0960    3.4200 c3        1 2DY     -0.077400
      3 C3         -2.6880   -3.1510    2.3820 c3        1 2DY      0.118500
      4 N5         -2.8180   -4.4750    2.9570 n3        1 2DY     -0.802200
      5 C6         -3.3740   -5.4600    2.0650 c3        1 2DY      0.144100
      6 C7         -1.6510   -3.0770    1.2310 c         1 2DY      0.613100
      7 O8         -0.6980   -3.8780    1.1570 o         1 2DY     -0.620100
      8 N9         -1.8560   -2.1110    0.2560 n         1 2DY     -0.537900
      9 C10        -0.8470   -1.8250   -0.7330 c3        1 2DY      0.038700
     10 C12        -1.4070   -1.5800   -2.1500 c3        1 2DY     -0.064700
     11 C13        -1.9250   -2.8750   -2.7580 c3        1 2DY     -0.075900
     12 C14        -2.3840   -2.6460   -4.1840 c3        1 2DY     -0.077400
     13 C15        -3.4230   -1.5460   -4.2660 c3        1 2DY     -0.078400
     14 C16        -2.9290   -0.2670   -3.6200 c3        1 2DY     -0.077400
     15 C17        -2.4900   -0.5140   -2.1910 c3        1 2DY     -0.075900
     16 C18        -0.0110   -0.5790   -0.3360 c         1 2DY      0.641100
     17 O19        -0.5420    0.3480    0.3180 o         1 2DY     -0.642100
     18 N20         1.3090   -0.4630   -0.7330 n         1 2DY     -0.450800
     19 C21         2.0450   -1.4710   -1.4580 c3        1 2DY      0.074000
     20 C22         3.2090   -2.0860   -0.6490 c3        1 2DY      0.147500
     21 C24         2.7240   -3.1730    0.3540 c3        1 2DY     -0.049100
     22 C25         3.2740   -2.7120    1.6630 ca        1 2DY     -0.117300
     23 C26         3.2030   -3.3030    2.9090 ca        1 2DY     -0.092000
     24 C27         3.8150   -2.6630    3.9960 ca        1 2DY     -0.151000
     25 C28         4.4850   -1.4560    3.8230 ca        1 2DY     -0.113000
     26 C29         4.5660   -0.8420    2.5670 ca        1 2DY     -0.142000
     27 C30         3.9590   -1.4720    1.4810 ca        1 2DY      0.084600
     28 N31         3.9990   -1.0780    0.1070 nh        1 2DY     -0.578000
     29 C32         3.6410    0.2890   -0.1950 c3        1 2DY      0.162800
     30 C33         2.1190    0.6150   -0.1850 c3        1 2DY      0.003700
     31 C35         1.9130    1.9250   -0.9870 c         1 2DY      0.648100
     32 O36         2.6460    2.2130   -1.9550 o         1 2DY     -0.618100
     33 N37         0.9020    2.7480   -0.5580 n         1 2DY     -0.553900
     34 C38         0.5480    3.9530   -1.2790 c3        1 2DY      0.163000
     35 C40         1.5180    5.1110   -0.9750 c3        1 2DY     -0.129400
     36 C41         1.0330    6.3600   -1.6730 c3        1 2DY      0.129400
     37 O42        -0.2470    6.7850   -1.1940 os        1 2DY     -0.327900
     38 C43        -1.1770    5.7790   -1.0210 ca        1 2DY      0.139100
     39 C44        -2.4940    6.2270   -0.8100 ca        1 2DY     -0.158000
     40 C45        -3.5040    5.2960   -0.6030 ca        1 2DY     -0.097000
     41 C46        -3.2140    3.9310   -0.6150 ca        1 2DY     -0.165000
     42 C47        -1.9090    3.4920   -0.8250 ca        1 2DY     -0.093000
     43 C48        -0.8680    4.4070   -1.0240 ca        1 2DY     -0.166300
     44 H1         -4.2980   -1.6280    4.0210 hc        1 2DY      0.040367
     45 H2         -3.4620   -2.8380    5.0760 hc        1 2DY      0.040367
     46 H3         -3.0100   -1.0850    5.1750 hc        1 2DY      0.040367
     47 H4         -2.0950   -1.1250    2.8840 hc        1 2DY      0.052700
     48 H5         -1.2950   -2.3960    3.8930 hc        1 2DY      0.052700
     49 H6         -3.7040   -2.8660    1.9740 h1        1 2DY      0.074700
     50 H7         -1.9300   -4.7810    3.3140 hn        1 2DY      0.375800
     51 H9         -4.4130   -5.1520    1.7740 h1        1 2DY      0.037367
     52 H10        -2.7700   -5.6060    1.1270 h1        1 2DY      0.037367
     53 H11        -3.4290   -6.4370    2.6120 h1        1 2DY      0.037367
     54 H12        -2.4790   -1.3610    0.4620 hn        1 2DY      0.319500
     55 H13        -0.1750   -2.7380   -0.7730 h1        1 2DY      0.102700
     56 H14        -0.5370   -1.2230   -2.7760 hc        1 2DY      0.059700
     57 H15        -1.1160   -3.6510   -2.7430 hc        1 2DY      0.047700
     58 H16        -2.7800   -3.2650   -2.1450 hc        1 2DY      0.047700
     59 H17        -1.5020   -2.3730   -4.8210 hc        1 2DY      0.043200
     60 H18        -2.8120   -3.5980   -4.5930 hc        1 2DY      0.043200
     61 H19        -3.6760   -1.3500   -5.3410 hc        1 2DY      0.041700
     62 H20        -4.3630   -1.8820   -3.7550 hc        1 2DY      0.041700
     63 H21        -2.0710    0.1470   -4.2120 hc        1 2DY      0.043200
     64 H22        -3.7460    0.5010   -3.6320 hc        1 2DY      0.043200
     65 H23        -3.3790   -0.8420   -1.5910 hc        1 2DY      0.047700
     66 H24        -2.1010    0.4340   -1.7340 hc        1 2DY      0.047700
     67 H25         1.3720   -2.2990   -1.8070 h1        1 2DY      0.068200
     68 H26         2.4770   -0.9730   -2.3770 h1        1 2DY      0.068200
     69 H27         3.9220   -2.5490   -1.3880 h1        1 2DY      0.079700
     70 H28         1.6080   -3.2520    0.3880 hc        1 2DY      0.072200
     71 H29         3.1370   -4.1710    0.0670 hc        1 2DY      0.072200
     72 H30         2.6720   -4.2550    3.0490 ha        1 2DY      0.140000
     73 H31         3.7650   -3.1240    4.9930 ha        1 2DY      0.132000
     74 H32         4.9640   -0.9680    4.6850 ha        1 2DY      0.131000
     75 H33         5.1050    0.1080    2.4480 ha        1 2DY      0.138000
     76 H34         4.1360    0.9770    0.5450 h1        1 2DY      0.085200
     77 H35         4.0520    0.5140   -1.2220 h1        1 2DY      0.085200
     78 H36         1.7980    0.7820    0.8890 h1        1 2DY      0.084700
     79 H37         0.2850    2.4320    0.1590 hn        1 2DY      0.342500
     80 H38         0.6400    3.7250   -2.3900 h1        1 2DY      0.072700
     81 H39         1.5770    5.2930    0.1290 hc        1 2DY      0.071200
     82 H40         2.5420    4.8430   -1.3450 hc        1 2DY      0.071200
     83 H41         1.6960    7.2390   -1.4540 h1        1 2DY      0.059700
     84 H42         0.9620    6.2030   -2.7820 h1        1 2DY      0.059700
     85 H43        -2.7000    7.3070   -0.8080 ha        1 2DY      0.150000
     86 H44        -4.5350    5.6390   -0.4340 ha        1 2DY      0.134000
     87 H45        -4.0170    3.1980   -0.4550 ha        1 2DY      0.132000
     88 H46        -1.7070    2.4070   -0.8310 ha        1 2DY      0.145000
@<TRIPOS>BOND
     1    1    2 1   
     2    1   44 1   
     3    1   45 1   
     4    1   46 1   
     5    2    3 1   
     6    2   47 1   
     7    2   48 1   
     8    3    4 1   
     9    3    6 1   
    10    3   49 1   
    11    4    5 1   
    12    4   50 1   
    13    5   51 1   
    14    5   52 1   
    15    5   53 1   
    16    6    7 2   
    17    6    8 1   
    18    8    9 1   
    19    8   54 1   
    20    9   10 1   
    21    9   16 1   
    22    9   55 1   
    23   10   11 1   
    24   10   15 1   
    25   10   56 1   
    26   11   12 1   
    27   11   57 1   
    28   11   58 1   
    29   12   13 1   
    30   12   59 1   
    31   12   60 1   
    32   13   14 1   
    33   13   61 1   
    34   13   62 1   
    35   14   15 1   
    36   14   63 1   
    37   14   64 1   
    38   15   65 1   
    39   15   66 1   
    40   16   17 2   
    41   16   18 1   
    42   18   19 1   
    43   18   30 1   
    44   19   20 1   
    45   19   67 1   
    46   19   68 1   
    47   20   21 1   
    48   20   28 1   
    49   20   69 1   
    50   21   22 1   
    51   21   70 1   
    52   21   71 1   
    53   22   23 ar  
    54   22   27 ar  
    55   23   24 ar  
    56   23   72 1   
    57   24   25 ar  
    58   24   73 1   
    59   25   26 ar  
    60   25   74 1   
    61   26   27 ar  
    62   26   75 1   
    63   27   28 1   
    64   28   29 1   
    65   29   30 1   
    66   29   76 1   
    67   29   77 1   
    68   30   31 1   
    69   30   78 1   
    70   31   32 2   
    71   31   33 1   
    72   33   34 1   
    73   33   79 1   
    74   34   35 1   
    75   34   43 1   
    76   34   80 1   
    77   35   36 1   
    78   35   81 1   
    79   35   82 1   
    80   36   37 1   
    81   36   83 1   
    82   36   84 1   
    83   37   38 1   
    84   38   39 ar  
    85   38   43 ar  
    86   39   40 ar  
    87   39   85 1   
    88   40   41 ar  
    89   40   86 1   
    90   41   42 ar  
    91   41   87 1   
    92   42   43 ar  
    93   42   88 1   
@<TRIPOS>SUBSTRUCTURE
     1 2DY         1 TEMP              0 ****  ****    0 ROOT
