@<TRIPOS>MOLECULE
2DY
   91    96     1     0     0
SMALL
bcc


@<TRIPOS>ATOM
      1 C1          0.0510    1.5520    1.0050 c3        1 2DY     -0.139100
      2 C2          1.3670    0.8290    0.8650 c3        1 2DY     -0.110400
      3 C3          2.5610    1.6750    1.3520 c3        1 2DY      0.048500
      4 N5          2.6420    2.9900    0.6250 ny        1 2DY     -0.759000
      5 C6          3.4610    4.0090    1.3290 c3        1 2DY      0.067100
      6 C7          3.8590    0.8670    1.1770 c         1 2DY      0.516100
      7 O8          4.7520    1.1580    0.3930 o         1 2DY     -0.389100
      8 N9          3.9930   -0.3540    2.0200 ny        1 2DY     -0.667800
      9 C10         5.3980   -0.9300    2.1190 c3        1 2DY      0.070500
     10 C12         5.7710   -1.2180    3.5890 c3        1 2DY     -0.099700
     11 C13         5.9210    0.0690    4.3880 c3        1 2DY     -0.084900
     12 C14         6.4110   -0.2460    5.7910 c3        1 2DY     -0.080900
     13 C15         5.4970   -1.2290    6.4910 c3        1 2DY     -0.091400
     14 C16         5.3070   -2.4920    5.6770 c3        1 2DY     -0.080900
     15 C17         4.8110   -2.1790    4.2760 c3        1 2DY     -0.084900
     16 C18         5.4760   -2.2420    1.2930 c         1 2DY      0.647100
     17 O19         4.4000   -2.8040    0.9740 o         1 2DY     -0.637100
     18 N20         6.7020   -2.7890    0.9820 n         1 2DY     -0.406800
     19 C21         7.8820   -1.9400    0.9390 c3        1 2DY      0.046000
     20 C22         9.2500   -2.6350    0.7220 c3        1 2DY      0.191500
     21 C24        10.1970   -1.6360   -0.0210 c3        1 2DY     -0.028100
     22 C25        10.2900   -2.2160   -1.3950 ca        1 2DY     -0.133300
     23 C26        10.9130   -1.7220   -2.5250 ca        1 2DY     -0.073000
     24 C27        10.8980   -2.4950   -3.6960 ca        1 2DY     -0.118000
     25 C28        10.2790   -3.7420   -3.7180 ca        1 2DY     -0.088000
     26 C29         9.6480   -4.2630   -2.5800 ca        1 2DY     -0.144000
     27 C30         9.6550   -3.4950   -1.4190 ca        1 2DY      0.068600
     28 N31         9.1980   -3.8410   -0.1110 nh        1 2DY     -0.606000
     29 C32         8.1130   -4.7230    0.1120 c3        1 2DY      0.206800
     30 C33         6.6930   -4.0770    0.3020 c3        1 2DY     -0.000300
     31 C35         5.8670   -5.1200    1.0830 c         1 2DY      0.532100
     32 O36         5.4880   -5.0290    2.2420 o         1 2DY     -0.419100
     33 N37         5.5100   -6.3610    0.3310 ny        1 2DY     -0.681800
     34 C38         5.7370   -7.6580    1.1300 c3        1 2DY      0.226800
     35 C40         7.2380   -7.9310    1.2830 c3        1 2DY     -0.143400
     36 C41         7.5170   -9.4240    1.3290 c3        1 2DY      0.128400
     37 O42         7.0260  -10.0660    0.1480 os        1 2DY     -0.296900
     38 C43         5.6690   -9.8960   -0.0300 ca        1 2DY      0.171100
     39 C44         4.9820  -10.9160   -0.7140 ca        1 2DY     -0.127000
     40 C45         3.6120  -10.7990   -0.8940 ca        1 2DY     -0.044000
     41 C46         2.9180   -9.6910   -0.3800 ca        1 2DY     -0.132000
     42 C47         3.6010   -8.6850    0.2850 ca        1 2DY     -0.111000
     43 C48         4.9990   -8.7540    0.4390 ca        1 2DY     -0.269300
     44 H1         -0.0430    2.0550    1.9980 hc        1 2DY      0.086700
     45 H2         -0.7860    0.8070    0.9240 hc        1 2DY      0.086700
     46 H3         -0.1090    2.3000    0.1900 hc        1 2DY      0.086700
     47 H4          1.5220    0.5160   -0.2030 hc        1 2DY      0.092200
     48 H5          1.3300   -0.1010    1.4960 hc        1 2DY      0.092200
     49 H6          2.4170    1.9200    2.4530 hx        1 2DY      0.150700
     50 H7          3.0260    2.8370   -0.3210 hn        1 2DY      0.487300
     51 H9          3.4440    4.9630    0.7240 hx        1 2DY      0.128700
     52 H10         4.5210    3.6480    1.4160 hx        1 2DY      0.128700
     53 H11         3.0330    4.2150    2.3480 hx        1 2DY      0.128700
     54 H12         3.6690   -0.1470    2.9800 hn        1 2DY      0.496800
     55 H13         6.1120   -0.1630    1.6910 hx        1 2DY      0.137700
     56 H14         6.7850   -1.7190    3.5580 hc        1 2DY      0.120700
     57 H15         6.6520    0.7520    3.8820 hc        1 2DY      0.038200
     58 H16         4.9390    0.6060    4.4630 hc        1 2DY      0.038200
     59 H17         7.4510   -0.6650    5.7380 hc        1 2DY      0.074950
     60 H18         6.4650    0.7070    6.3830 hc        1 2DY      0.074950
     61 H19         4.5020   -0.7500    6.6860 hc        1 2DY      0.071200
     62 H20         5.9370   -1.4950    7.4900 hc        1 2DY      0.071200
     63 H21         4.5640   -3.1620    6.1870 hc        1 2DY      0.074950
     64 H22         6.2760   -3.0530    5.6150 hc        1 2DY      0.074950
     65 H23         3.7840   -1.7350    4.3550 hc        1 2DY      0.038200
     66 H24         4.7320   -3.1280    3.6800 hc        1 2DY      0.038200
     67 H25         7.7250   -1.1890    0.1070 h1        1 2DY      0.065200
     68 H26         7.9600   -1.3850    1.9170 h1        1 2DY      0.065200
     69 H27         9.6750   -2.9300    1.7210 h1        1 2DY      0.099700
     70 H28         9.7990   -0.5940   -0.0190 hc        1 2DY      0.080700
     71 H29        11.2010   -1.6330    0.4780 hc        1 2DY      0.080700
     72 H30        11.4240   -0.7470   -2.5100 ha        1 2DY      0.158000
     73 H31        11.3980   -2.1140   -4.6010 ha        1 2DY      0.166000
     74 H32        10.2940   -4.3430   -4.6430 ha        1 2DY      0.161000
     75 H33         9.1970   -5.2640   -2.6160 ha        1 2DY      0.133000
     76 H34         8.0350   -5.4460   -0.7490 h1        1 2DY      0.079200
     77 H35         8.3460   -5.2950    1.0600 h1        1 2DY      0.079200
     78 H36         6.2040   -3.9360   -0.7120 h1        1 2DY      0.100700
     79 H37         4.5070   -6.3250    0.0900 hn        1 2DY      0.465300
     80 H38         5.2740   -7.4610    2.1470 hx        1 2DY      0.122700
     81 H39         7.8230   -7.5000    0.4250 hc        1 2DY      0.073700
     82 H40         7.6110   -7.4600    2.2290 hc        1 2DY      0.073700
     83 H41         7.0550   -9.8970    2.2350 h1        1 2DY      0.100200
     84 H42         8.6220   -9.6300    1.3030 h1        1 2DY      0.100200
     85 H43         5.5430  -11.7930   -1.0810 ha        1 2DY      0.190000
     86 H44         3.0570  -11.5930   -1.4240 ha        1 2DY      0.177000
     87 H45         1.8230   -9.6350   -0.4960 ha        1 2DY      0.165000
     88 H46         3.0380   -7.8460    0.7210 ha        1 2DY      0.121000
     89 H52         1.6730    3.3460    0.5240 hn        1 2DY      0.487300
     90 H92         3.3760   -1.1000    1.6240 hn        1 2DY      0.496800
     91 H372        6.0450   -6.4190   -0.5420 hn        1 2DY      0.465300
@<TRIPOS>BOND
     1    1    2 1   
     2    1   44 1   
     3    1   45 1   
     4    1   46 1   
     5    2    3 1   
     6    2   47 1   
     7    2   48 1   
     8    3    4 1   
     9    3    6 1   
    10    3   49 1   
    11    4    5 1   
    12    4   50 1   
    13    4   89 1   
    14    5   51 1   
    15    5   52 1   
    16    5   53 1   
    17    6    7 2   
    18    6    8 1   
    19    8    9 1   
    20    8   54 1   
    21    8   90 1   
    22    9   10 1   
    23    9   16 1   
    24    9   55 1   
    25   10   11 1   
    26   10   15 1   
    27   10   56 1   
    28   11   12 1   
    29   11   57 1   
    30   11   58 1   
    31   12   13 1   
    32   12   59 1   
    33   12   60 1   
    34   13   14 1   
    35   13   61 1   
    36   13   62 1   
    37   14   15 1   
    38   14   63 1   
    39   14   64 1   
    40   15   65 1   
    41   15   66 1   
    42   16   17 2   
    43   16   18 1   
    44   18   19 1   
    45   18   30 1   
    46   19   20 1   
    47   19   67 1   
    48   19   68 1   
    49   20   21 1   
    50   20   28 1   
    51   20   69 1   
    52   21   22 1   
    53   21   70 1   
    54   21   71 1   
    55   22   23 ar  
    56   22   27 ar  
    57   23   24 ar  
    58   23   72 1   
    59   24   25 ar  
    60   24   73 1   
    61   25   26 ar  
    62   25   74 1   
    63   26   27 ar  
    64   26   75 1   
    65   27   28 1   
    66   28   29 1   
    67   29   30 1   
    68   29   76 1   
    69   29   77 1   
    70   30   31 1   
    71   30   78 1   
    72   31   32 2   
    73   31   33 1   
    74   33   34 1   
    75   33   79 1   
    76   33   91 1   
    77   34   35 1   
    78   34   43 1   
    79   34   80 1   
    80   35   36 1   
    81   35   81 1   
    82   35   82 1   
    83   36   37 1   
    84   36   83 1   
    85   36   84 1   
    86   37   38 1   
    87   38   39 ar  
    88   38   43 ar  
    89   39   40 ar  
    90   39   85 1   
    91   40   41 ar  
    92   40   86 1   
    93   41   42 ar  
    94   41   87 1   
    95   42   43 ar  
    96   42   88 1   
@<TRIPOS>SUBSTRUCTURE
     1 2DY         1 TEMP              0 ****  ****    0 ROOT
