@<TRIPOS>MOLECULE
2DY
   91    96     1     0     0
SMALL
bcc


@<TRIPOS>ATOM
      1 C1          0.0660    1.5650    0.9950 c3        1 2DY     -0.139100
      2 C2          1.3800    0.8380    0.8580 c3        1 2DY     -0.110400
      3 C3          2.5760    1.6830    1.3420 c3        1 2DY      0.048500
      4 N5          2.6610    2.9960    0.6120 n4        1 2DY     -0.759000
      5 C6          3.4820    4.0150    1.3120 c3        1 2DY      0.067100
      6 C7          3.8720    0.8720    1.1700 c         1 2DY      0.516100
      7 O8          4.7650    1.1560    0.3840 o         1 2DY     -0.389100
      8 N9          4.0040   -0.3460    2.0180 n4        1 2DY     -0.667800
      9 C10         5.4060   -0.9290    2.1150 c3        1 2DY      0.070500
     10 C12         5.7810   -1.2150    3.5840 c3        1 2DY     -0.099700
     11 C13         5.9410    0.0730    4.3800 c3        1 2DY     -0.084900
     12 C14         6.4320   -0.2410    5.7820 c3        1 2DY     -0.080900
     13 C15         5.5150   -1.2180    6.4870 c3        1 2DY     -0.091400
     14 C16         5.3160   -2.4820    5.6770 c3        1 2DY     -0.080900
     15 C17         4.8180   -2.1700    4.2760 c3        1 2DY     -0.084900
     16 C18         5.4750   -2.2430    1.2910 c         1 2DY      0.646100
     17 O19         4.3960   -2.8030    0.9800 o         1 2DY     -0.637100
     18 N20         6.6980   -2.7940    0.9740 n         1 2DY     -0.406800
     19 C21         7.8810   -1.9480    0.9280 c3        1 2DY      0.046000
     20 C22         9.2450   -2.6450    0.6900 c3        1 2DY      0.191500
     21 C24        10.1840   -1.6450   -0.0620 c3        1 2DY     -0.028100
     22 C25        10.2570   -2.2210   -1.4390 ca        1 2DY     -0.133300
     23 C26        10.8650   -1.7240   -2.5760 ca        1 2DY     -0.073000
     24 C27        10.8340   -2.4940   -3.7480 ca        1 2DY     -0.118000
     25 C28        10.2130   -3.7390   -3.7670 ca        1 2DY     -0.088000
     26 C29         9.5970   -4.2630   -2.6220 ca        1 2DY     -0.144000
     27 C30         9.6200   -3.4990   -1.4590 ca        1 2DY      0.068600
     28 N31         9.1810   -3.8480   -0.1460 nh        1 2DY     -0.606000
     29 C32         8.0980   -4.7290    0.0900 c3        1 2DY      0.206800
     30 C33         6.6810   -4.0840    0.2980 c3        1 2DY     -0.000300
     31 C35         5.8640   -5.1240    1.0930 c         1 2DY      0.531100
     32 O36         5.4950   -5.0280    2.2550 o         1 2DY     -0.419100
     33 N37         5.5030   -6.3710    0.3510 n4        1 2DY     -0.681800
     34 C38         5.7420   -7.6620    1.1550 c3        1 2DY      0.226800
     35 C40         7.2460   -7.9330    1.2900 c3        1 2DY     -0.143400
     36 C41         7.5280   -9.4250    1.3420 c3        1 2DY      0.128400
     37 O42         7.0230  -10.0750    0.1710 os        1 2DY     -0.296900
     38 C43         5.6630   -9.9080    0.0090 ca        1 2DY      0.171100
     39 C44         4.9690  -10.9330   -0.6600 ca        1 2DY     -0.127000
     40 C45         3.5960  -10.8180   -0.8240 ca        1 2DY     -0.044000
     41 C46         2.9080   -9.7080   -0.3070 ca        1 2DY     -0.132000
     42 C47         3.5980   -8.6970    0.3430 ca        1 2DY     -0.111000
     43 C48         4.9980   -8.7630    0.4800 ca        1 2DY     -0.269300
     44 H1         -0.0270    2.0720    1.9870 hc        1 2DY      0.086700
     45 H2         -0.7730    0.8230    0.9160 hc        1 2DY      0.086700
     46 H3         -0.0920    2.3120    0.1780 hc        1 2DY      0.086700
     47 H4          1.3400   -0.0890    1.4910 hc        1 2DY      0.092200
     48 H5          1.5340    0.5220   -0.2090 hc        1 2DY      0.092200
     49 H6          2.4330    1.9320    2.4420 hx        1 2DY      0.150700
     50 H7          3.0450    2.8390   -0.3340 hn        1 2DY      0.487300
     51 H9          3.4670    4.9670    0.7050 hx        1 2DY      0.128700
     52 H10         3.0540    4.2250    2.3300 hx        1 2DY      0.128700
     53 H11         4.5420    3.6520    1.4010 hx        1 2DY      0.128700
     54 H12         3.3810   -1.0910    1.6280 hn        1 2DY      0.496800
     55 H13         6.1230   -0.1660    1.6830 hx        1 2DY      0.137700
     56 H14         6.7930   -1.7220    3.5510 hc        1 2DY      0.120700
     57 H15         6.6740    0.7510    3.8700 hc        1 2DY      0.038200
     58 H16         4.9620    0.6150    4.4560 hc        1 2DY      0.038200
     59 H17         6.4930    0.7120    6.3720 hc        1 2DY      0.074950
     60 H18         7.4700   -0.6660    5.7280 hc        1 2DY      0.074950
     61 H19         4.5230   -0.7330    6.6830 hc        1 2DY      0.071200
     62 H20         5.9560   -1.4840    7.4860 hc        1 2DY      0.071200
     63 H21         4.5720   -3.1460    6.1900 hc        1 2DY      0.074950
     64 H22         6.2820   -3.0480    5.6130 hc        1 2DY      0.074950
     65 H23         3.7930   -1.7200    4.3560 hc        1 2DY      0.038200
     66 H24         4.7330   -3.1200    3.6830 hc        1 2DY      0.038200
     67 H25         7.9700   -1.4050    1.9120 h1        1 2DY      0.064700
     68 H26         7.7170   -1.1880    0.1070 h1        1 2DY      0.064700
     69 H27         9.6830   -2.9430    1.6830 h1        1 2DY      0.099700
     70 H28         9.7870   -0.6020   -0.0520 hc        1 2DY      0.080700
     71 H29        11.1940   -1.6440    0.4230 hc        1 2DY      0.080700
     72 H30        11.3780   -0.7500   -2.5650 ha        1 2DY      0.158000
     73 H31        11.3220   -2.1110   -4.6600 ha        1 2DY      0.166000
     74 H32        10.2150   -4.3380   -4.6930 ha        1 2DY      0.161000
     75 H33         9.1440   -5.2630   -2.6550 ha        1 2DY      0.133000
     76 H34         8.3430   -5.3030    1.0350 h1        1 2DY      0.079200
     77 H35         8.0090   -5.4520   -0.7710 h1        1 2DY      0.079200
     78 H36         6.1780   -3.9460   -0.7090 h1        1 2DY      0.100700
     79 H37         6.0300   -6.4310   -0.5270 hn        1 2DY      0.465300
     80 H38         5.2930   -7.4600    2.1760 hx        1 2DY      0.122700
     81 H39         7.8190   -7.5070    0.4210 hc        1 2DY      0.073700
     82 H40         7.6310   -7.4540    2.2280 hc        1 2DY      0.073700
     83 H41         7.0780   -9.8920    2.2570 h1        1 2DY      0.100200
     84 H42         8.6330   -9.6300    1.3040 h1        1 2DY      0.100200
     85 H43         5.5260  -11.8120   -1.0280 ha        1 2DY      0.190000
     86 H44         3.0360  -11.6170   -1.3410 ha        1 2DY      0.177000
     87 H45         1.8120   -9.6540   -0.4100 ha        1 2DY      0.165000
     88 H46         3.0390   -7.8560    0.7810 ha        1 2DY      0.121000
     89 H52         1.6930    3.3540    0.5090 hn        1 2DY      0.487300
     90 H92         3.6840   -0.1340    2.9780 hn        1 2DY      0.496800
     91 H372        4.4980   -6.3390    0.1210 hn        1 2DY      0.465300
@<TRIPOS>BOND
     1    1    2 1   
     2    1   44 1   
     3    1   45 1   
     4    1   46 1   
     5    2    3 1   
     6    2   47 1   
     7    2   48 1   
     8    3    4 1   
     9    3    6 1   
    10    3   49 1   
    11    4    5 1   
    12    4   50 1   
    13    4   89 1   
    14    5   51 1   
    15    5   52 1   
    16    5   53 1   
    17    6    7 2   
    18    6    8 1   
    19    8    9 1   
    20    8   54 1   
    21    8   90 1   
    22    9   10 1   
    23    9   16 1   
    24    9   55 1   
    25   10   11 1   
    26   10   15 1   
    27   10   56 1   
    28   11   12 1   
    29   11   57 1   
    30   11   58 1   
    31   12   13 1   
    32   12   59 1   
    33   12   60 1   
    34   13   14 1   
    35   13   61 1   
    36   13   62 1   
    37   14   15 1   
    38   14   63 1   
    39   14   64 1   
    40   15   65 1   
    41   15   66 1   
    42   16   17 2   
    43   16   18 1   
    44   18   19 1   
    45   18   30 1   
    46   19   20 1   
    47   19   67 1   
    48   19   68 1   
    49   20   21 1   
    50   20   28 1   
    51   20   69 1   
    52   21   22 1   
    53   21   70 1   
    54   21   71 1   
    55   22   23 ar  
    56   22   27 ar  
    57   23   24 ar  
    58   23   72 1   
    59   24   25 ar  
    60   24   73 1   
    61   25   26 ar  
    62   25   74 1   
    63   26   27 ar  
    64   26   75 1   
    65   27   28 1   
    66   28   29 1   
    67   29   30 1   
    68   29   76 1   
    69   29   77 1   
    70   30   31 1   
    71   30   78 1   
    72   31   32 2   
    73   31   33 1   
    74   33   34 1   
    75   33   79 1   
    76   33   91 1   
    77   34   35 1   
    78   34   43 1   
    79   34   80 1   
    80   35   36 1   
    81   35   81 1   
    82   35   82 1   
    83   36   37 1   
    84   36   83 1   
    85   36   84 1   
    86   37   38 1   
    87   38   39 ar  
    88   38   43 ar  
    89   39   40 ar  
    90   39   85 1   
    91   40   41 ar  
    92   40   86 1   
    93   41   42 ar  
    94   41   87 1   
    95   42   43 ar  
    96   42   88 1   
@<TRIPOS>SUBSTRUCTURE
     1 2DY         1 TEMP              0 ****  ****    0 ROOT
