@<TRIPOS>MOLECULE
2DY
   91    96     1     0     0
SMALL
bcc


@<TRIPOS>ATOM
      1 C1          0.0730    1.5810    0.9590 c3        1 2DY     -0.139100
      2 C2          1.3850    0.8500    0.8260 c3        1 2DY     -0.110400
      3 C3          2.5830    1.6940    1.3050 c3        1 2DY      0.048500
      4 N5          2.6700    3.0030    0.5670 n4        1 2DY     -0.759000
      5 C6          3.4950    4.0230    1.2610 c3        1 2DY      0.067100
      6 C7          3.8770    0.8790    1.1370 c         1 2DY      0.516100
      7 O8          4.7710    1.1580    0.3500 o         1 2DY     -0.389100
      8 N9          4.0050   -0.3360    1.9900 n4        1 2DY     -0.667800
      9 C10         5.4080   -0.9160    2.0960 c3        1 2DY      0.070500
     10 C12         5.7790   -1.1890    3.5690 c3        1 2DY     -0.099700
     11 C13         5.9330    0.1070    4.3540 c3        1 2DY     -0.084900
     12 C14         6.4220   -0.1930    5.7610 c3        1 2DY     -0.080900
     13 C15         5.5040   -1.1660    6.4710 c3        1 2DY     -0.091400
     14 C16         5.3100   -2.4370    5.6720 c3        1 2DY     -0.080900
     15 C17         4.8150   -2.1390    4.2670 c3        1 2DY     -0.084900
     16 C18         5.4810   -2.2380    1.2850 c         1 2DY      0.647100
     17 O19         4.4030   -2.7980    0.9700 o         1 2DY     -0.637100
     18 N20         6.7050   -2.7950    0.9840 n         1 2DY     -0.406800
     19 C21         7.8890   -1.9520    0.9290 c3        1 2DY      0.046000
     20 C22         9.2540   -2.6580    0.7320 c3        1 2DY      0.191500
     21 C24        10.2120   -1.6750   -0.0190 c3        1 2DY     -0.028100
     22 C25        10.3090   -2.2770   -1.3840 ca        1 2DY     -0.133300
     23 C26        10.9420   -1.8040   -2.5180 ca        1 2DY     -0.073000
     24 C27        10.9310   -2.5950   -3.6760 ca        1 2DY     -0.118000
     25 C28        10.3050   -3.8380   -3.6840 ca        1 2DY     -0.088000
     26 C29         9.6640   -4.3390   -2.5420 ca        1 2DY     -0.144000
     27 C30         9.6680   -3.5530   -1.3930 ca        1 2DY      0.068600
     28 N31         9.2010   -3.8760   -0.0820 nh        1 2DY     -0.606000
     29 C32         8.1080   -4.7480    0.1470 c3        1 2DY      0.206800
     30 C33         6.6910   -4.0910    0.3180 c3        1 2DY     -0.001300
     31 C35         5.8530   -5.1190    1.1050 c         1 2DY      0.532100
     32 O36         5.4700   -5.0140    2.2620 o         1 2DY     -0.419100
     33 N37         5.4900   -6.3650    0.3640 n4        1 2DY     -0.681800
     34 C38         5.7010   -7.6550    1.1770 c3        1 2DY      0.226800
     35 C40         7.1980   -7.9370    1.3470 c3        1 2DY     -0.143400
     36 C41         7.4670   -9.4310    1.4090 c3        1 2DY      0.128400
     37 O42         6.9830  -10.0810    0.2290 os        1 2DY     -0.296900
     38 C43         5.6280   -9.9030    0.0370 ca        1 2DY      0.171100
     39 C44         4.9410  -10.9250   -0.6440 ca        1 2DY     -0.127000
     40 C45         3.5720  -10.8000   -0.8380 ca        1 2DY     -0.044000
     41 C46         2.8820   -9.6830   -0.3400 ca        1 2DY     -0.132000
     42 C47         3.5660   -8.6750    0.3220 ca        1 2DY     -0.111000
     43 C48         4.9620   -8.7520    0.4900 ca        1 2DY     -0.269300
     44 H1         -0.0840    2.3220    0.1370 hc        1 2DY      0.086700
     45 H2         -0.0190    2.0940    1.9480 hc        1 2DY      0.086700
     46 H3         -0.7690    0.8400    0.8850 hc        1 2DY      0.086700
     47 H4          1.3430   -0.0740    1.4660 hc        1 2DY      0.092200
     48 H5          1.5380    0.5260   -0.2390 hc        1 2DY      0.092200
     49 H6          2.4410    1.9500    2.4040 hx        1 2DY      0.150700
     50 H7          3.0530    2.8400   -0.3780 hn        1 2DY      0.487300
     51 H9          3.4820    4.9720    0.6480 hx        1 2DY      0.128700
     52 H10         4.5540    3.6580    1.3500 hx        1 2DY      0.128700
     53 H11         3.0680    4.2410    2.2780 hx        1 2DY      0.128700
     54 H12         3.3850   -1.0830    1.5990 hn        1 2DY      0.496800
     55 H13         6.1250   -0.1570    1.6590 hx        1 2DY      0.137700
     56 H14         6.7920   -1.6930    3.5440 hc        1 2DY      0.120700
     57 H15         4.9530    0.6480    4.4220 hc        1 2DY      0.038200
     58 H16         6.6670    0.7820    3.8400 hc        1 2DY      0.038200
     59 H17         6.4790    0.7660    6.3410 hc        1 2DY      0.074950
     60 H18         7.4600   -0.6160    5.7130 hc        1 2DY      0.074950
     61 H19         5.9430   -1.4210    7.4730 hc        1 2DY      0.071200
     62 H20         4.5100   -0.6810    6.6600 hc        1 2DY      0.071200
     63 H21         6.2780   -3.0020    5.6160 hc        1 2DY      0.074950
     64 H22         4.5660   -3.0980    6.1890 hc        1 2DY      0.074950
     65 H23         4.7340   -3.0940    3.6820 hc        1 2DY      0.038200
     66 H24         3.7900   -1.6900    4.3400 hc        1 2DY      0.038200
     67 H25         7.7390   -1.2160    0.0830 h1        1 2DY      0.065200
     68 H26         7.9660   -1.3790    1.8970 h1        1 2DY      0.065200
     69 H27         9.6710   -2.9400    1.7390 h1        1 2DY      0.099700
     70 H28         9.8190   -0.6310   -0.0360 hc        1 2DY      0.080700
     71 H29        11.2120   -1.6690    0.4850 hc        1 2DY      0.080700
     72 H30        11.4580   -0.8320   -2.5140 ha        1 2DY      0.158000
     73 H31        11.4380   -2.2310   -4.5850 ha        1 2DY      0.166000
     74 H32        10.3220   -4.4540   -4.5990 ha        1 2DY      0.161000
     75 H33         9.2080   -5.3370   -2.5650 ha        1 2DY      0.132000
     76 H34         8.3330   -5.3070    1.1050 h1        1 2DY      0.079200
     77 H35         8.0320   -5.4840   -0.7040 h1        1 2DY      0.079200
     78 H36         6.2120   -3.9580   -0.7010 h1        1 2DY      0.100700
     79 H37         6.0310   -6.4360   -0.5050 hn        1 2DY      0.465300
     80 H38         5.2300   -7.4460    2.1880 hx        1 2DY      0.122700
     81 H39         7.7950   -7.5180    0.4910 hc        1 2DY      0.073700
     82 H40         7.5660   -7.4600    2.2930 hc        1 2DY      0.073700
     83 H41         8.5710   -9.6460    1.3950 h1        1 2DY      0.100200
     84 H42         6.9940   -9.8930    2.3150 h1        1 2DY      0.100200
     85 H43         5.4980  -11.8090   -0.9970 ha        1 2DY      0.190000
     86 H44         3.0170  -11.5960   -1.3650 ha        1 2DY      0.177000
     87 H45         1.7890   -9.6210   -0.4660 ha        1 2DY      0.165000
     88 H46         3.0050   -7.8290    0.7460 ha        1 2DY      0.121000
     89 H52         1.7030    3.3630    0.4630 hn        1 2DY      0.487300
     90 H92         3.6800   -0.1200    2.9470 hn        1 2DY      0.496800
     91 H372        4.4900   -6.3220    0.1160 hn        1 2DY      0.465300
@<TRIPOS>BOND
     1    1    2 1   
     2    1   44 1   
     3    1   45 1   
     4    1   46 1   
     5    2    3 1   
     6    2   47 1   
     7    2   48 1   
     8    3    4 1   
     9    3    6 1   
    10    3   49 1   
    11    4    5 1   
    12    4   50 1   
    13    4   89 1   
    14    5   51 1   
    15    5   52 1   
    16    5   53 1   
    17    6    7 2   
    18    6    8 1   
    19    8    9 1   
    20    8   54 1   
    21    8   90 1   
    22    9   10 1   
    23    9   16 1   
    24    9   55 1   
    25   10   11 1   
    26   10   15 1   
    27   10   56 1   
    28   11   12 1   
    29   11   57 1   
    30   11   58 1   
    31   12   13 1   
    32   12   59 1   
    33   12   60 1   
    34   13   14 1   
    35   13   61 1   
    36   13   62 1   
    37   14   15 1   
    38   14   63 1   
    39   14   64 1   
    40   15   65 1   
    41   15   66 1   
    42   16   17 2   
    43   16   18 1   
    44   18   19 1   
    45   18   30 1   
    46   19   20 1   
    47   19   67 1   
    48   19   68 1   
    49   20   21 1   
    50   20   28 1   
    51   20   69 1   
    52   21   22 1   
    53   21   70 1   
    54   21   71 1   
    55   22   23 ar  
    56   22   27 ar  
    57   23   24 ar  
    58   23   72 1   
    59   24   25 ar  
    60   24   73 1   
    61   25   26 ar  
    62   25   74 1   
    63   26   27 ar  
    64   26   75 1   
    65   27   28 1   
    66   28   29 1   
    67   29   30 1   
    68   29   76 1   
    69   29   77 1   
    70   30   31 1   
    71   30   78 1   
    72   31   32 2   
    73   31   33 1   
    74   33   34 1   
    75   33   79 1   
    76   33   91 1   
    77   34   35 1   
    78   34   43 1   
    79   34   80 1   
    80   35   36 1   
    81   35   81 1   
    82   35   82 1   
    83   36   37 1   
    84   36   83 1   
    85   36   84 1   
    86   37   38 1   
    87   38   39 ar  
    88   38   43 ar  
    89   39   40 ar  
    90   39   85 1   
    91   40   41 ar  
    92   40   86 1   
    93   41   42 ar  
    94   41   87 1   
    95   42   43 ar  
    96   42   88 1   
@<TRIPOS>SUBSTRUCTURE
     1 2DY         1 TEMP              0 ****  ****    0 ROOT
