@<TRIPOS>MOLECULE
2DZ
   47    49     1     0     0
SMALL
bcc


@<TRIPOS>ATOM
      1 O           2.4840    0.2420    0.1580 o         1 2DZ     -0.806800
      2 C           2.9130   -0.4470   -0.8110 c         1 2DZ      0.917600
      3 OXT         3.5520   -1.5220   -0.7310 o         1 2DZ     -0.806800
      4 CA          2.6700    0.1180   -2.2490 c3        1 2DZ     -0.124700
      5 N           1.3160   -0.0010   -2.7090 na        1 2DZ      0.009600
      6 CBD         0.7820   -1.1230   -3.3440 ca        1 2DZ     -0.051200
      7 CAO         1.3430   -2.3980   -3.5640 ca        1 2DZ     -0.088000
      8 CAM         0.5810   -3.3360   -4.2310 ca        1 2DZ     -0.175000
      9 CAX        -0.7310   -3.0270   -4.6700 ca        1 2DZ      0.069100
     10 OAU        -1.5000   -3.9330   -5.3960 os        1 2DZ     -0.344900
     11 CAA        -1.2520   -5.3020   -5.1070 c3        1 2DZ      0.119700
     12 CAQ        -1.3170   -1.7870   -4.4480 ca        1 2DZ     -0.111000
     13 CBC        -0.5630   -0.8140   -3.7830 ca        1 2DZ     -0.093800
     14 CAR        -0.8230    0.5370   -3.3780 cc        1 2DZ     -0.147200
     15 CAZ         0.3320    0.9940   -2.7210 cd        1 2DZ     -0.127300
     16 CAW         0.4630    2.3320   -2.1060 c         1 2DZ      0.745300
     17 OAC         0.1260    3.3650   -2.7180 o         1 2DZ     -0.612100
     18 NAT         0.9220    2.4240   -0.7930 n         1 2DZ     -0.688300
     19 SBH         1.1710    3.7620    0.0720 sy        1 2DZ      1.502900
     20 OAE         1.3630    3.5300    1.4370 o         1 2DZ     -0.633300
     21 OAF         2.0990    4.6260   -0.5350 o         1 2DZ     -0.633300
     22 CBB        -0.3740    4.6100   -0.0410 ca        1 2DZ     -0.224500
     23 CAN        -0.4460    5.6260   -1.0000 ca        1 2DZ     -0.025000
     24 CAL        -1.5680    6.4460   -1.1190 ca        1 2DZ     -0.079000
     25 CAY        -2.6470    6.2590   -0.2580 ca        1 2DZ     -0.137300
     26 CBG        -3.8790    7.1510   -0.3730 c3        1 2DZ      0.686200
     27 FAJ        -4.8540    6.6600   -1.2080 f         1 2DZ     -0.235300
     28 FAK        -4.5360    7.3760    0.8120 f         1 2DZ     -0.235300
     29 FAI        -3.6260    8.4110   -0.8610 f         1 2DZ     -0.235300
     30 CAP        -2.6230    5.2460    0.7010 ca        1 2DZ     -0.070000
     31 CBA        -1.4930    4.4170    0.7830 ca        1 2DZ     -0.065200
     32 NBF        -1.5460    3.2980    1.7800 no        1 2DZ      0.310200
     33 OAH        -1.0160    2.2600    1.5100 o         1 2DZ     -0.184000
     34 OAD        -2.1690    3.4730    2.7920 o         1 2DZ     -0.184000
     35 H2          2.9640    1.2030   -2.2600 h1        1 2DZ      0.054200
     36 H3          3.3320   -0.4470   -2.9630 h1        1 2DZ      0.054200
     37 H4          2.3500   -2.6310   -3.1820 ha        1 2DZ      0.167000
     38 H5          0.9930   -4.3380   -4.4160 ha        1 2DZ      0.128000
     39 H6         -0.3140   -5.6370   -5.6140 h1        1 2DZ      0.034033
     40 H7         -2.1370   -5.8340   -5.5380 h1        1 2DZ      0.034033
     41 H8         -1.1810   -5.4820   -4.0070 h1        1 2DZ      0.034033
     42 H9         -2.3390   -1.5770   -4.7900 ha        1 2DZ      0.139000
     43 H10        -1.7330    1.1050   -3.5400 ha        1 2DZ      0.155000
     44 H11         1.1740    1.5210   -0.3660 hn        1 2DZ      0.425500
     45 H12         0.4110    5.7700   -1.6880 ha        1 2DZ      0.193000
     46 H13        -1.5990    7.2380   -1.8850 ha        1 2DZ      0.160000
     47 H14        -3.4780    5.1060    1.3850 ha        1 2DZ      0.179000
@<TRIPOS>BOND
     1    1    2 1   
     2    2    3 1   
     3    2    4 1   
     4    4    5 1   
     5    4   35 1   
     6    4   36 1   
     7    5    6 1   
     8    5   15 1   
     9    6    7 ar  
    10    6   13 ar  
    11    7    8 ar  
    12    7   37 1   
    13    8    9 ar  
    14    8   38 1   
    15    9   10 1   
    16    9   12 ar  
    17   10   11 1   
    18   11   39 1   
    19   11   40 1   
    20   11   41 1   
    21   12   13 ar  
    22   12   42 1   
    23   13   14 1   
    24   14   15 2   
    25   14   43 1   
    26   15   16 1   
    27   16   17 2   
    28   16   18 1   
    29   18   19 1   
    30   18   44 1   
    31   19   20 2   
    32   19   21 2   
    33   19   22 1   
    34   22   23 ar  
    35   22   31 ar  
    36   23   24 ar  
    37   23   45 1   
    38   24   25 ar  
    39   24   46 1   
    40   25   26 1   
    41   25   30 ar  
    42   26   27 1   
    43   26   28 1   
    44   26   29 1   
    45   30   31 ar  
    46   30   47 1   
    47   31   32 1   
    48   32   33 1   
    49   32   34 1   
@<TRIPOS>SUBSTRUCTURE
     1 2DZ         1 TEMP              0 ****  ****    0 ROOT
