@<TRIPOS>MOLECULE
2DZ
   48    50     1     0     0
SMALL
bcc


@<TRIPOS>ATOM
      1 O           1.6270   -0.4500    0.6030 oh        1 2DZ     -0.556100
      2 C           2.4390   -0.7940   -0.4280 c         1 2DZ      0.617100
      3 OXT         3.1950   -1.7350   -0.1880 o         1 2DZ     -0.483000
      4 CA          2.4300   -0.0300   -1.7450 c3        1 2DZ     -0.081700
      5 N           1.1170    0.0470   -2.3350 na        1 2DZ     -0.064400
      6 CBD         0.6290   -1.0820   -3.0530 ca        1 2DZ     -0.073200
      7 CAO         0.8180   -2.4470   -2.8090 ca        1 2DZ     -0.100000
      8 CAM         0.1610   -3.3570   -3.6270 ca        1 2DZ     -0.162000
      9 CAX        -0.6730   -2.9170   -4.6750 ca        1 2DZ      0.109100
     10 OAU        -1.3580   -3.7670   -5.5230 os        1 2DZ     -0.325900
     11 CAA        -1.2010   -5.1610   -5.2850 c3        1 2DZ      0.111700
     12 CAQ        -0.8700   -1.5530   -4.9410 ca        1 2DZ     -0.105000
     13 CBC        -0.2110   -0.6350   -4.1340 ca        1 2DZ     -0.083800
     14 CAR        -0.1690    0.8130   -4.1120 cc        1 2DZ     -0.054200
     15 CAZ         0.6580    1.1910   -3.0590 cd        1 2DZ     -0.163300
     16 CAW         0.8580    2.6040   -2.6840 c         1 2DZ      0.724300
     17 OAC         0.7240    3.5170   -3.5160 o         1 2DZ     -0.551100
     18 NAT         1.1340    2.9210   -1.3490 n         1 2DZ     -0.681300
     19 SBH         1.3520    4.3890   -0.6560 sy        1 2DZ      1.497900
     20 OAE         1.9730    5.3060   -1.5060 o         1 2DZ     -0.615800
     21 OAF         1.9260    4.1960    0.6080 o         1 2DZ     -0.615800
     22 CBB        -0.2790    4.9190   -0.4030 ca        1 2DZ     -0.273500
     23 CAN        -0.7370    5.9320   -1.2500 ca        1 2DZ     -0.035000
     24 CAL        -2.0030    6.5030   -1.0960 ca        1 2DZ     -0.069000
     25 CAY        -2.8300    6.0630   -0.0670 ca        1 2DZ     -0.119300
     26 CBG        -4.2200    6.6750    0.1130 c3        1 2DZ      0.687200
     27 FAJ        -5.2070    6.0050   -0.5670 f         1 2DZ     -0.224300
     28 FAK        -4.6580    6.7080    1.4130 f         1 2DZ     -0.224300
     29 FAI        -4.3220    7.9730   -0.3210 f         1 2DZ     -0.224300
     30 CAP        -2.4110    5.0510    0.8010 ca        1 2DZ     -0.060000
     31 CBA        -1.1480    4.4750    0.6110 ca        1 2DZ     -0.062200
     32 NBF        -0.7700    3.3560    1.5360 no        1 2DZ      0.316200
     33 OAH        -0.1610    2.4160    1.0930 o         1 2DZ     -0.193000
     34 OAD        -1.1350    3.4100    2.6720 o         1 2DZ     -0.193000
     35 H2          2.8490    0.9960   -1.5560 h1        1 2DZ      0.092700
     36 H3          3.1490   -0.5660   -2.4360 h1        1 2DZ      0.092700
     37 H4          1.4700   -2.7910   -1.9900 ha        1 2DZ      0.159000
     38 H5          0.3020   -4.4330   -3.4440 ha        1 2DZ      0.148000
     39 H6         -1.5690   -5.4320   -4.2650 h1        1 2DZ      0.047367
     40 H7         -1.8430   -5.6310   -6.0730 h1        1 2DZ      0.047367
     41 H8         -0.1340   -5.4670   -5.4130 h1        1 2DZ      0.047367
     42 H9         -1.5270   -1.2360   -5.7630 ha        1 2DZ      0.161000
     43 H10        -0.7000    1.4840   -4.7860 ha        1 2DZ      0.179000
     44 H11         1.0900    2.1390   -0.7240 hn        1 2DZ      0.351500
     45 H12        -0.0750    6.2980   -2.0630 ha        1 2DZ      0.196000
     46 H13        -2.3390    7.3020   -1.7790 ha        1 2DZ      0.175000
     47 H14        -3.0690    4.7230    1.6270 ha        1 2DZ      0.191000
     48 HAT2        1.0180    0.2600    0.3510 ho        1 2DZ      0.442000
@<TRIPOS>BOND
     1    1    2 1   
     2    1   48 1   
     3    2    3 2   
     4    2    4 1   
     5    4    5 1   
     6    4   35 1   
     7    4   36 1   
     8    5    6 1   
     9    5   15 1   
    10    6    7 ar  
    11    6   13 ar  
    12    7    8 ar  
    13    7   37 1   
    14    8    9 ar  
    15    8   38 1   
    16    9   10 1   
    17    9   12 ar  
    18   10   11 1   
    19   11   39 1   
    20   11   40 1   
    21   11   41 1   
    22   12   13 ar  
    23   12   42 1   
    24   13   14 1   
    25   14   15 2   
    26   14   43 1   
    27   15   16 1   
    28   16   17 2   
    29   16   18 1   
    30   18   19 1   
    31   18   44 1   
    32   19   20 2   
    33   19   21 2   
    34   19   22 1   
    35   22   23 ar  
    36   22   31 ar  
    37   23   24 ar  
    38   23   45 1   
    39   24   25 ar  
    40   24   46 1   
    41   25   26 1   
    42   25   30 ar  
    43   26   27 1   
    44   26   28 1   
    45   26   29 1   
    46   30   31 ar  
    47   30   47 1   
    48   31   32 1   
    49   32   33 1   
    50   32   34 1   
@<TRIPOS>SUBSTRUCTURE
     1 2DZ         1 TEMP              0 ****  ****    0 ROOT
