@<TRIPOS>MOLECULE
2DZ
   48    50     1     0     0
SMALL
bcc


@<TRIPOS>ATOM
      1 O           1.6110   -0.4600    0.6110 oh        1 2DZ     -0.556100
      2 C           2.4290   -0.8020   -0.4160 c         1 2DZ      0.617100
      3 OXT         3.1830   -1.7430   -0.1750 o         1 2DZ     -0.483000
      4 CA          2.4280   -0.0340   -1.7320 c3        1 2DZ     -0.081700
      5 N           1.1180    0.0460   -2.3290 na        1 2DZ     -0.064400
      6 CBD         0.6340   -1.0810   -3.0530 ca        1 2DZ     -0.073200
      7 CAO         0.8210   -2.4470   -2.8110 ca        1 2DZ     -0.100000
      8 CAM         0.1680   -3.3540   -3.6350 ca        1 2DZ     -0.162000
      9 CAX        -0.6590   -2.9110   -4.6870 ca        1 2DZ      0.109100
     10 OAU        -1.3400   -3.7590   -5.5410 os        1 2DZ     -0.325900
     11 CAA        -1.1850   -5.1540   -5.3050 c3        1 2DZ      0.111700
     12 CAQ        -0.8540   -1.5470   -4.9510 ca        1 2DZ     -0.105000
     13 CBC        -0.1990   -0.6310   -4.1380 ca        1 2DZ     -0.083800
     14 CAR        -0.1560    0.8170   -4.1110 cc        1 2DZ     -0.054200
     15 CAZ         0.6650    1.1920   -3.0530 cd        1 2DZ     -0.163300
     16 CAW         0.8630    2.6040   -2.6730 c         1 2DZ      0.724300
     17 OAC         0.7360    3.5180   -3.5040 o         1 2DZ     -0.550100
     18 NAT         1.1310    2.9170   -1.3350 ns        1 2DZ     -0.681300
     19 SBH         1.3470    4.3830   -0.6370 sy        1 2DZ      1.497900
     20 OAE         1.9760    5.3010   -1.4810 o         1 2DZ     -0.615800
     21 OAF         1.9120    4.1860    0.6300 o         1 2DZ     -0.615800
     22 CBB        -0.2840    4.9160   -0.3940 ca        1 2DZ     -0.273500
     23 CAN        -0.7350    5.9310   -1.2430 ca        1 2DZ     -0.035000
     24 CAL        -2.0000    6.5050   -1.0960 ca        1 2DZ     -0.069000
     25 CAY        -2.8350    6.0640   -0.0740 ca        1 2DZ     -0.119300
     26 CBG        -4.2260    6.6790    0.0980 c3        1 2DZ      0.687200
     27 FAJ        -5.2090    6.0130   -0.5900 f         1 2DZ     -0.224300
     28 FAK        -4.6720    6.7100    1.3950 f         1 2DZ     -0.224300
     29 FAI        -4.3210    7.9780   -0.3340 f         1 2DZ     -0.224300
     30 CAP        -2.4240    5.0500    0.7950 ca        1 2DZ     -0.060000
     31 CBA        -1.1610    4.4720    0.6120 ca        1 2DZ     -0.062200
     32 NBF        -0.7920    3.3500    1.5370 no        1 2DZ      0.316200
     33 OAH        -0.1810    2.4100    1.0980 o         1 2DZ     -0.193000
     34 OAD        -1.1650    3.4020    2.6720 o         1 2DZ     -0.193000
     35 H2          3.1510   -0.5680   -2.4200 h1        1 2DZ      0.092700
     36 H3          2.8460    0.9920   -1.5370 h1        1 2DZ      0.092700
     37 H4          1.4680   -2.7940   -1.9890 ha        1 2DZ      0.159000
     38 H5          0.3070   -4.4310   -3.4540 ha        1 2DZ      0.148000
     39 H6         -1.8230   -5.6210   -6.0990 h1        1 2DZ      0.047367
     40 H7         -1.5580   -5.4270   -4.2890 h1        1 2DZ      0.047367
     41 H8         -0.1180   -5.4590   -5.4280 h1        1 2DZ      0.047367
     42 H9         -1.5060   -1.2270   -5.7750 ha        1 2DZ      0.161000
     43 H10        -0.6830    1.4900   -4.7870 ha        1 2DZ      0.179000
     44 H11         1.0810    2.1340   -0.7120 hn        1 2DZ      0.351500
     45 H12        -0.0660    6.2980   -2.0500 ha        1 2DZ      0.196000
     46 H13        -2.3300    7.3060   -1.7800 ha        1 2DZ      0.175000
     47 H14        -3.0890    4.7210    1.6160 ha        1 2DZ      0.191000
     48 HAT2        1.0040    0.2520    0.3570 ho        1 2DZ      0.442000
@<TRIPOS>BOND
     1    1    2 1   
     2    1   48 1   
     3    2    3 2   
     4    2    4 1   
     5    4    5 1   
     6    4   35 1   
     7    4   36 1   
     8    5    6 1   
     9    5   15 1   
    10    6    7 ar  
    11    6   13 ar  
    12    7    8 ar  
    13    7   37 1   
    14    8    9 ar  
    15    8   38 1   
    16    9   10 1   
    17    9   12 ar  
    18   10   11 1   
    19   11   39 1   
    20   11   40 1   
    21   11   41 1   
    22   12   13 ar  
    23   12   42 1   
    24   13   14 1   
    25   14   15 2   
    26   14   43 1   
    27   15   16 1   
    28   16   17 2   
    29   16   18 1   
    30   18   19 1   
    31   18   44 1   
    32   19   20 2   
    33   19   21 2   
    34   19   22 1   
    35   22   23 ar  
    36   22   31 ar  
    37   23   24 ar  
    38   23   45 1   
    39   24   25 ar  
    40   24   46 1   
    41   25   26 1   
    42   25   30 ar  
    43   26   27 1   
    44   26   28 1   
    45   26   29 1   
    46   30   31 ar  
    47   30   47 1   
    48   31   32 1   
    49   32   33 1   
    50   32   34 1   
@<TRIPOS>SUBSTRUCTURE
     1 2DZ         1 TEMP              0 ****  ****    0 ROOT
