@<TRIPOS>MOLECULE
2E1
   45    42     1     0     0
SMALL
bcc


@<TRIPOS>ATOM
      1 C19         2.2380    0.8870   -1.1510 c3        1 2E1     -0.106500
      2 C20         1.3920    1.6700   -0.1540 c3        1 2E1     -0.054500
      3 C17        -0.5020    1.4160   -1.5730 c3        1 2E1     -0.054500
      4 C16         0.3350    0.6350   -2.5630 c3        1 2E1     -0.106500
      5 N21         0.0160    1.3350   -0.2310 n3        1 2E1     -0.223000
      6 C3         -0.1940   -0.0370    0.2990 c2        1 2E1      0.005000
      7 C2          0.7600   -0.8330    0.8980 c1        1 2E1     -0.198000
      8 C8          2.2250   -0.4340    1.1860 c1        1 2E1      0.384000
      9 N24         1.7260    0.9700   -2.4850 n3        1 2E1     -0.297000
     10 O9          2.6120    0.6340    0.8860 o         1 2E1     -0.364000
     11 N10         3.1050   -1.3570    1.8560 n3        1 2E1     -0.359000
     12 C26         4.5710   -1.1870    1.7580 c3        1 2E1     -0.038000
     13 C27         5.1720   -1.0500    3.1780 c3        1 2E1     -0.241000
     14 N1          0.1590   -1.9880    1.2840 n2        1 2E1     -0.059000
     15 N5         -1.1770   -1.9180    0.9270 n2        1 2E1     -0.118000
     16 C4         -1.3900   -0.7190    0.3230 c2        1 2E1     -0.052000
     17 C6         -2.6660   -0.1820   -0.0340 c1        1 2E1     -0.069000
     18 C11        -3.3240    0.6760    0.8430 c1        1 2E1     -0.020000
     19 C12        -4.6310    1.0710    0.5820 c1        1 2E1     -0.186000
     20 CL25       -5.4030    2.2370    1.6080 cl        1 2E1     -0.006000
     21 C13        -5.2820    0.6100   -0.5530 c2        1 2E1      0.138000
     22 O24        -6.5560    1.0860   -0.8640 oh        1 2E1     -0.240000
     23 C14        -4.6290   -0.2450   -1.4300 c1        1 2E1     -0.246000
     24 C15        -3.3150   -0.6420   -1.1680 c1        1 2E1      0.119000
     25 O23        -2.6250   -1.4450   -2.0900 oh        1 2E1     -0.264000
     26 H191        2.2580   -0.0830   -0.8700 h1        1 2E1      0.076750
     27 H192        3.1390    1.2350   -1.1380 h1        1 2E1      0.076750
     28 H201        1.7070    1.4820    0.7370 h1        1 2E1      0.106500
     29 H202        1.4960    2.6320   -0.3310 h1        1 2E1      0.106500
     30 H171       -1.4110    1.0640   -1.5810 h1        1 2E1      0.106500
     31 H172       -0.5240    2.3400   -1.8440 h1        1 2E1      0.106500
     32 H161        0.0130    0.8250   -3.4710 h1        1 2E1      0.076750
     33 H162        0.2270   -0.3330   -2.3800 h1        1 2E1      0.076750
     34 H24         2.2000    0.4210   -3.0260 hn        1 2E1      0.156000
     35 H10         2.7520   -2.0520    2.3530 hn        1 2E1      0.225000
     36 H261        4.9660   -1.9770    1.3060 h1        1 2E1      0.099500
     37 H262        4.7730   -0.3730    1.2340 h1        1 2E1      0.099500
     38 H271        4.9200   -0.1860    3.5580 hc        1 2E1      0.081667
     39 H272        6.1590   -1.1130    3.1270 hc        1 2E1      0.081667
     40 H273        4.8250   -1.7770    3.7530 hc        1 2E1      0.081667
     41 H5         -1.8310   -2.5910    1.0780 DU        1 2E1      0.288000
     42 H11        -2.8820    0.9460    1.7080 ha        1 2E1      0.181000
     43 HA         -7.1620    0.5390   -0.5340 ho        1 2E1      0.236000
     44 H14        -5.0910   -0.5710   -2.2350 ha        1 2E1      0.160000
     45 H23        -3.1500   -1.6190   -2.7790 ho        1 2E1      0.232000
@<TRIPOS>BOND
     1    1    2 1   
     2    1    9 1   
     3    1   26 1   
     4    1   27 1   
     5    2    5 1   
     6    2   28 1   
     7    2   29 1   
     8    3    4 1   
     9    3    5 1   
    10    3   30 1   
    11    3   31 1   
    12    4    9 1   
    13    4   32 1   
    14    4   33 1   
    15    5    6 1   
    16    6    7 1   
    17    6   16 1   
    18    7   14 1   
    19    8   10 1   
    20    8   11 1   
    21    9   34 1   
    22   11   12 1   
    23   11   35 1   
    24   12   13 1   
    25   12   36 1   
    26   12   37 1   
    27   13   38 1   
    28   13   39 1   
    29   13   40 1   
    30   14   15 1   
    31   15   16 1   
    32   16   17 1   
    33   17   24 1   
    34   18   19 1   
    35   18   42 1   
    36   19   21 1   
    37   21   22 1   
    38   21   23 1   
    39   22   43 1   
    40   23   44 1   
    41   24   25 1   
    42   25   45 1   
@<TRIPOS>SUBSTRUCTURE
     1 2E1         1 TEMP              0 ****  ****    0 ROOT
