@<TRIPOS>MOLECULE
2E1
   46    48     1     0     0
SMALL
bcc


@<TRIPOS>ATOM
      1 C19        -0.3520    0.2060    0.8290 c3        1 2E1      0.162300
      2 C20         1.1450    0.2730    0.4620 c3        1 2E1      0.186300
      3 C17         1.4800   -1.8840    1.5790 c3        1 2E1      0.186300
      4 C16        -0.0240   -1.9190    1.9210 c3        1 2E1      0.162300
      5 N21         1.9690   -0.5250    1.3620 nh        1 2E1     -0.628000
      6 C3          3.3450   -0.4020    1.2070 cc        1 2E1      0.079300
      7 C2          4.2880   -0.3470    2.3240 cc        1 2E1      0.152800
      8 C8          3.9580   -0.5420    3.7140 c         1 2E1      0.515600
      9 N24        -0.8210   -1.1550    0.9830 n7        1 2E1     -0.824200
     10 O9          2.9660   -1.0420    4.2220 o         1 2E1     -0.423100
     11 N10         5.0220   -0.0280    4.6840 ny        1 2E1     -0.676800
     12 C26         4.6150   -0.1250    6.1150 c3        1 2E1      0.107800
     13 C27         5.6790    0.3910    7.0590 c3        1 2E1     -0.135100
     14 N1          5.5620   -0.0730    1.8530 nd        1 2E1     -0.501800
     15 N5          5.4720    0.0160    0.5550 na        1 2E1      0.088400
     16 C4          4.1670   -0.1740    0.0610 cd        1 2E1     -0.052300
     17 C6          3.8680   -0.1560   -1.3540 ca        1 2E1     -0.127000
     18 C11         3.0280   -1.1360   -1.9010 ca        1 2E1     -0.021000
     19 C12         2.7140   -1.1410   -3.2580 ca        1 2E1     -0.108600
     20 Cl25        1.6890   -2.3450   -3.8720 cl        1 2E1     -0.052400
     21 C13         3.2540   -0.1490   -4.1070 ca        1 2E1      0.213100
     22 O24         3.0030   -0.0610   -5.4440 oh        1 2E1     -0.468100
     23 C14         4.1150    0.8290   -3.5850 ca        1 2E1     -0.241000
     24 C15         4.4240    0.8120   -2.2230 ca        1 2E1      0.185100
     25 O23         5.2960    1.7240   -1.6770 oh        1 2E1     -0.520100
     26 H191       -0.9300    0.6780   -0.0150 h1        1 2E1      0.046700
     27 H192       -0.5200    0.8280    1.7570 h1        1 2E1      0.046700
     28 H201        1.4800    1.3450    0.5420 h1        1 2E1      0.050200
     29 H202        1.2690   -0.0560   -0.6110 h1        1 2E1      0.050200
     30 H171        1.6630   -2.5270    0.6700 h1        1 2E1      0.050200
     31 H172        2.0460   -2.3250    2.4470 h1        1 2E1      0.050200
     32 H161       -0.1530   -1.5660    2.9860 h1        1 2E1      0.046700
     33 H162       -0.3600   -2.9930    1.8660 h1        1 2E1      0.046700
     34 H24        -1.7880   -1.1700    1.2470 hn        1 2E1      0.382800
     35 H10         5.2250    0.9510    4.4510 hn        1 2E1      0.459800
     36 H261        4.3850   -1.2090    6.3320 hx        1 2E1      0.112200
     37 H262        3.6580    0.4610    6.2370 hx        1 2E1      0.112200
     38 H271        5.2940    0.2810    8.1060 hc        1 2E1      0.076700
     39 H272        6.6270   -0.1950    6.9750 hc        1 2E1      0.076700
     40 H273        5.9030    1.4710    6.8820 hc        1 2E1      0.076700
     41 H5          6.2630    0.2840   -0.0040 hn        1 2E1      0.361700
     42 H11         2.6090   -1.9170   -1.2430 ha        1 2E1      0.163000
     43 HA          2.4050   -0.7840   -5.7050 ho        1 2E1      0.449000
     44 H14         4.5350    1.5910   -4.2590 ha        1 2E1      0.174000
     45 H23         5.5180    2.3820   -2.3560 ho        1 2E1      0.449000
     46 H102        5.8830   -0.5670    4.5360 hn        1 2E1      0.459800
@<TRIPOS>BOND
     1    1    2 1   
     2    1    9 1   
     3    1   26 1   
     4    1   27 1   
     5    2    5 1   
     6    2   28 1   
     7    2   29 1   
     8    3    4 1   
     9    3    5 1   
    10    3   30 1   
    11    3   31 1   
    12    4    9 1   
    13    4   32 1   
    14    4   33 1   
    15    5    6 1   
    16    6    7 1   
    17    6   16 2   
    18    7    8 1   
    19    7   14 2   
    20    8   10 2   
    21    8   11 1   
    22    9   34 1   
    23   11   12 1   
    24   11   35 1   
    25   11   46 1   
    26   12   13 1   
    27   12   36 1   
    28   12   37 1   
    29   13   38 1   
    30   13   39 1   
    31   13   40 1   
    32   14   15 1   
    33   15   16 1   
    34   15   41 1   
    35   16   17 1   
    36   17   18 ar  
    37   17   24 ar  
    38   18   19 ar  
    39   18   42 1   
    40   19   20 1   
    41   19   21 ar  
    42   21   22 1   
    43   21   23 ar  
    44   22   43 1   
    45   23   24 ar  
    46   23   44 1   
    47   24   25 1   
    48   25   45 1   
@<TRIPOS>SUBSTRUCTURE
     1 2E1         1 TEMP              0 ****  ****    0 ROOT
