@<TRIPOS>MOLECULE
2E1
   45    47     1     0     0
SMALL
bcc


@<TRIPOS>ATOM
      1 C19        -0.5080   -3.3090    1.1320 c3        1 2E1      0.158800
      2 C20        -0.4960   -1.8210    0.7260 c3        1 2E1      0.188800
      3 C17         1.4380   -2.2330   -0.6860 c3        1 2E1      0.188800
      4 C16         1.4170   -3.7180   -0.2680 c3        1 2E1      0.158800
      5 N21         0.8260   -1.3710    0.3170 nh        1 2E1     -0.602000
      6 C3          0.9850   -0.0030    0.1300 cc        1 2E1      0.066300
      7 C2          2.2530    0.7130   -0.0260 cc        1 2E1      0.222800
      8 C8          3.6190    0.1310   -0.0380 c         1 2E1      0.595600
      9 N24         0.1010   -4.1700    0.1380 n3        1 2E1     -0.821200
     10 O9          3.9230   -0.8360    0.6860 o         1 2E1     -0.591100
     11 N10         4.5190    0.6790   -0.9370 n         1 2E1     -0.552900
     12 C26         5.9150    0.3280   -0.9160 c3        1 2E1      0.079000
     13 C27         6.8370    1.3980   -0.3500 c3        1 2E1     -0.123100
     14 N1          2.0190    2.0600   -0.1020 nd        1 2E1     -0.479800
     15 N5          0.7220    2.2410    0.0110 na        1 2E1      0.013400
     16 C4          0.0060    1.0320    0.1450 cd        1 2E1     -0.163300
     17 C6         -1.4380    1.0140    0.2660 ca        1 2E1     -0.142000
     18 C11        -2.2370    0.9960   -0.8810 ca        1 2E1     -0.025000
     19 C12        -3.6270    1.0130   -0.7800 ca        1 2E1     -0.115600
     20 CL25       -4.5670    0.9900   -2.1990 cl        1 2E1     -0.087400
     21 C13        -4.2390    1.0500    0.4910 ca        1 2E1      0.184100
     22 O24        -5.5950    1.0750    0.6870 oh        1 2E1     -0.483100
     23 C14        -3.4580    1.0650    1.6540 ca        1 2E1     -0.196000
     24 C15        -2.0610    1.0460    1.5340 ca        1 2E1      0.186100
     25 O23        -1.3620    1.0580    2.7120 oh        1 2E1     -0.488100
     26 H191       -1.5840   -3.6220    1.2430 h1        1 2E1      0.040950
     27 H192       -0.0130   -3.4040    2.1420 h1        1 2E1      0.040950
     28 H201       -0.8130   -1.2150    1.6220 h1        1 2E1      0.048700
     29 H202       -1.2550   -1.6570   -0.0930 h1        1 2E1      0.048700
     30 H171        0.9130   -2.1260   -1.6790 h1        1 2E1      0.048700
     31 H172        2.5140   -1.9290   -0.8140 h1        1 2E1      0.048700
     32 H161        1.7260   -4.3270   -1.1630 h1        1 2E1      0.040950
     33 H162        2.1910   -3.8670    0.5400 h1        1 2E1      0.040950
     34 H24         0.1520   -5.1100    0.4850 hn        1 2E1      0.364800
     35 H10         4.2930    1.5460   -1.3670 hn        1 2E1      0.312500
     36 H261        6.2220    0.1140   -1.9820 h1        1 2E1      0.061700
     37 H262        6.0420   -0.6210   -0.3200 h1        1 2E1      0.061700
     38 H271        7.8910    1.0380   -0.4190 hc        1 2E1      0.041700
     39 H272        6.7500    2.3530   -0.9220 hc        1 2E1      0.041700
     40 H273        6.6020    1.6050    0.7220 hc        1 2E1      0.041700
     41 H5          0.3260    3.1530   -0.0150 hn        1 2E1      0.331700
     42 H11        -1.7580    0.9660   -1.8730 ha        1 2E1      0.159000
     43 HA         -6.0330    1.0480   -0.1800 ho        1 2E1      0.435000
     44 H14        -3.9340    1.0910    2.6440 ha        1 2E1      0.177000
     45 H23        -0.4150    0.9720    2.5100 ho        1 2E1      0.441000
@<TRIPOS>BOND
     1    1    2 1   
     2    1    9 1   
     3    1   26 1   
     4    1   27 1   
     5    2    5 1   
     6    2   28 1   
     7    2   29 1   
     8    3    4 1   
     9    3    5 1   
    10    3   30 1   
    11    3   31 1   
    12    4    9 1   
    13    4   32 1   
    14    4   33 1   
    15    5    6 1   
    16    6    7 1   
    17    6   16 2   
    18    7    8 1   
    19    7   14 2   
    20    8   10 2   
    21    8   11 1   
    22    9   34 1   
    23   11   12 1   
    24   11   35 1   
    25   12   13 1   
    26   12   36 1   
    27   12   37 1   
    28   13   38 1   
    29   13   39 1   
    30   13   40 1   
    31   14   15 1   
    32   15   16 1   
    33   15   41 1   
    34   16   17 1   
    35   17   18 ar  
    36   17   24 ar  
    37   18   19 ar  
    38   18   42 1   
    39   19   20 1   
    40   19   21 ar  
    41   21   22 1   
    42   21   23 ar  
    43   22   43 1   
    44   23   24 ar  
    45   23   44 1   
    46   24   25 1   
    47   25   45 1   
@<TRIPOS>SUBSTRUCTURE
     1 2E1         1 TEMP              0 ****  ****    0 ROOT
