@<TRIPOS>MOLECULE
2E1
   46    48     1     0     0
SMALL
bcc


@<TRIPOS>ATOM
      1 C19        -0.3520    0.2140    0.8350 c3        1 2E1      0.162300
      2 C20         1.1450    0.2800    0.4660 c3        1 2E1      0.186300
      3 C17         1.4780   -1.8820    1.5740 c3        1 2E1      0.186300
      4 C16        -0.0270   -1.9160    1.9170 c3        1 2E1      0.162300
      5 N21         1.9690   -0.5230    1.3620 nh        1 2E1     -0.628000
      6 C3          3.3440   -0.4020    1.2060 cc        1 2E1      0.079300
      7 C2          4.2890   -0.3540    2.3220 cc        1 2E1      0.152800
      8 C8          3.9600   -0.5550    3.7120 c         1 2E1      0.514600
      9 N24        -0.8230   -1.1470    0.9830 n3        1 2E1     -0.824200
     10 O9          2.9680   -1.0540    4.2190 o         1 2E1     -0.423100
     11 N10         5.0260   -0.0480    4.6830 n4        1 2E1     -0.676800
     12 C26         4.6200   -0.1510    6.1140 c3        1 2E1      0.107800
     13 C27         5.6870    0.3570    7.0600 c3        1 2E1     -0.135100
     14 N1          5.5630   -0.0810    1.8510 nd        1 2E1     -0.501800
     15 N5          5.4720    0.0150    0.5540 na        1 2E1      0.088400
     16 C4          4.1660   -0.1700    0.0600 cd        1 2E1     -0.052300
     17 C6          3.8660   -0.1460   -1.3550 ca        1 2E1     -0.127000
     18 C11         3.0230   -1.1220   -1.9050 ca        1 2E1     -0.021000
     19 C12         2.7080   -1.1210   -3.2620 ca        1 2E1     -0.108600
     20 CL25        1.6800   -2.3200   -3.8800 cl        1 2E1     -0.052400
     21 C13         3.2490   -0.1260   -4.1060 ca        1 2E1      0.213100
     22 O24         2.9970   -0.0320   -5.4430 oh        1 2E1     -0.468100
     23 C14         4.1120    0.8480   -3.5810 ca        1 2E1     -0.241000
     24 C15         4.4230    0.8250   -2.2190 ca        1 2E1      0.185100
     25 O23         5.2970    1.7330   -1.6700 oh        1 2E1     -0.520100
     26 H191       -0.9300    0.6910   -0.0070 h1        1 2E1      0.046700
     27 H192       -0.5170    0.8330    1.7650 h1        1 2E1      0.046700
     28 H201        1.4820    1.3510    0.5500 h1        1 2E1      0.050200
     29 H202        1.2680   -0.0450   -0.6080 h1        1 2E1      0.050200
     30 H171        1.6580   -2.5220    0.6620 h1        1 2E1      0.050200
     31 H172        2.0440   -2.3280    2.4390 h1        1 2E1      0.050200
     32 H161       -0.1540   -1.5670    2.9830 h1        1 2E1      0.046700
     33 H162       -0.3640   -2.9890    1.8580 h1        1 2E1      0.046700
     34 H24        -1.7900   -1.1600    1.2480 hn        1 2E1      0.382800
     35 H10         5.8860   -0.5880    4.5310 hn        1 2E1      0.459800
     36 H261        3.6660    0.4370    6.2410 hx        1 2E1      0.112200
     37 H262        4.3880   -1.2360    6.3250 hx        1 2E1      0.112200
     38 H271        5.3030    0.2430    8.1060 hc        1 2E1      0.076700
     39 H272        6.6340   -0.2310    6.9710 hc        1 2E1      0.076700
     40 H273        5.9130    1.4380    6.8880 hc        1 2E1      0.076700
     41 H5          6.2630    0.2830   -0.0050 hn        1 2E1      0.361700
     42 H11         2.6030   -1.9050   -1.2500 ha        1 2E1      0.163000
     43 HA          2.3970   -0.7520   -5.7060 ho        1 2E1      0.449000
     44 H14         4.5330    1.6120   -4.2520 ha        1 2E1      0.174000
     45 H23         5.5190    2.3940   -2.3460 ho        1 2E1      0.449000
     46 H102        5.2310    0.9320    4.4550 hn        1 2E1      0.459800
@<TRIPOS>BOND
     1    1    2 1   
     2    1    9 1   
     3    1   26 1   
     4    1   27 1   
     5    2    5 1   
     6    2   28 1   
     7    2   29 1   
     8    3    4 1   
     9    3    5 1   
    10    3   30 1   
    11    3   31 1   
    12    4    9 1   
    13    4   32 1   
    14    4   33 1   
    15    5    6 1   
    16    6    7 1   
    17    6   16 2   
    18    7    8 1   
    19    7   14 2   
    20    8   10 2   
    21    8   11 1   
    22    9   34 1   
    23   11   12 1   
    24   11   35 1   
    25   11   46 1   
    26   12   13 1   
    27   12   36 1   
    28   12   37 1   
    29   13   38 1   
    30   13   39 1   
    31   13   40 1   
    32   14   15 1   
    33   15   16 1   
    34   15   41 1   
    35   16   17 1   
    36   17   18 ar  
    37   17   24 ar  
    38   18   19 ar  
    39   18   42 1   
    40   19   20 1   
    41   19   21 ar  
    42   21   22 1   
    43   21   23 ar  
    44   22   43 1   
    45   23   24 ar  
    46   23   44 1   
    47   24   25 1   
    48   25   45 1   
@<TRIPOS>SUBSTRUCTURE
     1 2E1         1 TEMP              0 ****  ****    0 ROOT
