@<TRIPOS>MOLECULE
2E1
   46    48     1     0     0
SMALL
bcc


@<TRIPOS>ATOM
      1 C19        -0.3530    0.2020    0.8270 c3        1 2E1      0.162300
      2 C20         1.1440    0.2720    0.4600 c3        1 2E1      0.186300
      3 C17         1.4820   -1.8850    1.5780 c3        1 2E1      0.186300
      4 C16        -0.0230   -1.9220    1.9180 c3        1 2E1      0.162300
      5 N21         1.9690   -0.5260    1.3610 nh        1 2E1     -0.628000
      6 C3          3.3440   -0.4010    1.2070 cc        1 2E1      0.079300
      7 C2          4.2870   -0.3450    2.3240 cc        1 2E1      0.152800
      8 C8          3.9560   -0.5410    3.7140 c         1 2E1      0.514600
      9 N24        -0.8200   -1.1600    0.9810 n3        1 2E1     -0.824200
     10 O9          2.9640   -1.0410    4.2210 o         1 2E1     -0.423100
     11 N10         5.0200   -0.0280    4.6850 n4        1 2E1     -0.676800
     12 C26         4.6120   -0.1270    6.1160 c3        1 2E1      0.107800
     13 C27         5.6770    0.3860    7.0610 c3        1 2E1     -0.135100
     14 N1          5.5610   -0.0690    1.8540 nd        1 2E1     -0.501800
     15 N5          5.4710    0.0210    0.5560 na        1 2E1      0.088400
     16 C4          4.1670   -0.1710    0.0610 cd        1 2E1     -0.052300
     17 C6          3.8690   -0.1530   -1.3540 ca        1 2E1     -0.127000
     18 C11         3.0310   -1.1340   -1.9020 ca        1 2E1     -0.021000
     19 C12         2.7180   -1.1390   -3.2590 ca        1 2E1     -0.108600
     20 CL25        1.6950   -2.3450   -3.8740 cl        1 2E1     -0.052400
     21 C13         3.2570   -0.1460   -4.1070 ca        1 2E1      0.213100
     22 O24         3.0060   -0.0580   -5.4440 oh        1 2E1     -0.468100
     23 C14         4.1160    0.8330   -3.5840 ca        1 2E1     -0.241000
     24 C15         4.4240    0.8170   -2.2210 ca        1 2E1      0.185100
     25 O23         5.2940    1.7300   -1.6750 oh        1 2E1     -0.520100
     26 H191       -0.5220    0.8240    1.7540 h1        1 2E1      0.046700
     27 H192       -0.9310    0.6730   -0.0170 h1        1 2E1      0.046700
     28 H201        1.4770    1.3430    0.5410 h1        1 2E1      0.050200
     29 H202        1.2690   -0.0580   -0.6120 h1        1 2E1      0.050200
     30 H171        2.0480   -2.3260    2.4450 h1        1 2E1      0.050200
     31 H172        1.6660   -2.5280    0.6680 h1        1 2E1      0.050200
     32 H161       -0.3570   -2.9970    1.8640 h1        1 2E1      0.046700
     33 H162       -0.1530   -1.5700    2.9830 h1        1 2E1      0.046700
     34 H24        -1.7870   -1.1750    1.2440 hn        1 2E1      0.382800
     35 H10         5.8800   -0.5680    4.5370 hn        1 2E1      0.459800
     36 H261        4.3800   -1.2110    6.3310 hx        1 2E1      0.112200
     37 H262        3.6560    0.4610    6.2390 hx        1 2E1      0.112200
     38 H271        6.6240   -0.2010    6.9770 hc        1 2E1      0.076700
     39 H272        5.2910    0.2760    8.1070 hc        1 2E1      0.076700
     40 H273        5.9020    1.4660    6.8860 hc        1 2E1      0.076700
     41 H5          6.2620    0.2900   -0.0020 hn        1 2E1      0.361700
     42 H11         2.6130   -1.9160   -1.2440 ha        1 2E1      0.163000
     43 HA          2.4100   -0.7810   -5.7060 ho        1 2E1      0.449000
     44 H14         4.5340    1.5970   -4.2570 ha        1 2E1      0.174000
     45 H23         5.5150    2.3890   -2.3530 ho        1 2E1      0.449000
     46 H102        5.2230    0.9510    4.4530 hn        1 2E1      0.459800
@<TRIPOS>BOND
     1    1    2 1   
     2    1    9 1   
     3    1   26 1   
     4    1   27 1   
     5    2    5 1   
     6    2   28 1   
     7    2   29 1   
     8    3    4 1   
     9    3    5 1   
    10    3   30 1   
    11    3   31 1   
    12    4    9 1   
    13    4   32 1   
    14    4   33 1   
    15    5    6 1   
    16    6    7 1   
    17    6   16 2   
    18    7    8 1   
    19    7   14 2   
    20    8   10 2   
    21    8   11 1   
    22    9   34 1   
    23   11   12 1   
    24   11   35 1   
    25   11   46 1   
    26   12   13 1   
    27   12   36 1   
    28   12   37 1   
    29   13   38 1   
    30   13   39 1   
    31   13   40 1   
    32   14   15 1   
    33   15   16 1   
    34   15   41 1   
    35   16   17 1   
    36   17   18 ar  
    37   17   24 ar  
    38   18   19 ar  
    39   18   42 1   
    40   19   20 1   
    41   19   21 ar  
    42   21   22 1   
    43   21   23 ar  
    44   22   43 1   
    45   23   24 ar  
    46   23   44 1   
    47   24   25 1   
    48   25   45 1   
@<TRIPOS>SUBSTRUCTURE
     1 2E1         1 TEMP              0 ****  ****    0 ROOT
