@<TRIPOS>MOLECULE
2E2
   47    49     1     0     0
SMALL
bcc


@<TRIPOS>ATOM
      1 O2          0.7430   -2.5900   -1.2680 o         1 2E2     -0.431000
      2 C2          1.5480   -1.7330   -0.8190 c2        1 2E2      0.391000
      3 N3          2.3780   -2.1080    0.2510 ns        1 2E2     -0.379000
      4 C4          3.3110   -1.2360    0.8440 c2        1 2E2      0.358000
      5 O4          4.0340   -1.7110    1.7450 o         1 2E2     -0.402000
      6 C5          3.3330    0.1340    0.3240 c2        1 2E2     -0.235000
      7 CAR         4.2340    1.1120    0.9690 c3        1 2E2     -0.181000
      8 C6          2.5250    0.4750   -0.7270 c2        1 2E2      0.054000
      9 N1          1.6220   -0.4100   -1.3060 n         1 2E2     -0.245000
     10 CAJ         0.9430   -0.1200   -2.5790 c3        1 2E2      0.147000
     11 OAF         1.8680   -0.2220   -3.6680 os        1 2E2     -0.314000
     12 CAI         0.2480    1.2520   -2.6640 c3        1 2E2     -0.234000
     13 CAG         0.6150    1.7860   -4.0580 c3        1 2E2      0.013000
     14 OAH         0.7410    3.1900   -4.1440 os        1 2E2     -0.199000
     15 CAE         1.8880    1.0040   -4.4350 c3        1 2E2     -0.027000
     16 CAC         3.1670    1.7830   -4.1520 c3        1 2E2     -0.052000
     17 OAD         2.9800    3.1670   -4.4260 os        1 2E2     -0.206000
     18 CAB         1.9390    3.7660   -3.7360 c2        1 2E2     -0.290000
     19 PAA         1.6730    4.9260   -5.7610 p3        1 2E2      2.533000
     20 OBB         1.5020    3.7590   -6.6730 o         1 2E2     -1.197667
     21 OBA         0.4570    5.7330   -5.4720 o         1 2E2     -1.197667
     22 OBC         2.9570    5.6710   -5.8540 o         1 2E2     -1.197667
     23 CAU         2.1100    3.9860   -2.2960 ca        1 2E2      0.013000
     24 CAV         3.3730    3.8990   -1.6810 ca        1 2E2     -0.201500
     25 CAW         3.5160    4.0950   -0.3100 ca        1 2E2     -0.115500
     26 CAX         2.4120    4.3940    0.4960 ca        1 2E2     -0.167000
     27 CCA         2.5610    4.5010    1.9910 c2        1 2E2      0.358000
     28 OCB         1.6810    5.1090    2.6740 o         1 2E2     -0.609500
     29 OCA         3.5680    3.9540    2.5460 o         1 2E2     -0.609500
     30 CAY         1.1670    4.5580   -0.1230 ca        1 2E2     -0.115500
     31 CAZ         1.0150    4.3570   -1.4910 ca        1 2E2     -0.201500
     32 H1          2.3010   -3.0440    0.5750 hn        1 2E2      0.233000
     33 H2          3.6750    2.0310    1.3150 hc        1 2E2      0.108667
     34 H3          5.0180    1.4500    0.2450 hc        1 2E2      0.108667
     35 H4          4.7370    0.6560    1.8550 hc        1 2E2      0.108667
     36 H5          2.5450    1.5080   -1.1550 h4        1 2E2      0.228000
     37 H6          0.1980   -0.9590   -2.7340 h2        1 2E2      0.117000
     38 H7          0.5880    1.9780   -1.8820 hc        1 2E2      0.111500
     39 H8         -0.8540    1.1190   -2.5580 hc        1 2E2      0.111500
     40 H9         -0.2080    1.5500   -4.7870 h1        1 2E2      0.096000
     41 H10         1.8530    0.6810   -5.5080 h1        1 2E2      0.119000
     42 H11         3.9890    1.4590   -4.8390 h1        1 2E2      0.057500
     43 H12         3.4830    1.6290   -3.0860 h1        1 2E2      0.057500
     44 H15         4.2500    3.6870   -2.3090 ha        1 2E2      0.126000
     45 H16         4.5030    3.9980    0.1680 ha        1 2E2      0.116000
     46 H18         0.3080    4.8470    0.5010 ha        1 2E2      0.116000
     47 H19         0.0380    4.4960   -1.9770 ha        1 2E2      0.126000
@<TRIPOS>BOND
     1    1    2 1   
     2    2    3 1   
     3    2    9 1   
     4    3    4 1   
     5    3   32 1   
     6    4    5 1   
     7    4    6 1   
     8    6    7 1   
     9    6    8 1   
    10    7   33 1   
    11    7   34 1   
    12    7   35 1   
    13    8    9 1   
    14    8   36 1   
    15    9   10 1   
    16   10   11 1   
    17   10   12 1   
    18   10   37 1   
    19   11   15 1   
    20   12   13 1   
    21   12   38 1   
    22   12   39 1   
    23   13   14 1   
    24   13   15 1   
    25   13   40 1   
    26   14   18 1   
    27   15   16 1   
    28   15   41 1   
    29   16   17 1   
    30   16   42 1   
    31   16   43 1   
    32   17   18 1   
    33   18   23 1   
    34   19   20 1   
    35   19   21 1   
    36   19   22 1   
    37   23   24 1   
    38   23   31 1   
    39   24   25 1   
    40   24   44 1   
    41   25   26 1   
    42   25   45 1   
    43   26   27 1   
    44   26   30 1   
    45   27   28 1   
    46   27   29 1   
    47   30   31 1   
    48   30   46 1   
    49   31   47 1   
@<TRIPOS>SUBSTRUCTURE
     1 2E2         1 TEMP              0 ****  ****    0 ROOT
