@<TRIPOS>MOLECULE
2E2
   47    49     1     0     0
SMALL
bcc


@<TRIPOS>ATOM
      1 O2          0.7510   -2.6710   -1.5260 o         1 2E2     -0.426000
      2 C2          1.5430   -1.8260   -1.0370 c2        1 2E2      0.391000
      3 N3          2.3930   -2.2430    0.0020 n         1 2E2     -0.379000
      4 C4          3.3060   -1.3830    0.6410 c2        1 2E2      0.358000
      5 O4          4.0370   -1.8820    1.5210 o         1 2E2     -0.403000
      6 C5          3.2970    0.0110    0.1930 c2        1 2E2     -0.253000
      7 CAR         4.1870    0.9620    0.8880 c3        1 2E2     -0.161000
      8 C6          2.4730    0.3940   -0.8310 c2        1 2E2      0.068000
      9 N1          1.5830   -0.4740   -1.4470 n         1 2E2     -0.247000
     10 CAJ         0.8810   -0.1200   -2.6940 c3        1 2E2      0.146000
     11 OAF         1.7840   -0.1710   -3.8020 os        1 2E2     -0.313000
     12 CAI         0.1950    1.2600   -2.6890 c3        1 2E2     -0.233000
     13 CAG         0.5920    1.8930   -4.0300 c3        1 2E2      0.009000
     14 OAH         0.7650    3.3010   -4.0020 os        1 2E2     -0.197000
     15 CAE         1.8510    1.1160   -4.4610 c3        1 2E2     -0.025000
     16 CAC         3.1500    1.8270   -4.0990 c3        1 2E2     -0.051000
     17 OAD         3.0000    3.2380   -4.2540 os        1 2E2     -0.206000
     18 CAB         1.9670    3.7880   -3.5210 c2        1 2E2     -0.294000
     19 PAA         1.7310    4.7100   -5.8560 p3        1 2E2      2.522000
     20 OBB         1.5430    3.3860   -6.5130 o         1 2E2     -1.185667
     21 OBA         0.5350    5.5760   -5.7130 o         1 2E2     -1.185667
     22 OBC         3.0300    5.3990   -6.0570 o         1 2E2     -1.185667
     23 CAU         2.1310    3.9880   -2.0950 ca        1 2E2      0.033000
     24 CAV         3.4100    4.0070   -1.4980 ca        1 2E2     -0.225000
     25 CAW         3.5690    4.2980   -0.1470 ca        1 2E2     -0.103000
     26 CAX         2.4670    4.5670    0.6730 ca        1 2E2     -0.181000
     27 CCA         2.6420    4.8390    2.1430 c2        1 2E2      0.359000
     28 OCB         1.6270    5.1230    2.8540 o         1 2E2     -0.615000
     29 OCA         3.8040    4.7700    2.6570 o         1 2E2     -0.615000
     30 CAY         1.1970    4.5740    0.0830 ca        1 2E2     -0.103000
     31 CAZ         1.0280    4.2920   -1.2680 ca        1 2E2     -0.225000
     32 H1          2.3410   -3.1990    0.2710 hn        1 2E2      0.234000
     33 H2          4.1480    0.7890    1.9920 hc        1 2E2      0.098333
     34 H3          3.8880    2.0260    0.6840 hc        1 2E2      0.098333
     35 H4          5.2440    0.8160    0.5500 hc        1 2E2      0.098333
     36 H5          2.4680    1.4490   -1.2050 h4        1 2E2      0.231000
     37 H6          0.1310   -0.9490   -2.8740 h2        1 2E2      0.117000
     38 H7          0.5200    1.9270   -1.8490 hc        1 2E2      0.109000
     39 H8         -0.9090    1.1250   -2.6150 hc        1 2E2      0.109000
     40 H9         -0.2240    1.7480   -4.7900 h1        1 2E2      0.107000
     41 H10         1.8180    0.9050   -5.5620 h1        1 2E2      0.144000
     42 H11         3.9670    1.5450   -4.8100 h1        1 2E2      0.056000
     43 H12         3.4570    1.5800   -3.0490 h1        1 2E2      0.056000
     44 H15         4.2840    3.8140   -2.1350 ha        1 2E2      0.117500
     45 H16         4.5720    4.3210    0.3060 ha        1 2E2      0.116000
     46 H18         0.3300    4.8100    0.7190 ha        1 2E2      0.116000
     47 H19         0.0290    4.3260   -1.7270 ha        1 2E2      0.117500
@<TRIPOS>BOND
     1    1    2 1   
     2    2    3 1   
     3    2    9 1   
     4    3    4 1   
     5    3   32 1   
     6    4    5 1   
     7    4    6 1   
     8    6    7 1   
     9    6    8 1   
    10    7   33 1   
    11    7   34 1   
    12    7   35 1   
    13    8    9 1   
    14    8   36 1   
    15    9   10 1   
    16   10   11 1   
    17   10   12 1   
    18   10   37 1   
    19   11   15 1   
    20   12   13 1   
    21   12   38 1   
    22   12   39 1   
    23   13   14 1   
    24   13   15 1   
    25   13   40 1   
    26   14   18 1   
    27   15   16 1   
    28   15   41 1   
    29   16   17 1   
    30   16   42 1   
    31   16   43 1   
    32   17   18 1   
    33   18   23 1   
    34   19   20 1   
    35   19   21 1   
    36   19   22 1   
    37   23   24 1   
    38   23   31 1   
    39   24   25 1   
    40   24   44 1   
    41   25   26 1   
    42   25   45 1   
    43   26   27 1   
    44   26   30 1   
    45   27   28 1   
    46   27   29 1   
    47   30   31 1   
    48   30   46 1   
    49   31   47 1   
@<TRIPOS>SUBSTRUCTURE
     1 2E2         1 TEMP              0 ****  ****    0 ROOT
