@<TRIPOS>MOLECULE
2E2
   47    49     1     0     0
SMALL
bcc


@<TRIPOS>ATOM
      1 O2          0.7320   -2.6660   -1.5350 o         1 2E2     -0.426000
      2 C2          1.5250   -1.8230   -1.0420 c2        1 2E2      0.391000
      3 N3          2.3680   -2.2450    0.0020 n         1 2E2     -0.379000
      4 C4          3.2810   -1.3880    0.6460 c2        1 2E2      0.358000
      5 O4          4.0050   -1.8910    1.5300 o         1 2E2     -0.403000
      6 C5          3.2800    0.0060    0.1980 c2        1 2E2     -0.252000
      7 CAR         4.1700    0.9530    0.8980 c3        1 2E2     -0.161000
      8 C6          2.4620    0.3930   -0.8300 c2        1 2E2      0.068000
      9 N1          1.5730   -0.4720   -1.4510 n         1 2E2     -0.247000
     10 CAJ         0.8770   -0.1150   -2.7010 c3        1 2E2      0.146000
     11 OAF         1.7850   -0.1690   -3.8050 os        1 2E2     -0.312000
     12 CAI         0.1970    1.2680   -2.6990 c3        1 2E2     -0.233000
     13 CAG         0.6030    1.9000   -4.0370 c3        1 2E2      0.009000
     14 OAH         0.7810    3.3070   -4.0080 os        1 2E2     -0.197000
     15 CAE         1.8600    1.1180   -4.4630 c3        1 2E2     -0.025000
     16 CAC         3.1610    1.8240   -4.0950 c3        1 2E2     -0.051000
     17 OAD         3.0170    3.2360   -4.2500 os        1 2E2     -0.206000
     18 CAB         1.9820    3.7890   -3.5210 c2        1 2E2     -0.294000
     19 PAA         1.7610    4.7140   -5.8570 p3        1 2E2      2.522000
     20 OBB         1.5710    3.3910   -6.5150 o         1 2E2     -1.185667
     21 OBA         0.5670    5.5850   -5.7180 o         1 2E2     -1.185667
     22 OBC         3.0630    5.3980   -6.0510 o         1 2E2     -1.185667
     23 CAU         2.1410    3.9880   -2.0950 ca        1 2E2      0.032000
     24 CAV         3.4170    4.0020   -1.4920 ca        1 2E2     -0.225000
     25 CAW         3.5710    4.2920   -0.1400 ca        1 2E2     -0.103000
     26 CAX         2.4660    4.5640    0.6750 ca        1 2E2     -0.181000
     27 CCA         2.6360    4.8340    2.1470 c2        1 2E2      0.359000
     28 OCB         1.6180    5.1220    2.8530 o         1 2E2     -0.615000
     29 OCA         3.7950    4.7590    2.6660 o         1 2E2     -0.615000
     30 CAY         1.1990    4.5760    0.0790 ca        1 2E2     -0.103000
     31 CAZ         1.0350    4.2960   -1.2720 ca        1 2E2     -0.225000
     32 H1          2.3110   -3.2000    0.2700 hn        1 2E2      0.234000
     33 H2          3.8740    2.0180    0.6950 hc        1 2E2      0.098333
     34 H3          5.2270    0.8050    0.5630 hc        1 2E2      0.098333
     35 H4          4.1270    0.7780    2.0020 hc        1 2E2      0.098333
     36 H5          2.4630    1.4480   -1.2040 h4        1 2E2      0.231000
     37 H6          0.1250   -0.9410   -2.8850 h2        1 2E2      0.117000
     38 H7         -0.9080    1.1370   -2.6300 hc        1 2E2      0.109000
     39 H8          0.5200    1.9330   -1.8570 hc        1 2E2      0.109000
     40 H9         -0.2100    1.7580   -4.8010 h1        1 2E2      0.107000
     41 H10         1.8320    0.9080   -5.5640 h1        1 2E2      0.144000
     42 H11         3.4620    1.5760   -3.0430 h1        1 2E2      0.056000
     43 H12         3.9800    1.5390   -4.8010 h1        1 2E2      0.056000
     44 H15         4.2930    3.8050   -2.1250 ha        1 2E2      0.117500
     45 H16         4.5720    4.3100    0.3180 ha        1 2E2      0.116000
     46 H18         0.3300    4.8150    0.7110 ha        1 2E2      0.116000
     47 H19         0.0390    4.3340   -1.7360 ha        1 2E2      0.117500
@<TRIPOS>BOND
     1    1    2 1   
     2    2    3 1   
     3    2    9 1   
     4    3    4 1   
     5    3   32 1   
     6    4    5 1   
     7    4    6 1   
     8    6    7 1   
     9    6    8 1   
    10    7   33 1   
    11    7   34 1   
    12    7   35 1   
    13    8    9 1   
    14    8   36 1   
    15    9   10 1   
    16   10   11 1   
    17   10   12 1   
    18   10   37 1   
    19   11   15 1   
    20   12   13 1   
    21   12   38 1   
    22   12   39 1   
    23   13   14 1   
    24   13   15 1   
    25   13   40 1   
    26   14   18 1   
    27   15   16 1   
    28   15   41 1   
    29   16   17 1   
    30   16   42 1   
    31   16   43 1   
    32   17   18 1   
    33   18   23 1   
    34   19   20 1   
    35   19   21 1   
    36   19   22 1   
    37   23   24 1   
    38   23   31 1   
    39   24   25 1   
    40   24   44 1   
    41   25   26 1   
    42   25   45 1   
    43   26   27 1   
    44   26   30 1   
    45   27   28 1   
    46   27   29 1   
    47   30   31 1   
    48   30   46 1   
    49   31   47 1   
@<TRIPOS>SUBSTRUCTURE
     1 2E2         1 TEMP              0 ****  ****    0 ROOT
