@<TRIPOS>MOLECULE
2E3
   54    56     1     0     0
SMALL
bcc


@<TRIPOS>ATOM
      1 CAA        -0.0510    0.3500    0.0610 c3        1 2E3     -0.053800
      2 CAS         1.4220    0.1920    0.0290 ca        1 2E3     -0.054300
      3 CAN         2.1560    0.2270    1.2140 ca        1 2E3     -0.141000
      4 CAX         3.5500    0.0790    1.2320 ca        1 2E3     -0.070300
      5 CAZ         4.2520    0.1050    2.5630 c3        1 2E3     -0.000700
      6 CAB         4.2370    1.5290    3.1120 c3        1 2E3     -0.083100
      7 CAC         3.5400   -0.8090    3.5590 c3        1 2E3     -0.083100
      8 CAP         5.6940   -0.3880    2.4400 c3        1 2E3     -0.067400
      9 CAQ         6.3990    0.1930    1.2400 c3        1 2E3     -0.067400
     10 CBA         5.7280   -0.2030   -0.0760 c3        1 2E3     -0.001700
     11 CAD         6.0940   -1.6410   -0.4320 c3        1 2E3     -0.084600
     12 CAE         6.2730    0.7220   -1.1640 c3        1 2E3     -0.084600
     13 CAY         4.2310   -0.0790    0.0150 ca        1 2E3     -0.073300
     14 CAO         3.4910   -0.1330   -1.1750 ca        1 2E3     -0.116000
     15 CAV         2.1000    0.0030   -1.1890 cp        1 2E3      0.002000
     16 CAW         1.3950   -0.0850   -2.4700 cp        1 2E3     -0.093000
     17 CAM         1.3810   -1.3050   -3.1590 ca        1 2E3     -0.108000
     18 CAU         0.7520    1.0170   -3.0630 ca        1 2E3      0.104100
     19 OAH         0.7620    2.2220   -2.3840 oh        1 2E3     -0.512100
     20 CAL         0.1130    0.8880   -4.3050 ca        1 2E3     -0.217000
     21 CAK         0.1080   -0.3330   -4.9670 ca        1 2E3     -0.073000
     22 CAT         0.7470   -1.4500   -4.4000 ca        1 2E3     -0.033800
     23 CAJ         0.7510   -2.7520   -5.0440 ce        1 2E3     -0.183200
     24 CAI         0.6230   -3.0360   -6.3450 cf        1 2E3     -0.145200
     25 CAR         0.4720   -2.1060   -7.5250 c         1 2E3      0.894800
     26 OAG        -0.6500   -1.5540   -7.7250 o         1 2E3     -0.832800
     27 OAF         1.4700   -1.9700   -8.2870 o         1 2E3     -0.832800
     28 HAA        -0.5450   -0.5550   -0.3730 hc        1 2E3      0.045700
     29 HAAA       -0.3480    1.2360   -0.5570 hc        1 2E3      0.045700
     30 HAAB       -0.4250    0.4950    1.1030 hc        1 2E3      0.045700
     31 HAN         1.6200    0.3780    2.1640 ha        1 2E3      0.120000
     32 HAB         4.7120    1.5560    4.1220 hc        1 2E3      0.032700
     33 HABA        3.1860    1.8950    3.2000 hc        1 2E3      0.032700
     34 HABB        4.7950    2.2170    2.4340 hc        1 2E3      0.032700
     35 HAC         2.5620   -0.3740    3.8720 hc        1 2E3      0.032700
     36 HACA        4.1710   -0.9400    4.4710 hc        1 2E3      0.032700
     37 HACB        3.3560   -1.8100    3.1020 hc        1 2E3      0.032700
     38 HAP         5.6930   -1.5080    2.3660 hc        1 2E3      0.036700
     39 HAPA        6.2550   -0.1150    3.3720 hc        1 2E3      0.036700
     40 HAQ         6.4140    1.3130    1.3210 hc        1 2E3      0.037700
     41 HAQA        7.4650   -0.1560    1.2260 hc        1 2E3      0.037700
     42 HAD         5.6020   -1.9350   -1.3900 hc        1 2E3      0.035700
     43 HADA        5.7580   -2.3420    0.3680 hc        1 2E3      0.035700
     44 HADB        7.2000   -1.7370   -0.5530 hc        1 2E3      0.035700
     45 HAE         5.8580    1.7500   -1.0420 hc        1 2E3      0.035700
     46 HAEA        6.0020    0.3460   -2.1790 hc        1 2E3      0.035700
     47 HAEB        7.3870    0.7710   -1.0960 hc        1 2E3      0.035700
     48 HAO         4.0110   -0.2870   -2.1340 ha        1 2E3      0.141000
     49 HAM         1.8900   -2.1700   -2.7070 ha        1 2E3      0.125000
     50 HOAH        0.3920    2.8880   -2.9800 ho        1 2E3      0.407000
     51 HAL        -0.3790    1.7600   -4.7600 ha        1 2E3      0.124000
     52 HAK        -0.3930   -0.4360   -5.9520 ha        1 2E3      0.211000
     53 HAJ         0.8960   -3.5870   -4.3310 ha        1 2E3      0.085000
     54 HAI         0.6530   -4.0960   -6.6560 ha        1 2E3      0.098000
@<TRIPOS>BOND
     1    1    2 1   
     2    1   28 1   
     3    1   29 1   
     4    1   30 1   
     5    2    3 ar  
     6    2   15 ar  
     7    3    4 ar  
     8    3   31 1   
     9    4    5 1   
    10    4   13 ar  
    11    5    6 1   
    12    5    7 1   
    13    5    8 1   
    14    6   32 1   
    15    6   33 1   
    16    6   34 1   
    17    7   35 1   
    18    7   36 1   
    19    7   37 1   
    20    8    9 1   
    21    8   38 1   
    22    8   39 1   
    23    9   10 1   
    24    9   40 1   
    25    9   41 1   
    26   10   11 1   
    27   10   12 1   
    28   10   13 1   
    29   11   42 1   
    30   11   43 1   
    31   11   44 1   
    32   12   45 1   
    33   12   46 1   
    34   12   47 1   
    35   13   14 ar  
    36   14   15 ar  
    37   14   48 1   
    38   15   16 1   
    39   16   17 ar  
    40   16   18 ar  
    41   17   22 ar  
    42   17   49 1   
    43   18   19 1   
    44   18   20 ar  
    45   19   50 1   
    46   20   21 ar  
    47   20   51 1   
    48   21   22 ar  
    49   21   52 1   
    50   22   23 1   
    51   23   24 2   
    52   23   53 1   
    53   24   25 1   
    54   24   54 1   
    55   25   26 1   
    56   25   27 1   
@<TRIPOS>SUBSTRUCTURE
     1 2E3         1 TEMP              0 ****  ****    0 ROOT
