@<TRIPOS>MOLECULE
2E3
   54    50     1     0     0
SMALL
bcc


@<TRIPOS>ATOM
      1 CAA        -2.9490   -0.0240    0.7700 c3        1 2E3     -0.181000
      2 CAS        -1.4290    0.1180    0.7610 c2        1 2E3     -0.054000
      3 CAN        -0.7250    0.1900    1.9740 c1        1 2E3     -0.141000
      4 CAX         0.6570    0.3020    1.9680 c1        1 2E3     -0.063000
      5 CAZ         1.5250    0.2780    3.3250 c3        1 2E3     -0.008000
      6 CAB         1.2360    1.5840    4.1030 c3        1 2E3     -0.201000
      7 CAC         1.0610   -0.8580    4.1380 c3        1 2E3     -0.201000
      8 CAP         2.9400    0.1670    3.1750 c3        1 2E3     -0.146000
      9 CAQ         3.5410    0.8550    2.0200 c3        1 2E3     -0.146000
     10 CBA         2.9830    0.5750    0.7420 c3        1 2E3     -0.008000
     11 CAD         3.6610   -0.6890    0.1860 c3        1 2E3     -0.202000
     12 CAE         3.3160    1.7230   -0.1650 c3        1 2E3     -0.202000
     13 CAY         1.3900    0.3470    0.6850 c2        1 2E3     -0.068000
     14 CAO         0.6890    0.2760   -0.5150 c2        1 2E3     -0.106000
     15 CAV        -0.7100    0.1610   -0.5050 c1        1 2E3      0.003000
     16 CAW        -1.4230    0.1160   -1.7190 c1        1 2E3     -0.093000
     17 CAM        -1.5930   -1.0850   -2.3760 c1        1 2E3     -0.108000
     18 CAU        -1.9550    1.2980   -2.2690 c1        1 2E3      0.059000
     19 OAH        -1.7110    2.5700   -1.6260 oh        1 2E3     -0.265000
     20 CAL        -2.6570    1.2520   -3.4810 c1        1 2E3     -0.145000
     21 CAK        -2.8270    0.0490   -4.1380 c1        1 2E3     -0.145000
     22 CAT        -2.2980   -1.1280   -3.5950 c1        1 2E3     -0.023000
     23 CAJ        -2.3420   -2.4450   -4.4090 c2        1 2E3     -0.196000
     24 CAI        -3.4920   -3.0890   -4.5730 c1        1 2E3     -0.126000
     25 CAR        -4.7250   -2.5550   -3.9860 c1        1 2E3      0.346000
     26 OAG        -5.4570   -1.7650   -4.6640 o         1 2E3     -0.567500
     27 OAF        -5.0110   -2.8030   -2.7980 o         1 2E3     -0.567500
     28 HAA        -3.2400   -0.5820    1.5970 hc        1 2E3      0.087000
     29 HAAA       -3.3720    0.8910    0.8170 hc        1 2E3      0.087000
     30 HAAB       -3.2370   -0.4720   -0.0400 hc        1 2E3      0.087000
     31 HAN        -1.2330    0.2630    2.8500 ha        1 2E3      0.121000
     32 HAB         0.3540    1.5290    4.5190 hc        1 2E3      0.072500
     33 HABA        1.9450    1.7140    4.8250 hc        1 2E3      0.072500
     34 HABB        1.2590    2.3470    3.4780 hc        1 2E3      0.072500
     35 HAC         0.4360   -0.5260    4.8490 hc        1 2E3      0.072500
     36 HACA        0.5840   -1.5110    3.5540 hc        1 2E3      0.072500
     37 HACB        1.8240   -1.2940    4.5560 hc        1 2E3      0.072500
     38 HAP         3.3530    0.5220    3.9810 hc        1 2E3      0.076000
     39 HAPA        3.1580   -0.7540    3.1170 hc        1 2E3      0.076000
     40 HAQ         4.4880    0.6060    1.9880 hc        1 2E3      0.076000
     41 HAQA        3.4420    1.8170    2.1730 hc        1 2E3      0.076000
     42 HAD         3.3940   -1.4540    0.7090 hc        1 2E3      0.074167
     43 HADA        4.7040   -0.5790    0.2310 hc        1 2E3      0.074167
     44 HADB        3.3840   -0.8210   -0.7490 hc        1 2E3      0.074167
     45 HAE         2.5790    2.3990   -0.1290 hc        1 2E3      0.074167
     46 HAEA        3.4200    1.3780   -1.1360 hc        1 2E3      0.074167
     47 HAEB        4.1740    2.1460    0.1330 hc        1 2E3      0.074167
     48 HAO         1.1650    0.2820   -1.3520 ha        1 2E3      0.138000
     49 HAM        -1.2160   -1.9250   -1.9870 ha        1 2E3      0.125000
     50 HOAH       -1.6370    3.2140   -2.2530 ho        1 2E3      0.205000
     51 HAL        -3.0350    2.0900   -3.8710 ha        1 2E3      0.167000
     52 HAK        -3.3290    0.0190   -5.0040 ha        1 2E3      0.167000
     53 HAJ        -1.5450   -2.7930   -4.7920 ha        1 2E3      0.085000
     54 HAI        -3.5160   -3.9250   -5.0900 ha        1 2E3      0.098000
@<TRIPOS>BOND
     1    1    2 1   
     2    1   28 1   
     3    1   29 1   
     4    1   30 1   
     5    2    3 1   
     6    2   15 1   
     7    3   31 1   
     8    4    5 1   
     9    4   13 1   
    10    5    6 1   
    11    5    7 1   
    12    5    8 1   
    13    6   32 1   
    14    6   33 1   
    15    6   34 1   
    16    7   35 1   
    17    7   36 1   
    18    7   37 1   
    19    8    9 1   
    20    8   38 1   
    21    8   39 1   
    22    9   10 1   
    23    9   40 1   
    24    9   41 1   
    25   10   11 1   
    26   10   12 1   
    27   10   13 1   
    28   11   42 1   
    29   11   43 1   
    30   11   44 1   
    31   12   45 1   
    32   12   46 1   
    33   12   47 1   
    34   13   14 1   
    35   14   15 1   
    36   14   48 1   
    37   16   18 1   
    38   17   22 1   
    39   17   49 1   
    40   18   19 1   
    41   19   50 1   
    42   20   21 1   
    43   20   51 1   
    44   21   52 1   
    45   22   23 1   
    46   23   24 1   
    47   23   53 1   
    48   24   54 1   
    49   25   26 1   
    50   25   27 1   
@<TRIPOS>SUBSTRUCTURE
     1 2E3         1 TEMP              0 ****  ****    0 ROOT
