@<TRIPOS>MOLECULE
2E3
   54    56     1     0     0
SMALL
bcc


@<TRIPOS>ATOM
      1 CAA        -0.0520    0.3360    0.0670 c3        1 2E3     -0.053800
      2 CAS         1.4210    0.1840    0.0320 ca        1 2E3     -0.054300
      3 CAN         2.1580    0.2200    1.2170 ca        1 2E3     -0.141000
      4 CAX         3.5520    0.0770    1.2320 ca        1 2E3     -0.070300
      5 CAZ         4.2560    0.1040    2.5620 c3        1 2E3     -0.000700
      6 CAB         4.2360    1.5260    3.1140 c3        1 2E3     -0.083100
      7 CAC         3.5490   -0.8160    3.5580 c3        1 2E3     -0.083100
      8 CAP         5.7000   -0.3840    2.4360 c3        1 2E3     -0.067400
      9 CAQ         6.4000    0.2030    1.2360 c3        1 2E3     -0.067400
     10 CBA         5.7290   -0.1940   -0.0800 c3        1 2E3     -0.001700
     11 CAD         6.1000   -1.6300   -0.4390 c3        1 2E3     -0.084600
     12 CAE         6.2690    0.7350   -1.1670 c3        1 2E3     -0.084600
     13 CAY         4.2310   -0.0760    0.0130 ca        1 2E3     -0.073300
     14 CAO         3.4900   -0.1300   -1.1750 ca        1 2E3     -0.116000
     15 CAV         2.0980   -0.0000   -1.1870 cp        1 2E3      0.002000
     16 CAW         1.3920   -0.0880   -2.4670 cp        1 2E3     -0.093000
     17 CAM         1.3820   -1.3070   -3.1590 ca        1 2E3     -0.108000
     18 CAU         0.7430    1.0120   -3.0560 ca        1 2E3      0.104100
     19 OAH         0.7490    2.2160   -2.3750 oh        1 2E3     -0.512100
     20 CAL         0.1030    0.8830   -4.2980 ca        1 2E3     -0.217000
     21 CAK         0.1020   -0.3360   -4.9630 ca        1 2E3     -0.073000
     22 CAT         0.7470   -1.4510   -4.4000 ca        1 2E3     -0.033800
     23 CAJ         0.7560   -2.7520   -5.0460 ce        1 2E3     -0.183200
     24 CAI         0.6260   -3.0340   -6.3470 cf        1 2E3     -0.145200
     25 CAR         0.4700   -2.1020   -7.5260 c         1 2E3      0.894800
     26 OAG        -0.6550   -1.5540   -7.7230 o         1 2E3     -0.832800
     27 OAF         1.4660   -1.9600   -8.2890 o         1 2E3     -0.832800
     28 HAA        -0.4250    0.4770    1.1100 hc        1 2E3      0.045700
     29 HAAA       -0.3540    1.2230   -0.5480 hc        1 2E3      0.045700
     30 HAAB       -0.5430   -0.5700   -0.3690 hc        1 2E3      0.045700
     31 HAN         1.6210    0.3660    2.1670 ha        1 2E3      0.120000
     32 HAB         4.7900    2.2170    2.4360 hc        1 2E3      0.032700
     33 HABA        4.7120    1.5530    4.1240 hc        1 2E3      0.032700
     34 HABB        3.1830    1.8880    3.2040 hc        1 2E3      0.032700
     35 HAC         3.3680   -1.8170    3.0990 hc        1 2E3      0.032700
     36 HACA        4.1820   -0.9460    4.4690 hc        1 2E3      0.032700
     37 HACB        2.5690   -0.3850    3.8720 hc        1 2E3      0.032700
     38 HAP         5.7020   -1.5040    2.3600 hc        1 2E3      0.036700
     39 HAPA        6.2600   -0.1110    3.3680 hc        1 2E3      0.036700
     40 HAQ         6.4110    1.3220    1.3190 hc        1 2E3      0.037700
     41 HAQA        7.4670   -0.1420    1.2200 hc        1 2E3      0.037700
     42 HAD         5.6070   -1.9240   -1.3970 hc        1 2E3      0.035700
     43 HADA        5.7680   -2.3330    0.3600 hc        1 2E3      0.035700
     44 HADB        7.2060   -1.7210   -0.5620 hc        1 2E3      0.035700
     45 HAE         5.9970    0.3600   -2.1820 hc        1 2E3      0.035700
     46 HAEA        5.8500    1.7620   -1.0420 hc        1 2E3      0.035700
     47 HAEB        7.3820    0.7890   -1.1000 hc        1 2E3      0.035700
     48 HAO         4.0090   -0.2800   -2.1350 ha        1 2E3      0.141000
     49 HAM         1.8950   -2.1710   -2.7090 ha        1 2E3      0.125000
     50 HOAH        0.3760    2.8810   -2.9690 ho        1 2E3      0.407000
     51 HAL        -0.3930    1.7540   -4.7500 ha        1 2E3      0.124000
     52 HAK        -0.4000   -0.4390   -5.9480 ha        1 2E3      0.211000
     53 HAJ         0.9050   -3.5870   -4.3360 ha        1 2E3      0.085000
     54 HAI         0.6600   -4.0920   -6.6620 ha        1 2E3      0.098000
@<TRIPOS>BOND
     1    1    2 1   
     2    1   28 1   
     3    1   29 1   
     4    1   30 1   
     5    2    3 ar  
     6    2   15 ar  
     7    3    4 ar  
     8    3   31 1   
     9    4    5 1   
    10    4   13 ar  
    11    5    6 1   
    12    5    7 1   
    13    5    8 1   
    14    6   32 1   
    15    6   33 1   
    16    6   34 1   
    17    7   35 1   
    18    7   36 1   
    19    7   37 1   
    20    8    9 1   
    21    8   38 1   
    22    8   39 1   
    23    9   10 1   
    24    9   40 1   
    25    9   41 1   
    26   10   11 1   
    27   10   12 1   
    28   10   13 1   
    29   11   42 1   
    30   11   43 1   
    31   11   44 1   
    32   12   45 1   
    33   12   46 1   
    34   12   47 1   
    35   13   14 ar  
    36   14   15 ar  
    37   14   48 1   
    38   15   16 1   
    39   16   17 ar  
    40   16   18 ar  
    41   17   22 ar  
    42   17   49 1   
    43   18   19 1   
    44   18   20 ar  
    45   19   50 1   
    46   20   21 ar  
    47   20   51 1   
    48   21   22 ar  
    49   21   52 1   
    50   22   23 1   
    51   23   24 2   
    52   23   53 1   
    53   24   25 1   
    54   24   54 1   
    55   25   26 1   
    56   25   27 1   
@<TRIPOS>SUBSTRUCTURE
     1 2E3         1 TEMP              0 ****  ****    0 ROOT
