@<TRIPOS>MOLECULE
2E3
   54    56     1     0     0
SMALL
bcc


@<TRIPOS>ATOM
      1 CAA        -0.6410    2.8690   -1.3500 c3        1 2E3     -0.058800
      2 CAS        -1.2600    1.6660   -0.7440 ca        1 2E3     -0.071300
      3 CAN        -2.5970    1.3640   -1.0070 ca        1 2E3     -0.139000
      4 CAX        -3.2180    0.2190   -0.4900 ca        1 2E3     -0.061300
      5 CAZ        -4.6570   -0.0350   -0.8520 c3        1 2E3     -0.003700
      6 CAB        -5.5450    0.9630   -0.1160 c3        1 2E3     -0.083600
      7 CAC        -4.8670    0.1400   -2.3560 c3        1 2E3     -0.083600
      8 CAP        -5.0740   -1.4630   -0.4960 c3        1 2E3     -0.068400
      9 CAQ        -4.5890   -1.8790    0.8700 c3        1 2E3     -0.068400
     10 CBA        -3.0630   -1.8740    0.9710 c3        1 2E3     -0.003700
     11 CAD        -2.4920   -3.1070    0.2770 c3        1 2E3     -0.085600
     12 CAE        -2.7020   -1.9380    2.4550 c3        1 2E3     -0.085600
     13 CAY        -2.4790   -0.6370    0.3430 ca        1 2E3     -0.069300
     14 CAO        -1.1320   -0.3410    0.5950 ca        1 2E3     -0.110000
     15 CAV        -0.5140    0.7980    0.0720 cp        1 2E3     -0.035000
     16 CAW         0.9000    1.0400    0.3750 cp        1 2E3     -0.127000
     17 CAM         1.8770    0.1980   -0.1670 ca        1 2E3     -0.097000
     18 CAU         1.3070    2.0870    1.2230 ca        1 2E3      0.101100
     19 OAH         0.4270    2.9700    1.8180 oh        1 2E3     -0.516100
     20 CAL         2.6660    2.2860    1.5100 ca        1 2E3     -0.161000
     21 CAK         3.6170    1.4400    0.9540 ca        1 2E3     -0.107000
     22 CAT         3.2410    0.3810    0.1100 ca        1 2E3     -0.030800
     23 CAJ         4.2090   -0.5230   -0.4810 ce        1 2E3     -0.185200
     24 CAI         5.5110   -0.5950   -0.1760 cf        1 2E3     -0.159200
     25 CAR         6.4570   -1.5730   -0.8440 c         1 2E3      0.889800
     26 OAG         7.6740   -1.5080   -0.5070 o         1 2E3     -0.832300
     27 OAF         5.9970   -2.3930   -1.6890 o         1 2E3     -0.832300
     28 HAA         0.0730    2.5620   -2.1550 hc        1 2E3      0.049033
     29 HAAA       -1.4120    3.5420   -1.7980 hc        1 2E3      0.049033
     30 HAAB       -0.0650    3.4450   -0.5820 hc        1 2E3      0.049033
     31 HAN        -3.1770    2.0480   -1.6470 ha        1 2E3      0.126000
     32 HAB        -5.2400    2.0070   -0.3680 hc        1 2E3      0.034367
     33 HABA       -6.6110    0.8200   -0.4130 hc        1 2E3      0.034367
     34 HABB       -5.4580    0.8270    0.9880 hc        1 2E3      0.034367
     35 HAC        -4.0880   -0.4210   -2.9240 hc        1 2E3      0.034367
     36 HACA       -5.8730   -0.2470   -2.6450 hc        1 2E3      0.034367
     37 HACB       -4.8130    1.2170   -2.6440 hc        1 2E3      0.034367
     38 HAP        -6.1930   -1.5360   -0.5340 hc        1 2E3      0.040200
     39 HAPA       -4.6650   -2.1670   -1.2690 hc        1 2E3      0.040200
     40 HAQ        -5.0100   -1.1860    1.6450 hc        1 2E3      0.038700
     41 HAQA       -4.9650   -2.9100    1.1020 hc        1 2E3      0.038700
     42 HAD        -2.7800   -3.1220   -0.8010 hc        1 2E3      0.037200
     43 HADA       -1.3770   -3.1040    0.3450 hc        1 2E3      0.037200
     44 HADB       -2.8780   -4.0340    0.7650 hc        1 2E3      0.037200
     45 HAE        -3.2920   -2.7460    2.9520 hc        1 2E3      0.037200
     46 HAEA       -1.6180   -2.1630    2.5920 hc        1 2E3      0.037200
     47 HAEB       -2.9320   -0.9670    2.9530 hc        1 2E3      0.037200
     48 HAO        -0.5310   -1.0240    1.2180 ha        1 2E3      0.144000
     49 HAM         1.5680   -0.6280   -0.8260 ha        1 2E3      0.139000
     50 HOAH       -0.4700    2.6970    1.5760 ho        1 2E3      0.417000
     51 HAL         2.9590    3.1110    2.1730 ha        1 2E3      0.135000
     52 HAK         4.6820    1.6020    1.1780 ha        1 2E3      0.142000
     53 HAJ         3.8140   -1.2160   -1.2480 ha        1 2E3      0.144000
     54 HAI         5.9840    0.0490    0.5810 ha        1 2E3      0.099000
@<TRIPOS>BOND
     1    1    2 1   
     2    1   28 1   
     3    1   29 1   
     4    1   30 1   
     5    2    3 ar  
     6    2   15 ar  
     7    3    4 ar  
     8    3   31 1   
     9    4    5 1   
    10    4   13 ar  
    11    5    6 1   
    12    5    7 1   
    13    5    8 1   
    14    6   32 1   
    15    6   33 1   
    16    6   34 1   
    17    7   35 1   
    18    7   36 1   
    19    7   37 1   
    20    8    9 1   
    21    8   38 1   
    22    8   39 1   
    23    9   10 1   
    24    9   40 1   
    25    9   41 1   
    26   10   11 1   
    27   10   12 1   
    28   10   13 1   
    29   11   42 1   
    30   11   43 1   
    31   11   44 1   
    32   12   45 1   
    33   12   46 1   
    34   12   47 1   
    35   13   14 ar  
    36   14   15 ar  
    37   14   48 1   
    38   15   16 1   
    39   16   17 ar  
    40   16   18 ar  
    41   17   22 ar  
    42   17   49 1   
    43   18   19 1   
    44   18   20 ar  
    45   19   50 1   
    46   20   21 ar  
    47   20   51 1   
    48   21   22 ar  
    49   21   52 1   
    50   22   23 1   
    51   23   24 2   
    52   23   53 1   
    53   24   25 1   
    54   24   54 1   
    55   25   26 1   
    56   25   27 1   
@<TRIPOS>SUBSTRUCTURE
     1 2E3         1 TEMP              0 ****  ****    0 ROOT
