@<TRIPOS>MOLECULE
2E4
   22    22     1     0     0
SMALL
bcc


@<TRIPOS>ATOM
      1 C1         -0.6600   -1.3660    0.8480 ca        1 2E4     -0.261300
      2 C2          0.2820   -0.6000    0.1410 ca        1 2E4      0.317200
      3 O14        -2.1410   -4.5990    4.2590 o         1 2E4     -0.949833
      4 P13        -2.8320   -3.3230    4.6430 p5        1 2E4      1.468900
      5 O15        -3.1240   -2.4250    3.4570 o         1 2E4     -0.949833
      6 O16        -3.9660   -3.4740    5.6150 o         1 2E4     -0.949833
      7 O12        -1.6250   -2.3740    5.4940 os        1 2E4     -0.820800
      8 P9         -0.5980   -1.5320    6.3230 p5        1 2E4      1.575800
      9 O10        -1.1620   -0.2630    6.8680 o         1 2E4     -0.919000
     10 O11         0.3320   -2.3080    7.1870 o         1 2E4     -0.919000
     11 O8          0.4200   -0.9400    5.0900 os        1 2E4     -0.571200
     12 C7         -0.1190    0.0680    4.3200 c3        1 2E4      0.263700
     13 C5          0.0070   -0.2130    2.8450 ca        1 2E4     -0.174600
     14 C6         -0.8100   -1.1730    2.2240 ca        1 2E4     -0.068000
     15 C4          0.9250    0.4970    2.0500 ca        1 2E4      0.339200
     16 N3          1.0730    0.3280    0.7160 nb        1 2E4     -0.757000
     17 H1         -1.2760   -2.1120    0.3320 ha        1 2E4      0.123000
     18 H2          0.4170   -0.7320   -0.9450 h4        1 2E4     -0.047900
     19 H6         -1.2100    0.2180    4.5710 h1        1 2E4      0.007200
     20 H7          0.4340    1.0380    4.5270 h1        1 2E4      0.007200
     21 H8         -1.5970   -1.7590    2.8310 ha        1 2E4      0.307000
     22 H9          1.5910    1.2490    2.5060 h4        1 2E4     -0.022900
@<TRIPOS>BOND
     1    1    2 ar  
     2    1   14 ar  
     3    1   17 1   
     4    2   16 ar  
     5    2   18 1   
     6    3    4 1   
     7    4    5 1   
     8    4    6 1   
     9    4    7 1   
    10    7    8 1   
    11    8    9 1   
    12    8   10 1   
    13    8   11 1   
    14   11   12 1   
    15   12   13 1   
    16   12   19 1   
    17   12   20 1   
    18   13   14 ar  
    19   13   15 ar  
    20   14   21 1   
    21   15   16 ar  
    22   15   22 1   
@<TRIPOS>SUBSTRUCTURE
     1 2E4         1 TEMP              0 ****  ****    0 ROOT
