@<TRIPOS>MOLECULE
2E4
   22    22     1     0     0
SMALL
bcc


@<TRIPOS>ATOM
      1 C1         -0.2730   -1.5830    0.9110 ca        1 2E4     -0.261300
      2 C2          0.4720   -0.6270    0.1990 ca        1 2E4      0.317200
      3 O14        -1.5040   -3.7620    3.6920 o         1 2E4     -0.949833
      4 P13        -2.6980   -3.4790    4.5810 p5        1 2E4      1.468900
      5 O15        -3.9410   -3.1430    3.8080 o         1 2E4     -0.949833
      6 O16        -2.8870   -4.4480    5.7110 o         1 2E4     -0.949833
      7 O12        -2.2010   -1.9790    5.3440 os        1 2E4     -0.820800
      8 P9         -1.7700   -0.6770    6.1010 p5        1 2E4      1.575800
      9 O10        -2.8780    0.1950    6.5770 o         1 2E4     -0.919000
     10 O11        -0.5950   -0.8660    7.0000 o         1 2E4     -0.919000
     11 O8         -1.0770    0.2310    4.8350 os        1 2E4     -0.571200
     12 C7          0.1640   -0.2000    4.4180 c3        1 2E4      0.263700
     13 C5          0.2320   -0.3750    2.9230 ca        1 2E4     -0.174600
     14 C6         -0.3970   -1.4660    2.2970 ca        1 2E4     -0.068000
     15 C4          0.9490    0.5320    2.1200 ca        1 2E4      0.339200
     16 N3          1.0850    0.4240    0.7790 nb        1 2E4     -0.757000
     17 H1         -0.7560   -2.4170    0.3880 ha        1 2E4      0.123000
     18 H2          0.5870   -0.7000   -0.8950 h4        1 2E4     -0.047900
     19 H6          0.9470    0.5710    4.7030 h1        1 2E4      0.007200
     20 H7          0.4310   -1.1800    4.9130 h1        1 2E4      0.007200
     21 H8         -0.9720   -2.2490    2.9180 ha        1 2E4      0.307000
     22 H9          1.4440    1.4060    2.5760 h4        1 2E4     -0.022900
@<TRIPOS>BOND
     1    1    2 ar  
     2    1   14 ar  
     3    1   17 1   
     4    2   16 ar  
     5    2   18 1   
     6    3    4 1   
     7    4    5 1   
     8    4    6 1   
     9    4    7 1   
    10    7    8 1   
    11    8    9 1   
    12    8   10 1   
    13    8   11 1   
    14   11   12 1   
    15   12   13 1   
    16   12   19 1   
    17   12   20 1   
    18   13   14 ar  
    19   13   15 ar  
    20   14   21 1   
    21   15   16 ar  
    22   15   22 1   
@<TRIPOS>SUBSTRUCTURE
     1 2E4         1 TEMP              0 ****  ****    0 ROOT
