@<TRIPOS>MOLECULE
2E5
   22    22     1     0     0
SMALL
bcc


@<TRIPOS>ATOM
      1 C1          0.2210   -0.2920    1.0780 ca        1 2E5      0.325700
      2 C3          0.8730    1.6570    2.0960 ca        1 2E5      0.325700
      3 O14         5.0770    3.2960    4.0410 o         1 2E5     -0.949833
      4 P13         5.2840    3.5660    2.5800 p5        1 2E5      1.468900
      5 O15         3.9900    3.8310    1.8350 o         1 2E5     -0.949833
      6 O16         6.4040    4.5100    2.2530 o         1 2E5     -0.949833
      7 O12         5.7650    2.0290    1.8840 os        1 2E5     -0.820800
      8 P9          6.2540    0.6900    1.2350 p5        1 2E5      1.574800
      9 O10         6.6060    0.8170   -0.2090 o         1 2E5     -0.919000
     10 O11         7.1130   -0.1730    2.0890 o         1 2E5     -0.919000
     11 O8          4.7920   -0.1840    1.1400 os        1 2E5     -0.570200
     12 C7          3.8890    0.3030    0.2190 c3        1 2E5      0.256700
     13 C5          2.5070    0.4490    0.8070 ca        1 2E5     -0.046300
     14 C6          1.5060   -0.4930    0.5440 ca        1 2E5     -0.230300
     15 C4          2.1870    1.5580    1.6070 ca        1 2E5     -0.230300
     16 N2         -0.1120    0.7630    1.8450 nb        1 2E5     -0.747000
     17 H1         -0.5850   -1.0180    0.8830 h4        1 2E5     -0.025900
     18 H2          0.5920    2.5130    2.7330 h4        1 2E5     -0.025900
     19 H6          4.2260    1.3070   -0.1750 h1        1 2E5      0.009700
     20 H7          3.8070   -0.4200   -0.6520 h1        1 2E5      0.009700
     21 H8          1.7190   -1.3810   -0.0620 ha        1 2E5      0.205500
     22 H9          2.9780    2.3670    1.8280 ha        1 2E5      0.205500
@<TRIPOS>BOND
     1    1   14 ar  
     2    1   16 ar  
     3    1   17 1   
     4    2   15 ar  
     5    2   16 ar  
     6    2   18 1   
     7    3    4 1   
     8    4    5 1   
     9    4    6 1   
    10    4    7 1   
    11    7    8 1   
    12    8    9 1   
    13    8   10 1   
    14    8   11 1   
    15   11   12 1   
    16   12   13 1   
    17   12   19 1   
    18   12   20 1   
    19   13   14 ar  
    20   13   15 ar  
    21   14   21 1   
    22   15   22 1   
@<TRIPOS>SUBSTRUCTURE
     1 2E5         1 TEMP              0 ****  ****    0 ROOT
