@<TRIPOS>MOLECULE
2E5
   22    22     1     0     0
SMALL
bcc


@<TRIPOS>ATOM
      1 C1          0.0140   -0.6990    0.2850 ca        1 2E5      0.337700
      2 C3          0.5000    0.0390    2.4040 ca        1 2E5      0.337700
      3 O14         8.1830    3.9020    3.1230 o         1 2E5     -0.953833
      4 P13         7.1780    4.2380    2.0570 p5        1 2E5      1.454900
      5 O15         6.2740    5.3930    2.3810 o         1 2E5     -0.953833
      6 O16         7.7180    4.2390    0.6540 o         1 2E5     -0.953833
      7 O12         6.0860    2.8030    2.0930 os        1 2E5     -0.794800
      8 P9          5.2190    1.5280    2.1580 p5        1 2E5      1.578800
      9 O10         5.8560    0.2630    1.6860 o         1 2E5     -0.922500
     10 O11         4.3140    1.3840    3.3430 o         1 2E5     -0.922500
     11 O8          4.0330    1.7980    0.9360 os        1 2E5     -0.556200
     12 C7          3.5720    0.6990    0.2650 c3        1 2E5      0.241700
     13 C5          2.1830    0.2850    0.6940 ca        1 2E5     -0.038300
     14 C6          1.2780   -0.3060   -0.1930 ca        1 2E5     -0.245300
     15 C4          1.7810    0.4620    2.0320 ca        1 2E5     -0.245300
     16 N2         -0.3900   -0.5370    1.5580 nb        1 2E5     -0.744000
     17 H1         -0.7170   -1.1680   -0.3930 h4        1 2E5     -0.026400
     18 H2          0.1510    0.1630    3.4430 h4        1 2E5     -0.026400
     19 H6          3.5260    0.9300   -0.8420 h1        1 2E5      0.024700
     20 H7          4.2580   -0.1900    0.4240 h1        1 2E5      0.024700
     21 H8          1.5430   -0.4600   -1.2460 ha        1 2E5      0.192000
     22 H9          2.5300    0.9280    2.7390 ha        1 2E5      0.192000
@<TRIPOS>BOND
     1    1   14 ar  
     2    1   16 ar  
     3    1   17 1   
     4    2   15 ar  
     5    2   16 ar  
     6    2   18 1   
     7    3    4 1   
     8    4    5 1   
     9    4    6 1   
    10    4    7 1   
    11    7    8 1   
    12    8    9 1   
    13    8   10 1   
    14    8   11 1   
    15   11   12 1   
    16   12   13 1   
    17   12   19 1   
    18   12   20 1   
    19   13   14 ar  
    20   13   15 ar  
    21   14   21 1   
    22   15   22 1   
@<TRIPOS>SUBSTRUCTURE
     1 2E5         1 TEMP              0 ****  ****    0 ROOT
