@<TRIPOS>MOLECULE
2E6
   22    26     1     0     0
SMALL
bcc


@<TRIPOS>ATOM
      1 C1          0.0000    0.0000    0.0000 c3        1 2E6     -0.160000
      2 C2          1.3860    0.0000    0.0000 c3        1 2E6     -0.524000
      3 C3          2.0600    0.0000    1.2080 c2        1 2E6     -0.520000
      4 O14        -6.6330    0.8300    5.4720 o         1 2E6     -0.635500
      5 P13        -6.0330   -0.4750    4.7440 p5        1 2E6      1.055500
      6 O15        -5.8800   -1.5650    5.7340 o         1 2E6     -0.635500
      7 O16        -7.0350   -0.9480    3.5770 o         1 2E6     -0.635500
      8 O12        -4.5960   -0.1220    4.1100 os        1 2E6     -0.938000
      9 P9         -3.1080    0.0030    4.7100 p5        1 2E6      1.395000
     10 O10        -2.9770    1.3760    5.5400 o         1 2E6     -0.671000
     11 O11        -2.8400   -1.1430    5.6080 o         1 2E6     -0.671000
     12 O8         -2.0400    0.0010    3.5050 os        1 2E6     -0.532000
     13 C5          0.0800   -0.0060    2.3850 DU        1 2E6     -0.288000
     14 C6         -0.6610   -0.0000    1.2190 c2        1 2E6     -0.185000
     15 N4          1.3980   -0.0000    2.3480 n2        1 2E6     -0.115000
     16 H1         -0.1950    0.0810    1.0620 hc        1 2E6      0.010000
     17 H2          0.4120   -0.1150   -0.4610 DU        1 2E6      0.149000
     18 H3          1.9940    0.0860    0.1300 DU        1 2E6      0.263000
     19 H7          0.2820   -0.0120    3.1290 DU        1 2E6      0.317000
     20 H8         -0.5810    1.0510    3.9490 h1        1 2E6      0.036000
     21 H9         -0.5430   -0.1170    2.2890 DU        1 2E6      0.236000
     22 C7         -0.6270   -0.0060    3.7170 c3        1 2E6      0.047000
@<TRIPOS>BOND
     1    1    2 1   
     2    1   14 1   
     3    1   16 1   
     4    1   17 1   
     5    2    3 1   
     6    2   17 1   
     7    2   18 1   
     8    3   15 1   
     9    3   18 1   
    10    4    5 1   
    11    5    6 1   
    12    5    7 1   
    13    5    8 1   
    14    8    9 1   
    15    9   10 1   
    16    9   11 1   
    17    9   12 1   
    18   12   22 1   
    19   13   14 1   
    20   13   15 1   
    21   13   19 1   
    22   13   21 1   
    23   13   22 1   
    24   14   21 1   
    25   19   22 1   
    26   20   22 1   
@<TRIPOS>SUBSTRUCTURE
     1 2E6         1 TEMP              0 ****  ****    0 ROOT
