@<TRIPOS>MOLECULE
2E7
   22    22     1     0     0
SMALL
bcc


@<TRIPOS>ATOM
      1 C1         -0.1720   -0.4070    0.4320 ca        1 2E7     -0.246300
      2 C2          0.9530    0.3630    0.0700 ca        1 2E7      0.445300
      3 O10        -2.5230   -1.7470    3.5100 o         1 2E7     -0.920500
      4 P9         -1.9330   -1.6030    4.8810 p5        1 2E7      1.579800
      5 O11        -2.0640   -0.2450    5.4870 o         1 2E7     -0.920500
      6 O12        -2.0720   -2.8080    5.8300 os        1 2E7     -0.791800
      7 P13        -2.3210   -4.1790    6.9820 p5        1 2E7      1.452900
      8 O14        -1.9460   -5.3940    6.1840 o         1 2E7     -0.951833
      9 O15        -1.3900   -3.8590    8.1160 o         1 2E7     -0.951833
     10 O16        -3.7830   -4.0580    7.3050 o         1 2E7     -0.951833
     11 O8         -0.2610   -1.6260    4.4500 os        1 2E7     -0.555200
     12 C7          0.3300   -0.4190    4.1970 c3        1 2E7      0.247700
     13 C5          0.5450   -0.1710    2.7220 ca        1 2E7     -0.159600
     14 C4          1.6310    0.5830    2.2450 ca        1 2E7      0.342200
     15 N3          1.8520    0.8620    0.9400 nb        1 2E7     -0.714000
     16 C6         -0.3760   -0.6740    1.7820 ca        1 2E7     -0.082000
     17 Cl          1.1980    0.6950   -1.6220 cl        1 2E7     -0.288000
     18 H1         -0.8660   -0.7820   -0.3290 ha        1 2E7      0.130000
     19 H5         -0.3020    0.4330    4.6000 h1        1 2E7      0.026700
     20 H6          1.3460   -0.3890    4.6940 h1        1 2E7      0.026700
     21 H7          2.3810    0.9940    2.9420 h4        1 2E7     -0.003900
     22 H8         -1.2560   -1.2650    2.1950 ha        1 2E7      0.288000
@<TRIPOS>BOND
     1    1    2 ar  
     2    1   16 ar  
     3    1   18 1   
     4    2   15 ar  
     5    2   17 1   
     6    3    4 1   
     7    4    5 1   
     8    4    6 1   
     9    4   11 1   
    10    6    7 1   
    11    7    8 1   
    12    7    9 1   
    13    7   10 1   
    14   11   12 1   
    15   12   13 1   
    16   12   19 1   
    17   12   20 1   
    18   13   14 ar  
    19   13   16 ar  
    20   14   15 ar  
    21   14   21 1   
    22   16   22 1   
@<TRIPOS>SUBSTRUCTURE
     1 2E7         1 TEMP              0 ****  ****    0 ROOT
