@<TRIPOS>MOLECULE
2E7
   22    22     1     0     0
SMALL
bcc


@<TRIPOS>ATOM
      1 C1         -0.3490   -0.3010    0.4460 ca        1 2E7     -0.246300
      2 C2          0.7850    0.4280    0.0330 ca        1 2E7      0.445300
      3 O10        -2.5460   -1.6490    3.6320 o         1 2E7     -0.920500
      4 P9         -1.8560   -1.5880    4.9620 p5        1 2E7      1.579800
      5 O11        -1.8770   -0.2510    5.6250 o         1 2E7     -0.920500
      6 O12        -1.9890   -2.8220    5.8750 os        1 2E7     -0.791800
      7 P13        -2.2260   -4.2240    6.9910 p5        1 2E7      1.452900
      8 O14        -1.9680   -5.4230    6.1250 o         1 2E7     -0.951833
      9 O15        -1.2050   -3.9940    8.0670 o         1 2E7     -0.951833
     10 O16        -3.6550   -4.0470    7.4200 o         1 2E7     -0.951833
     11 O8         -0.2210   -1.6730    4.4130 os        1 2E7     -0.555200
     12 C7          0.4100   -0.4860    4.1630 c3        1 2E7      0.247700
     13 C5          0.5350   -0.1900    2.6870 ca        1 2E7     -0.159600
     14 C4          1.6230    0.5300    2.1620 ca        1 2E7      0.342200
     15 N3          1.7670    0.8490    0.8550 nb        1 2E7     -0.714000
     16 C6         -0.4720   -0.6110    1.7970 ca        1 2E7     -0.082000
     17 CL          0.9290    0.8150   -1.6590 cl        1 2E7     -0.288000
     18 H1         -1.1120   -0.6130   -0.2770 ha        1 2E7      0.130000
     19 H5         -0.1490    0.3780    4.6410 h1        1 2E7      0.026700
     20 H6          1.4580   -0.5240    4.5880 h1        1 2E7      0.026700
     21 H7          2.4380    0.8760    2.8180 h4        1 2E7     -0.003900
     22 H8         -1.3510   -1.1770    2.2490 ha        1 2E7      0.288000
@<TRIPOS>BOND
     1    1    2 ar  
     2    1   16 ar  
     3    1   18 1   
     4    2   15 ar  
     5    2   17 1   
     6    3    4 1   
     7    4    5 1   
     8    4    6 1   
     9    4   11 1   
    10    6    7 1   
    11    7    8 1   
    12    7    9 1   
    13    7   10 1   
    14   11   12 1   
    15   12   13 1   
    16   12   19 1   
    17   12   20 1   
    18   13   14 ar  
    19   13   16 ar  
    20   14   15 ar  
    21   14   21 1   
    22   16   22 1   
@<TRIPOS>SUBSTRUCTURE
     1 2E7         1 TEMP              0 ****  ****    0 ROOT
