@<TRIPOS>MOLECULE
2E8
   59    63     1     0     0
SMALL
bcc


@<TRIPOS>ATOM
      1 CAL        -0.0060    0.1840    0.0270 c3        1 2E8     -0.076400
      2 CAN         1.5050    0.2790   -0.1710 c3        1 2E8      0.170800
      3 NBD         2.2440    0.3990    1.0780 n3        1 2E8     -0.732600
      4 CAB         3.6710    0.4790    0.8650 c3        1 2E8      0.158100
      5 CAO         1.7510    1.4760    1.9270 c3        1 2E8      0.170800
      6 CAM         0.2450    1.4130    2.1710 c3        1 2E8     -0.076400
      7 CBC        -0.5140    1.3530    0.8580 c3        1 2E8     -0.086700
      8 CAP        -2.0210    1.1750    1.0840 c3        1 2E8      0.064300
      9 NBE        -2.7020    2.3300    1.6430 na        1 2E8      0.002200
     10 NAS        -2.8520    3.4950    0.9810 nc        1 2E8     -0.504100
     11 C4         -3.1000    2.4600    2.9890 ca        1 2E8      0.471800
     12 N3         -3.1130    1.5410    4.0050 nb        1 2E8     -0.739000
     13 C2         -3.6350    2.0360    5.1490 ca        1 2E8      0.693900
     14 N1         -4.1360    3.2710    5.4210 nb        1 2E8     -0.799000
     15 C6         -4.1140    4.1980    4.4050 ca        1 2E8      0.756200
     16 NAC        -4.5580    5.4820    4.6260 nv        1 2E8     -0.953500
     17 C5         -3.5840    3.8240    3.1320 ca        1 2E8     -0.496500
     18 CAX        -3.3890    4.4160    1.8210 cd        1 2E8      0.424500
     19 CAV        -3.7160    5.7810    1.4280 ca        1 2E8     -0.112900
     20 CAJ        -3.1770    6.8580    2.0980 ca        1 2E8     -0.099000
     21 CAE        -4.5920    5.9940    0.3260 ca        1 2E8     -0.095000
     22 CAG        -4.9210    7.2670   -0.0610 ca        1 2E8     -0.129000
     23 CAY        -4.3910    8.3970    0.6240 ca        1 2E8      0.002000
     24 CAI        -4.7220    9.7180    0.2370 ca        1 2E8     -0.164000
     25 CAZ        -3.5050    8.1860    1.7130 ca        1 2E8     -0.076000
     26 CAF        -2.9640    9.3100    2.3910 ca        1 2E8     -0.082000
     27 CAD        -3.2870   10.5890    2.0120 ca        1 2E8     -0.186000
     28 CAU        -4.1780   10.7930    0.9240 ca        1 2E8      0.133100
     29 OAT        -4.5710   12.0380    0.4730 os        1 2E8     -0.330900
     30 CAK        -3.9730   13.1660    1.1250 c3        1 2E8      0.129400
     31 CAA        -4.5240   14.3880    0.4250 c3        1 2E8     -0.100100
     32 H1         -0.4950    0.1850   -0.9810 hc        1 2E8      0.052700
     33 H2         -0.2630   -0.7810    0.5360 hc        1 2E8      0.052700
     34 H3          1.7200    1.1460   -0.8640 h1        1 2E8      0.031200
     35 H4          1.8600   -0.6610   -0.6820 h1        1 2E8      0.031200
     36 H6          4.1860    0.4770    1.8610 h1        1 2E8      0.031033
     37 H7          3.9890    1.4000    0.3020 h1        1 2E8      0.031033
     38 H8          4.0020   -0.4230    0.2860 h1        1 2E8      0.031033
     39 H9          2.2800    1.3900    2.9180 h1        1 2E8      0.031200
     40 H10         2.0010    2.4900    1.4940 h1        1 2E8      0.031200
     41 H11        -0.0020    0.5120    2.7920 hc        1 2E8      0.052700
     42 H12        -0.0550    2.3220    2.7520 hc        1 2E8      0.052700
     43 H13        -0.3310    2.3060    0.2860 hc        1 2E8      0.068700
     44 H14        -2.5070    0.9410    0.0930 h1        1 2E8      0.075700
     45 H15        -2.1960    0.3110    1.7860 h1        1 2E8      0.075700
     46 H16        -3.6660    1.3250    6.0050 h5        1 2E8      0.052100
     47 H17        -5.0540    5.6890    5.4590 hn        1 2E8      0.439300
     48 H18        -4.7130    6.0550    3.8300 hn        1 2E8      0.439300
     49 H19        -2.4750    6.7070    2.9340 ha        1 2E8      0.145000
     50 H20        -4.9930    5.1200   -0.2090 ha        1 2E8      0.147000
     51 H21        -5.5990    7.4390   -0.9110 ha        1 2E8      0.139000
     52 H22        -5.4080    9.8880   -0.6050 ha        1 2E8      0.152000
     53 H23        -2.2730    9.1370    3.2320 ha        1 2E8      0.137000
     54 H24        -2.8590   11.4480    2.5470 ha        1 2E8      0.140000
     55 H25        -2.8570   13.1100    1.0240 h1        1 2E8      0.038200
     56 H26        -4.2540   13.1600    2.2110 h1        1 2E8      0.038200
     57 H27        -5.6370   14.4170    0.5100 hc        1 2E8      0.050033
     58 H28        -4.2550   14.3720   -0.6580 hc        1 2E8      0.050033
     59 H29        -4.0950   15.3030    0.8980 hc        1 2E8      0.050033
@<TRIPOS>BOND
     1    1    2 1   
     2    1    7 1   
     3    1   32 1   
     4    1   33 1   
     5    2    3 1   
     6    2   34 1   
     7    2   35 1   
     8    3    4 1   
     9    3    5 1   
    10    4   36 1   
    11    4   37 1   
    12    4   38 1   
    13    5    6 1   
    14    5   39 1   
    15    5   40 1   
    16    6    7 1   
    17    6   41 1   
    18    6   42 1   
    19    7    8 1   
    20    7   43 1   
    21    8    9 1   
    22    8   44 1   
    23    8   45 1   
    24    9   10 1   
    25    9   11 1   
    26   10   18 2   
    27   11   12 ar  
    28   11   17 ar  
    29   12   13 ar  
    30   13   14 ar  
    31   13   46 1   
    32   14   15 ar  
    33   15   16 1   
    34   15   17 ar  
    35   16   47 1   
    36   16   48 1   
    37   17   18 1   
    38   18   19 1   
    39   19   20 ar  
    40   19   21 ar  
    41   20   25 ar  
    42   20   49 1   
    43   21   22 ar  
    44   21   50 1   
    45   22   23 ar  
    46   22   51 1   
    47   23   24 ar  
    48   23   25 ar  
    49   24   28 ar  
    50   24   52 1   
    51   25   26 ar  
    52   26   27 ar  
    53   26   53 1   
    54   27   28 ar  
    55   27   54 1   
    56   28   29 1   
    57   29   30 1   
    58   30   31 1   
    59   30   55 1   
    60   30   56 1   
    61   31   57 1   
    62   31   58 1   
    63   31   59 1   
@<TRIPOS>SUBSTRUCTURE
     1 2E8         1 TEMP              0 ****  ****    0 ROOT
