@<TRIPOS>MOLECULE
2E8
   59    53     1     0     0
SMALL
bcc


@<TRIPOS>ATOM
      1 CAL         2.7040   -4.8030    0.1460 c3        1 2E8     -0.154000
      2 CAN         2.0240   -6.1750    0.1050 c3        1 2E8     -0.066500
      3 NBD         1.5160   -6.5150   -1.2430 n3        1 2E8     -0.258000
      4 CAB         0.7580   -7.7830   -1.1810 c3        1 2E8     -0.118000
      5 CAO         0.6680   -5.4590   -1.8180 c3        1 2E8     -0.066500
      6 CAM         1.3420   -4.0820   -1.7820 c3        1 2E8     -0.154000
      7 CBC         1.8510   -3.7340   -0.4250 c3        1 2E8     -0.127000
      8 CAP         2.6920   -2.3990   -0.5210 c3        1 2E8      0.006000
      9 NBE         2.0840   -1.3740    0.3210 n3        1 2E8     -0.134000
     10 NAS         1.5590   -0.2300   -0.2470 n2        1 2E8     -0.037000
     11 C4          2.0620   -1.2200    1.6900 c1        1 2E8      0.078000
     12 N3          2.4900   -2.0200    2.7040 n1        1 2E8     -0.215000
     13 C2          2.3870   -1.5970    3.9990 c1        1 2E8      0.031000
     14 N1          1.8520   -0.3660    4.2810 n1        1 2E8     -0.275000
     15 C6          1.4290    0.4250    3.2850 c1        1 2E8      0.239000
     16 NAC         0.9470    1.4170    4.2580 n2        1 2E8     -0.356000
     17 C5          1.5330   -0.0030    1.9660 c1        1 2E8     -0.282000
     18 CAX         1.2190    0.6150    0.7530 c1        1 2E8     -0.031000
     19 CAV         0.5320    1.8740    0.1980 c1        1 2E8     -0.036000
     20 CAJ        -0.8200    1.7750   -0.1750 c1        1 2E8     -0.101500
     21 CAE         1.1650    3.1150    0.2030 c1        1 2E8     -0.115000
     22 CAG         0.4590    4.2600   -0.1620 c1        1 2E8     -0.101500
     23 CAY        -0.9030    4.1640   -0.5380 c1        1 2E8     -0.037000
     24 CAI        -1.6220    5.3350   -0.8780 c1        1 2E8     -0.165000
     25 CAZ        -1.5350    2.9350   -0.5440 c1        1 2E8     -0.037000
     26 CAF        -2.9020    2.8490   -0.8910 c1        1 2E8     -0.133000
     27 CAD        -3.6110    4.0040   -1.2270 c1        1 2E8     -0.133000
     28 CAU        -2.9660    5.2510   -1.2200 c1        1 2E8      0.089000
     29 OAT        -3.5980    6.4100   -1.7710 os        1 2E8     -0.214000
     30 CAK        -4.6990    6.8960   -0.9950 c3        1 2E8     -0.021000
     31 CAA        -5.0420    8.2850   -1.4280 c3        1 2E8     -0.218000
     32 H1          2.9120   -4.5810    1.0730 hc        1 2E8      0.091500
     33 H2          3.5350   -4.8490   -0.3610 hc        1 2E8      0.091500
     34 H3          1.2700   -6.1720    0.7360 h1        1 2E8      0.070000
     35 H4          2.6630   -6.8540    0.3820 h1        1 2E8      0.070000
     36 H6          1.3560   -8.5110   -0.8710 h1        1 2E8      0.070667
     37 H7          0.0070   -7.6870   -0.5520 h1        1 2E8      0.070667
     38 H8          0.4160   -7.9990   -2.0610 h1        1 2E8      0.070667
     39 H9          0.4630   -5.6920   -2.7630 h1        1 2E8      0.070000
     40 H10        -0.1710   -5.4140   -1.3120 h1        1 2E8      0.070000
     41 H11         0.6870   -3.3980   -2.0610 hc        1 2E8      0.091500
     42 H12         2.1020   -4.0780   -2.4220 hc        1 2E8      0.091500
     43 H13         1.0790   -3.5870    0.1770 hc        1 2E8      0.106000
     44 H14         3.6210   -2.5710   -0.2140 h1        1 2E8      0.115500
     45 H15         2.7060   -2.0910   -1.4470 h1        1 2E8      0.115500
     46 H16         2.6910   -2.1660    4.7160 ha        1 2E8      0.188000
     47 H17         0.7450    2.2710    3.9830 hn        1 2E8      0.238000
     48 H18         0.8880    1.1960    5.1510 hn        1 2E8      0.238000
     49 H19        -1.2410    0.9070   -0.2380 ha        1 2E8      0.141500
     50 H20         2.1390    3.1700    0.3660 ha        1 2E8      0.147000
     51 H21         0.9110    5.1410   -0.1580 ha        1 2E8      0.141500
     52 H22        -1.1700    6.2070   -0.8720 ha        1 2E8      0.152000
     53 H23        -3.3520    1.9800   -0.8980 ha        1 2E8      0.138500
     54 H24        -4.5500    3.9450   -1.4660 ha        1 2E8      0.138500
     55 H25        -5.4650    6.3210   -1.1260 h1        1 2E8      0.078000
     56 H26        -4.4560    6.9000   -0.0570 h1        1 2E8      0.078000
     57 H27        -4.2650    8.8610   -1.3210 hc        1 2E8      0.089333
     58 H28        -5.7820    8.6270   -0.8760 hc        1 2E8      0.089333
     59 H29        -5.3130    8.2750   -2.3670 hc        1 2E8      0.089333
@<TRIPOS>BOND
     1    1    2 1   
     2    1    7 1   
     3    1   32 1   
     4    1   33 1   
     5    2    3 1   
     6    2   34 1   
     7    2   35 1   
     8    3    4 1   
     9    3    5 1   
    10    4   36 1   
    11    4   37 1   
    12    4   38 1   
    13    5    6 1   
    14    5   39 1   
    15    5   40 1   
    16    6    7 1   
    17    6   41 1   
    18    6   42 1   
    19    7    8 1   
    20    7   43 1   
    21    8    9 1   
    22    8   44 1   
    23    8   45 1   
    24    9   10 1   
    25    9   11 1   
    26   10   18 1   
    27   11   17 1   
    28   12   13 1   
    29   13   46 1   
    30   14   15 1   
    31   15   17 1   
    32   16   47 1   
    33   16   48 1   
    34   19   21 1   
    35   20   25 1   
    36   20   49 1   
    37   21   50 1   
    38   22   23 1   
    39   22   51 1   
    40   23   25 1   
    41   24   28 1   
    42   24   52 1   
    43   26   27 1   
    44   26   53 1   
    45   27   54 1   
    46   28   29 1   
    47   29   30 1   
    48   30   31 1   
    49   30   55 1   
    50   30   56 1   
    51   31   57 1   
    52   31   58 1   
    53   31   59 1   
@<TRIPOS>SUBSTRUCTURE
     1 2E8         1 TEMP              0 ****  ****    0 ROOT
