@<TRIPOS>MOLECULE
2E8
   59    63     1     0     0
SMALL
bcc


@<TRIPOS>ATOM
      1 CAL        -5.5810   -1.6910   -1.0200 c3        1 2E8     -0.076400
      2 CAN        -6.1130   -2.6990   -0.0040 c3        1 2E8      0.170800
      3 NBD        -6.3680   -2.1170    1.3060 n3        1 2E8     -0.732600
      4 CAB        -6.8780   -3.0880    2.2470 c3        1 2E8      0.158100
      5 CAO        -5.2240   -1.3830    1.8340 c3        1 2E8      0.170800
      6 CAM        -4.6680   -0.3480    0.8590 c3        1 2E8     -0.076400
      7 CBC        -4.3460   -0.9840   -0.4810 c3        1 2E8     -0.086700
      8 CAP        -3.8930    0.0630   -1.5090 c3        1 2E8      0.064300
      9 NBE        -2.5870    0.6480   -1.2580 na        1 2E8      0.002200
     10 NAS        -1.4350   -0.0510   -1.3300 nc        1 2E8     -0.504100
     11 C4         -2.3670    1.9310   -0.7170 ca        1 2E8      0.471800
     12 N3         -3.2430    2.9530   -0.4690 nb        1 2E8     -0.739000
     13 C2         -2.6310    4.0640   -0.0020 ca        1 2E8      0.693900
     14 N1         -1.3130    4.3010    0.2400 nb        1 2E8     -0.799000
     15 C6         -0.4330    3.2720    0.0010 ca        1 2E8      0.756200
     16 NAC         0.9070    3.4260    0.2730 nh        1 2E8     -0.953500
     17 C5         -0.9330    2.0270   -0.4900 ca        1 2E8     -0.496500
     18 CAX        -0.4150    0.7340   -0.8970 cd        1 2E8      0.424500
     19 CAV         0.9790    0.3090   -0.8680 ca        1 2E8     -0.112900
     20 CAJ         1.7010    0.3350    0.3060 ca        1 2E8     -0.099000
     21 CAE         1.5890   -0.1520   -2.0690 ca        1 2E8     -0.095000
     22 CAG         2.9000   -0.5510   -2.0720 ca        1 2E8     -0.129000
     23 CAY         3.6730   -0.5200   -0.8760 ca        1 2E8      0.002000
     24 CAI         5.0290   -0.9280   -0.8630 ca        1 2E8     -0.164000
     25 CAZ         3.0620   -0.0750    0.3250 ca        1 2E8     -0.076000
     26 CAF         3.8250   -0.0540    1.5220 ca        1 2E8     -0.082000
     27 CAD         5.1400   -0.4510    1.5310 ca        1 2E8     -0.186000
     28 CAU         5.7470   -0.8920    0.3240 ca        1 2E8      0.133100
     29 OAT         7.0610   -1.3020    0.2270 os        1 2E8     -0.330900
     30 CAK         7.8070   -1.3340    1.4520 c3        1 2E8      0.129400
     31 CAA         9.1780   -1.8560    1.0870 c3        1 2E8     -0.100100
     32 H1         -5.3300   -2.2400   -1.9640 hc        1 2E8      0.052450
     33 H2         -6.3740   -0.9360   -1.2590 hc        1 2E8      0.052450
     34 H3         -7.0900   -3.1110   -0.3850 h1        1 2E8      0.031200
     35 H4         -5.3820   -3.5590    0.0600 h1        1 2E8      0.031200
     36 H6         -6.1460   -3.9100    2.4820 h1        1 2E8      0.031033
     37 H7         -7.1400   -2.5620    3.2030 h1        1 2E8      0.031033
     38 H8         -7.8070   -3.5500    1.8230 h1        1 2E8      0.031033
     39 H9         -5.5680   -0.8520    2.7660 h1        1 2E8      0.031200
     40 H10        -4.3870   -2.0830    2.1290 h1        1 2E8      0.031200
     41 H11        -5.4120    0.4790    0.7170 hc        1 2E8      0.052450
     42 H12        -3.7440    0.0970    1.3090 hc        1 2E8      0.052450
     43 H13        -3.5300   -1.7460   -0.3380 hc        1 2E8      0.068700
     44 H14        -3.8580   -0.4260   -2.5260 h1        1 2E8      0.075700
     45 H15        -4.6380    0.9070   -1.5380 h1        1 2E8      0.075700
     46 H16        -3.3040    4.9230    0.2150 h5        1 2E8      0.052100
     47 H17         1.2630    4.3300    0.4720 hn        1 2E8      0.439300
     48 H18         1.5290    2.7460   -0.0950 hn        1 2E8      0.439300
     49 H19         1.2330    0.6620    1.2480 ha        1 2E8      0.145000
     50 H20         0.9870   -0.1850   -2.9900 ha        1 2E8      0.147000
     51 H21         3.3780   -0.9070   -2.9970 ha        1 2E8      0.139000
     52 H22         5.5080   -1.2720   -1.7900 ha        1 2E8      0.152000
     53 H23         3.3420    0.2870    2.4510 ha        1 2E8      0.137000
     54 H24         5.7170   -0.4290    2.4660 ha        1 2E8      0.140000
     55 H25         7.8680   -0.2980    1.8770 h1        1 2E8      0.038200
     56 H26         7.2960   -2.0140    2.1840 h1        1 2E8      0.038200
     57 H27         9.6640   -1.1860    0.3380 hc        1 2E8      0.050033
     58 H28         9.8090   -1.8980    2.0070 hc        1 2E8      0.050033
     59 H29         9.1020   -2.8790    0.6460 hc        1 2E8      0.050033
@<TRIPOS>BOND
     1    1    2 1   
     2    1    7 1   
     3    1   32 1   
     4    1   33 1   
     5    2    3 1   
     6    2   34 1   
     7    2   35 1   
     8    3    4 1   
     9    3    5 1   
    10    4   36 1   
    11    4   37 1   
    12    4   38 1   
    13    5    6 1   
    14    5   39 1   
    15    5   40 1   
    16    6    7 1   
    17    6   41 1   
    18    6   42 1   
    19    7    8 1   
    20    7   43 1   
    21    8    9 1   
    22    8   44 1   
    23    8   45 1   
    24    9   10 1   
    25    9   11 1   
    26   10   18 2   
    27   11   12 ar  
    28   11   17 ar  
    29   12   13 ar  
    30   13   14 ar  
    31   13   46 1   
    32   14   15 ar  
    33   15   16 1   
    34   15   17 ar  
    35   16   47 1   
    36   16   48 1   
    37   17   18 1   
    38   18   19 1   
    39   19   20 ar  
    40   19   21 ar  
    41   20   25 ar  
    42   20   49 1   
    43   21   22 ar  
    44   21   50 1   
    45   22   23 ar  
    46   22   51 1   
    47   23   24 ar  
    48   23   25 ar  
    49   24   28 ar  
    50   24   52 1   
    51   25   26 ar  
    52   26   27 ar  
    53   26   53 1   
    54   27   28 ar  
    55   27   54 1   
    56   28   29 1   
    57   29   30 1   
    58   30   31 1   
    59   30   55 1   
    60   30   56 1   
    61   31   57 1   
    62   31   58 1   
    63   31   59 1   
@<TRIPOS>SUBSTRUCTURE
     1 2E8         1 TEMP              0 ****  ****    0 ROOT
