@<TRIPOS>MOLECULE
2E8
   60    64     1     0     0
SMALL
bcc


@<TRIPOS>ATOM
      1 CAL         0.0410    0.1160    0.1200 c3        1 2E8     -0.077900
      2 CAN         1.5400    0.2110   -0.1560 c3        1 2E8      0.170300
      3 NBD         2.3250    0.4510    1.0460 n3        1 2E8     -0.733600
      4 CAB         3.7460    0.4880    0.7810 c3        1 2E8      0.156100
      5 CAO         1.8660    1.6130    1.7920 c3        1 2E8      0.170300
      6 CAM         0.3750    1.5580    2.1220 c3        1 2E8     -0.077900
      7 CBC        -0.4500    1.3520    0.8640 c3        1 2E8     -0.083700
      8 CAP        -1.9350    1.1510    1.1830 c3        1 2E8      0.052300
      9 NBE        -2.6110    2.3340    1.7220 na        1 2E8      0.039200
     10 NAS        -2.7330    3.4920    1.0530 nc        1 2E8     -0.419100
     11 C4         -3.1550    2.4330    3.0120 ca        1 2E8      0.459800
     12 N3         -3.2610    1.5290    4.0310 nb        1 2E8     -0.622000
     13 C2         -3.8890    2.0020    5.1260 ca        1 2E8      0.681900
     14 N1         -4.4310    3.2480    5.3370 nb        1 2E8     -0.698000
     15 C6         -4.3200    4.1280    4.3180 ca        1 2E8      0.557200
     16 NAC        -4.9020    5.4780    4.4740 n4        1 2E8     -0.834300
     17 C5         -3.6820    3.8040    3.1120 ca        1 2E8     -0.435500
     18 CAX        -3.3680    4.4060    1.8310 cd        1 2E8      0.407500
     19 CAV        -3.7030    5.7720    1.4550 ca        1 2E8     -0.159900
     20 CAJ        -3.0800    6.8400    2.0710 ca        1 2E8     -0.125000
     21 CAE        -4.6750    5.9970    0.4420 ca        1 2E8     -0.113000
     22 CAG        -5.0260    7.2760    0.0960 ca        1 2E8     -0.103000
     23 CAY        -4.4210    8.3980    0.7350 ca        1 2E8      0.007000
     24 CAI        -4.7750    9.7200    0.3870 ca        1 2E8     -0.170000
     25 CAZ        -3.4300    8.1710    1.7290 ca        1 2E8     -0.092000
     26 CAF        -2.7960    9.2870    2.3380 ca        1 2E8     -0.092000
     27 CAD        -3.1370   10.5700    1.9910 ca        1 2E8     -0.169000
     28 CAU        -4.1410   10.7920    1.0070 ca        1 2E8      0.162100
     29 OAT        -4.5660   12.0340    0.6090 os        1 2E8     -0.318900
     30 CAK        -3.8410   13.1630    1.1280 c3        1 2E8      0.127400
     31 CAA        -4.4440   14.3770    0.4600 c3        1 2E8     -0.103100
     32 H1         -0.1750   -0.8020    0.7270 hc        1 2E8      0.050950
     33 H2         -0.4940    0.0180   -0.8600 hc        1 2E8      0.050950
     34 H3          1.7100    1.0160   -0.9320 h1        1 2E8      0.038450
     35 H4          1.8850   -0.7670   -0.5970 h1        1 2E8      0.038450
     36 H6          4.2930    0.5790    1.7560 h1        1 2E8      0.038367
     37 H7          4.0460   -0.4730    0.2880 h1        1 2E8      0.038367
     38 H8          4.0520    1.3430    0.1170 h1        1 2E8      0.038367
     39 H9          2.4460    1.6470    2.7580 h1        1 2E8      0.038450
     40 H10         2.0730    2.5750    1.2350 h1        1 2E8      0.038450
     41 H11         0.1790    0.7230    2.8450 hc        1 2E8      0.050950
     42 H12         0.0930    2.5210    2.6200 hc        1 2E8      0.050950
     43 H13        -0.3230    2.2470    0.1920 hc        1 2E8      0.075700
     44 H14        -2.4780    0.8620    0.2360 h1        1 2E8      0.090700
     45 H15        -2.0530    0.3270    1.9420 h1        1 2E8      0.090700
     46 H16        -3.9930    1.2960    5.9840 h5        1 2E8      0.098100
     47 H17        -4.5700    6.0720    3.6910 hn        1 2E8      0.477800
     48 H18        -4.6180    5.8890    5.3710 hn        1 2E8      0.477800
     49 H19        -2.2680    6.6780    2.7980 ha        1 2E8      0.138000
     50 H20        -5.1240    5.1310   -0.0700 ha        1 2E8      0.155000
     51 H21        -5.7710    7.4610   -0.6950 ha        1 2E8      0.158000
     52 H22        -5.5420    9.9030   -0.3810 ha        1 2E8      0.167000
     53 H23        -2.0090    9.1070    3.0870 ha        1 2E8      0.139000
     54 H24        -2.6320   11.4250    2.4650 ha        1 2E8      0.155000
     55 H25        -2.7540   13.0560    0.8770 h1        1 2E8      0.043200
     56 H26        -3.9740   13.2020    2.2410 h1        1 2E8      0.043200
     57 H27        -4.3240   14.3130   -0.6490 hc        1 2E8      0.058367
     58 H28        -3.9240   15.2910    0.8330 hc        1 2E8      0.058367
     59 H29        -5.5330   14.4520    0.6920 hc        1 2E8      0.058367
     60 HAC3       -5.9270    5.4130    4.4470 hn        1 2E8      0.477800
@<TRIPOS>BOND
     1    1    2 1   
     2    1    7 1   
     3    1   32 1   
     4    1   33 1   
     5    2    3 1   
     6    2   34 1   
     7    2   35 1   
     8    3    4 1   
     9    3    5 1   
    10    4   36 1   
    11    4   37 1   
    12    4   38 1   
    13    5    6 1   
    14    5   39 1   
    15    5   40 1   
    16    6    7 1   
    17    6   41 1   
    18    6   42 1   
    19    7    8 1   
    20    7   43 1   
    21    8    9 1   
    22    8   44 1   
    23    8   45 1   
    24    9   10 1   
    25    9   11 1   
    26   10   18 2   
    27   11   12 ar  
    28   11   17 ar  
    29   12   13 ar  
    30   13   14 ar  
    31   13   46 1   
    32   14   15 ar  
    33   15   16 1   
    34   15   17 ar  
    35   16   47 1   
    36   16   48 1   
    37   16   60 1   
    38   17   18 1   
    39   18   19 1   
    40   19   20 ar  
    41   19   21 ar  
    42   20   25 ar  
    43   20   49 1   
    44   21   22 ar  
    45   21   50 1   
    46   22   23 ar  
    47   22   51 1   
    48   23   24 ar  
    49   23   25 ar  
    50   24   28 ar  
    51   24   52 1   
    52   25   26 ar  
    53   26   27 ar  
    54   26   53 1   
    55   27   28 ar  
    56   27   54 1   
    57   28   29 1   
    58   29   30 1   
    59   30   31 1   
    60   30   55 1   
    61   30   56 1   
    62   31   57 1   
    63   31   58 1   
    64   31   59 1   
@<TRIPOS>SUBSTRUCTURE
     1 2E8         1 TEMP              0 ****  ****    0 ROOT
