@<TRIPOS>MOLECULE
2E8
   59    63     1     0     0
SMALL
bcc


@<TRIPOS>ATOM
      1 CAL        -0.0180    0.1830    0.0270 c3        1 2E8     -0.076400
      2 CAN         1.4930    0.2760   -0.1760 c3        1 2E8      0.170800
      3 NBD         2.2360    0.3950    1.0710 n3        1 2E8     -0.732600
      4 CAB         3.6620    0.4740    0.8530 c3        1 2E8      0.158100
      5 CAO         1.7460    1.4720    1.9220 c3        1 2E8      0.170800
      6 CAM         0.2410    1.4100    2.1710 c3        1 2E8     -0.076400
      7 CBC        -0.5230    1.3520    0.8600 c3        1 2E8     -0.086700
      8 CAP        -2.0290    1.1740    1.0910 c3        1 2E8      0.064300
      9 NBE        -2.7070    2.3300    1.6510 na        1 2E8      0.002200
     10 NAS        -2.8590    3.4950    0.9880 nc        1 2E8     -0.504100
     11 C4         -3.1000    2.4620    2.9990 ca        1 2E8      0.471800
     12 N3         -3.1100    1.5440    4.0150 nb        1 2E8     -0.739000
     13 C2         -3.6270    2.0400    5.1610 ca        1 2E8      0.693900
     14 N1         -4.1270    3.2760    5.4340 nb        1 2E8     -0.799000
     15 C6         -4.1080    4.2020    4.4170 ca        1 2E8      0.756200
     16 NAC        -4.5510    5.4860    4.6380 nh        1 2E8     -0.953500
     17 C5         -3.5830    3.8260    3.1420 ca        1 2E8     -0.496500
     18 CAX        -3.3930    4.4170    1.8300 cd        1 2E8      0.424500
     19 CAV        -3.7210    5.7810    1.4370 ca        1 2E8     -0.112900
     20 CAJ        -3.1780    6.8590    2.1040 ca        1 2E8     -0.099000
     21 CAE        -4.6010    5.9940    0.3380 ca        1 2E8     -0.095000
     22 CAG        -4.9320    7.2670   -0.0490 ca        1 2E8     -0.129000
     23 CAY        -4.3970    8.3970    0.6330 ca        1 2E8      0.002000
     24 CAI        -4.7300    9.7180    0.2460 ca        1 2E8     -0.164000
     25 CAZ        -3.5080    8.1860    1.7190 ca        1 2E8     -0.076000
     26 CAF        -2.9630    9.3110    2.3930 ca        1 2E8     -0.082000
     27 CAD        -3.2870   10.5900    2.0140 ca        1 2E8     -0.186000
     28 CAU        -4.1820   10.7940    0.9280 ca        1 2E8      0.133100
     29 OAT        -4.5760   12.0380    0.4780 os        1 2E8     -0.330900
     30 CAK        -3.9730   13.1670    1.1240 c3        1 2E8      0.129400
     31 CAA        -4.5250   14.3870    0.4240 c3        1 2E8     -0.100100
     32 H1         -0.5100    0.1840   -0.9790 hc        1 2E8      0.052700
     33 H2         -0.2750   -0.7820    0.5360 hc        1 2E8      0.052700
     34 H3          1.8450   -0.6640   -0.6890 h1        1 2E8      0.031200
     35 H4          1.7060    1.1430   -0.8690 h1        1 2E8      0.031200
     36 H6          3.9780    1.3950    0.2890 h1        1 2E8      0.031033
     37 H7          4.1800    0.4710    1.8480 h1        1 2E8      0.031033
     38 H8          3.9900   -0.4280    0.2730 h1        1 2E8      0.031033
     39 H9          2.2780    1.3850    2.9120 h1        1 2E8      0.031200
     40 H10         1.9960    2.4860    1.4880 h1        1 2E8      0.031200
     41 H11        -0.0050    0.5090    2.7920 hc        1 2E8      0.052700
     42 H12        -0.0570    2.3190    2.7530 hc        1 2E8      0.052700
     43 H13        -0.3400    2.3040    0.2870 hc        1 2E8      0.068700
     44 H14        -2.5180    0.9400    0.1010 h1        1 2E8      0.075700
     45 H15        -2.2020    0.3110    1.7940 h1        1 2E8      0.075700
     46 H16        -3.6560    1.3300    6.0170 h5        1 2E8      0.052100
     47 H17        -4.7080    6.0580    3.8420 hn        1 2E8      0.439300
     48 H18        -5.0440    5.6940    5.4730 hn        1 2E8      0.439300
     49 H19        -2.4740    6.7090    2.9370 ha        1 2E8      0.145000
     50 H20        -5.0050    5.1190   -0.1940 ha        1 2E8      0.147000
     51 H21        -5.6130    7.4380   -0.8960 ha        1 2E8      0.139000
     52 H22        -5.4190    9.8870   -0.5940 ha        1 2E8      0.152000
     53 H23        -2.2690    9.1390    3.2310 ha        1 2E8      0.137000
     54 H24        -2.8570   11.4500    2.5460 ha        1 2E8      0.140000
     55 H25        -4.2480   13.1640    2.2110 h1        1 2E8      0.038200
     56 H26        -2.8570   13.1080    1.0170 h1        1 2E8      0.038200
     57 H27        -5.6370   14.4200    0.5150 hc        1 2E8      0.050033
     58 H28        -4.0910   15.3030    0.8910 hc        1 2E8      0.050033
     59 H29        -4.2610   14.3680   -0.6600 hc        1 2E8      0.050033
@<TRIPOS>BOND
     1    1    2 1   
     2    1    7 1   
     3    1   32 1   
     4    1   33 1   
     5    2    3 1   
     6    2   34 1   
     7    2   35 1   
     8    3    4 1   
     9    3    5 1   
    10    4   36 1   
    11    4   37 1   
    12    4   38 1   
    13    5    6 1   
    14    5   39 1   
    15    5   40 1   
    16    6    7 1   
    17    6   41 1   
    18    6   42 1   
    19    7    8 1   
    20    7   43 1   
    21    8    9 1   
    22    8   44 1   
    23    8   45 1   
    24    9   10 1   
    25    9   11 1   
    26   10   18 2   
    27   11   12 ar  
    28   11   17 ar  
    29   12   13 ar  
    30   13   14 ar  
    31   13   46 1   
    32   14   15 ar  
    33   15   16 1   
    34   15   17 ar  
    35   16   47 1   
    36   16   48 1   
    37   17   18 1   
    38   18   19 1   
    39   19   20 ar  
    40   19   21 ar  
    41   20   25 ar  
    42   20   49 1   
    43   21   22 ar  
    44   21   50 1   
    45   22   23 ar  
    46   22   51 1   
    47   23   24 ar  
    48   23   25 ar  
    49   24   28 ar  
    50   24   52 1   
    51   25   26 ar  
    52   26   27 ar  
    53   26   53 1   
    54   27   28 ar  
    55   27   54 1   
    56   28   29 1   
    57   29   30 1   
    58   30   31 1   
    59   30   55 1   
    60   30   56 1   
    61   31   57 1   
    62   31   58 1   
    63   31   59 1   
@<TRIPOS>SUBSTRUCTURE
     1 2E8         1 TEMP              0 ****  ****    0 ROOT
