@<TRIPOS>MOLECULE
2E9
   50    51     1     0     0
SMALL
bcc


@<TRIPOS>ATOM
      1 O1         -0.9940    1.0890   -0.8450 o         1 2E9     -0.287100
      2 C13        -0.0110    0.5990   -0.3180 c         1 2E9      0.471100
      3 N2          0.1460    0.5830    1.1780 n4        1 2E9     -0.435200
      4 C14         1.0510   -0.4060    1.6850 cc        1 2E9     -0.250400
      5 C17         2.4640   -0.1880    1.8580 cc        1 2E9     -0.137000
      6 C16         3.0120   -1.2490    2.5510 cd        1 2E9     -0.203100
      7 S           1.8920   -2.3890    2.9720 ss        1 2E9      0.530200
      8 C15         0.6490   -1.6280    2.2720 cd        1 2E9     -0.221100
      9 N1          1.0670   -0.0260   -1.1580 n4        1 2E9     -0.641800
     10 C12         1.2170    0.6960   -2.4770 c3        1 2E9      0.111800
     11 C11         2.0740   -0.0740   -3.4810 c3        1 2E9     -0.135400
     12 C10         2.1160    0.7370   -4.7830 c3        1 2E9      0.104800
     13 N           2.8940    0.0910   -5.8680 n4        1 2E9     -0.778000
     14 C9          2.8970    0.9340   -7.1370 c3        1 2E9      0.213100
     15 C5          3.7170    0.2780   -8.1810 ca        1 2E9     -0.234300
     16 C4          3.2910   -0.9400   -8.7490 ca        1 2E9      0.146100
     17 O           2.1960   -1.5270   -8.1490 oh        1 2E9     -0.580100
     18 C6          4.8690    0.9040   -8.6750 ca        1 2E9     -0.069000
     19 C7          5.5620    0.3320   -9.7420 ca        1 2E9     -0.000600
     20 CL          6.9420    1.0900  -10.3470 cl        1 2E9     -0.001400
     21 C8          5.1150   -0.8670  -10.3210 ca        1 2E9     -0.030000
     22 C3          3.9820   -1.5190   -9.8300 ca        1 2E9     -0.105300
     23 C2          3.5320   -2.8050  -10.4390 c3        1 2E9     -0.025900
     24 C1          2.1810   -2.7030  -11.0520 c2        1 2E9     -0.212200
     25 C           1.2170   -3.6010  -10.8550 c2        1 2E9     -0.196000
     26 H1         -0.8060    0.4240    1.5790 hn        1 2E9      0.524300
     27 H2          3.0110    0.7080    1.5500 ha        1 2E9      0.185000
     28 H3          4.0760   -1.3130    2.8280 h4        1 2E9      0.245000
     29 H4         -0.3840   -2.0040    2.2970 h4        1 2E9      0.224000
     30 H5          1.9690   -0.0360   -0.6490 hn        1 2E9      0.496300
     31 H6          1.6780    1.7040   -2.2570 hx        1 2E9      0.139700
     32 H7          0.1780    0.8540   -2.9030 hx        1 2E9      0.139700
     33 H8          1.6340   -1.0900   -3.6780 hc        1 2E9      0.096200
     34 H9          3.1160   -0.2160   -3.0840 hc        1 2E9      0.096200
     35 H10         2.5750    1.7510   -4.5850 hx        1 2E9      0.120200
     36 H11         1.0640    0.8960   -5.1670 hx        1 2E9      0.120200
     37 H12         2.4870   -0.8270   -6.1110 hn        1 2E9      0.466300
     38 H14         3.2940    1.9540   -6.8740 hx        1 2E9      0.111700
     39 H15         1.8210    1.0100   -7.4730 hx        1 2E9      0.111700
     40 H16         1.8020   -2.1650   -8.7760 ho        1 2E9      0.481000
     41 H17         5.2120    1.8580   -8.2430 ha        1 2E9      0.160000
     42 H18         5.6680   -1.3010  -11.1760 ha        1 2E9      0.191000
     43 H19         4.2580   -3.1180  -11.2430 hc        1 2E9      0.080700
     44 H20         3.5560   -3.6090   -9.6510 hc        1 2E9      0.080700
     45 H21         2.0410   -1.8510  -11.7390 ha        1 2E9      0.147000
     46 H22         1.3390   -4.4800  -10.2070 ha        1 2E9      0.130500
     47 H23         0.2450   -3.5340  -11.3650 ha        1 2E9      0.130500
     48 H221        0.4680    1.5290    1.4710 hn        1 2E9      0.524300
     49 H121        0.7930   -1.0090   -1.3350 hn        1 2E9      0.496300
     50 HN3         3.8660   -0.0620   -5.5750 hn        1 2E9      0.466300
@<TRIPOS>BOND
     1    1    2 2   
     2    2    3 1   
     3    2    9 1   
     4    3    4 1   
     5    3   26 1   
     6    3   48 1   
     7    4    5 1   
     8    4    8 2   
     9    5    6 2   
    10    5   27 1   
    11    6    7 1   
    12    6   28 1   
    13    7    8 1   
    14    8   29 1   
    15    9   10 1   
    16    9   30 1   
    17    9   49 1   
    18   10   11 1   
    19   10   31 1   
    20   10   32 1   
    21   11   12 1   
    22   11   33 1   
    23   11   34 1   
    24   12   13 1   
    25   12   35 1   
    26   12   36 1   
    27   13   14 1   
    28   13   37 1   
    29   13   50 1   
    30   14   15 1   
    31   14   38 1   
    32   14   39 1   
    33   15   16 ar  
    34   15   18 ar  
    35   16   17 1   
    36   16   22 ar  
    37   17   40 1   
    38   18   19 ar  
    39   18   41 1   
    40   19   20 1   
    41   19   21 ar  
    42   21   22 ar  
    43   21   42 1   
    44   22   23 1   
    45   23   24 1   
    46   23   43 1   
    47   23   44 1   
    48   24   25 2   
    49   24   45 1   
    50   25   46 1   
    51   25   47 1   
@<TRIPOS>SUBSTRUCTURE
     1 2E9         1 TEMP              0 ****  ****    0 ROOT
