@<TRIPOS>MOLECULE
2E9
   49    50     1     0     0
SMALL
bcc


@<TRIPOS>ATOM
      1 O1          0.9150    1.4390   -0.0500 o         1 2E9     -0.468100
      2 C13         1.5000    0.3710    0.1280 c         1 2E9      0.629100
      3 N2          1.3050   -0.6270    1.0440 n         1 2E9     -0.326100
      4 C14         0.6390   -0.3420    2.2570 cc        1 2E9     -0.096400
      5 C17        -0.5070    0.5150    2.3870 cc        1 2E9     -0.122000
      6 C16        -0.9600    0.5090    3.6910 cd        1 2E9     -0.192100
      7 S          -0.0500   -0.4650    4.6720 ss        1 2E9      0.290200
      8 C15         0.9840   -0.9240    3.4860 cd        1 2E9     -0.231100
      9 N1          2.5130    0.0730   -1.0440 n4        1 2E9     -0.686800
     10 C12         1.7710   -0.0470   -2.3270 c3        1 2E9      0.104800
     11 C11         2.6720   -0.0130   -3.5610 c3        1 2E9     -0.134400
     12 C10         1.7800   -0.0500   -4.8020 c3        1 2E9      0.104800
     13 N           2.5430    0.0090   -6.0750 n4        1 2E9     -0.772000
     14 C9          1.6300   -0.0500   -7.2800 c3        1 2E9      0.203100
     15 C5          2.4140    0.0560   -8.5370 ca        1 2E9     -0.220300
     16 C4          3.3110   -0.9680   -8.8980 ca        1 2E9      0.139100
     17 O           3.5040   -1.9520   -7.9520 oh        1 2E9     -0.569100
     18 C6          2.2070    1.1300   -9.4100 ca        1 2E9     -0.068000
     19 C7          2.8750    1.1640  -10.6350 ca        1 2E9     -0.002600
     20 CL          2.6190    2.4560  -11.6920 cl        1 2E9     -0.016400
     21 C8          3.7530    0.1310  -10.9960 ca        1 2E9     -0.036000
     22 C3          3.9860   -0.9420  -10.1330 ca        1 2E9     -0.107300
     23 C2          4.9310   -2.0270  -10.5220 c3        1 2E9     -0.017900
     24 C1          4.2320   -3.3010  -10.8420 c2        1 2E9     -0.226200
     25 C           4.7350   -4.2180  -11.6660 c2        1 2E9     -0.156000
     26 H1          1.9500   -1.3910    1.0970 hn        1 2E9      0.341500
     27 H2         -0.9390    1.0910    1.5640 ha        1 2E9      0.179000
     28 H3         -1.8230    1.0810    4.0440 h4        1 2E9      0.208000
     29 H4          1.8190   -1.6080    3.6520 h4        1 2E9      0.189000
     30 H5          3.1390    0.8860   -1.0840 hn        1 2E9      0.454300
     31 H6          1.1880   -1.0140   -2.2980 hx        1 2E9      0.125700
     32 H7          1.0330    0.8120   -2.3690 hx        1 2E9      0.125700
     33 H8          3.3700   -0.8920   -3.5580 hc        1 2E9      0.086200
     34 H9          3.2950    0.9230   -3.5610 hc        1 2E9      0.086200
     35 H10         1.0650    0.8250   -4.7860 hx        1 2E9      0.116200
     36 H11         1.1720   -1.0020   -4.8080 hx        1 2E9      0.116200
     37 H12         3.1980   -0.7870   -6.1360 hn        1 2E9      0.463300
     38 H14         0.8810    0.7870   -7.1890 hx        1 2E9      0.111200
     39 H15         1.0970   -1.0450   -7.2370 hx        1 2E9      0.111200
     40 H16         3.9380   -2.7140   -8.3750 ho        1 2E9      0.474000
     41 H17         1.5040    1.9360   -9.1420 ha        1 2E9      0.161000
     42 H18         4.2660    0.1650  -11.9750 ha        1 2E9      0.184000
     43 H19         5.6580   -2.2030   -9.6780 hc        1 2E9      0.072200
     44 H20         5.5440   -1.6950  -11.4050 hc        1 2E9      0.072200
     45 H21         3.2500   -3.4450  -10.3620 ha        1 2E9      0.115000
     46 H22         5.7000   -4.0970  -12.1790 ha        1 2E9      0.133000
     47 H23         4.2070   -5.1570  -11.8860 ha        1 2E9      0.133000
     48 H121        3.0750   -0.7620   -0.8800 hn        1 2E9      0.454300
     49 HN3         3.0950    0.8740   -6.1180 hn        1 2E9      0.463300
@<TRIPOS>BOND
     1    1    2 2   
     2    2    3 1   
     3    2    9 1   
     4    3    4 1   
     5    3   26 1   
     6    4    5 1   
     7    4    8 2   
     8    5    6 2   
     9    5   27 1   
    10    6    7 1   
    11    6   28 1   
    12    7    8 1   
    13    8   29 1   
    14    9   10 1   
    15    9   30 1   
    16    9   48 1   
    17   10   11 1   
    18   10   31 1   
    19   10   32 1   
    20   11   12 1   
    21   11   33 1   
    22   11   34 1   
    23   12   13 1   
    24   12   35 1   
    25   12   36 1   
    26   13   14 1   
    27   13   37 1   
    28   13   49 1   
    29   14   15 1   
    30   14   38 1   
    31   14   39 1   
    32   15   16 ar  
    33   15   18 ar  
    34   16   17 1   
    35   16   22 ar  
    36   17   40 1   
    37   18   19 ar  
    38   18   41 1   
    39   19   20 1   
    40   19   21 ar  
    41   21   22 ar  
    42   21   42 1   
    43   22   23 1   
    44   23   24 1   
    45   23   43 1   
    46   23   44 1   
    47   24   25 2   
    48   24   45 1   
    49   25   46 1   
    50   25   47 1   
@<TRIPOS>SUBSTRUCTURE
     1 2E9         1 TEMP              0 ****  ****    0 ROOT
