@<TRIPOS>MOLECULE
2E9
   49    50     1     0     0
SMALL
bcc


@<TRIPOS>ATOM
      1 O1          0.9340    1.4440   -0.0470 o         1 2E9     -0.468100
      2 C13         1.5130    0.3720    0.1310 c         1 2E9      0.629100
      3 N2          1.3130   -0.6240    1.0470 ns        1 2E9     -0.326100
      4 C14         0.6510   -0.3350    2.2610 cc        1 2E9     -0.096400
      5 C17        -0.4900    0.5280    2.3910 cc        1 2E9     -0.122000
      6 C16        -0.9420    0.5260    3.6960 cd        1 2E9     -0.192100
      7 S          -0.0360   -0.4530    4.6770 ss        1 2E9      0.290200
      8 C15         0.9950   -0.9180    3.4900 cd        1 2E9     -0.231100
      9 N1          2.5230    0.0680   -1.0430 ny        1 2E9     -0.686800
     10 C12         1.7780   -0.0490   -2.3250 c3        1 2E9      0.104800
     11 C11         2.6770   -0.0190   -3.5600 c3        1 2E9     -0.134400
     12 C10         1.7830   -0.0510   -4.8000 c3        1 2E9      0.104800
     13 N           2.5440    0.0050   -6.0740 ny        1 2E9     -0.772000
     14 C9          1.6290   -0.0470   -7.2780 c3        1 2E9      0.203100
     15 C5          2.4110    0.0570   -8.5360 ca        1 2E9     -0.220300
     16 C4          3.3030   -0.9710   -8.9000 ca        1 2E9      0.139100
     17 O           3.4930   -1.9580   -7.9550 oh        1 2E9     -0.569100
     18 C6          2.2080    1.1330   -9.4060 ca        1 2E9     -0.068000
     19 C7          2.8730    1.1660  -10.6330 ca        1 2E9     -0.002600
     20 Cl          2.6220    2.4610  -11.6870 cl        1 2E9     -0.016400
     21 C8          3.7460    0.1290  -10.9970 ca        1 2E9     -0.036000
     22 C3          3.9750   -0.9460  -10.1360 ca        1 2E9     -0.107300
     23 C2          4.9150   -2.0350  -10.5280 c3        1 2E9     -0.017900
     24 C1          4.2100   -3.3050  -10.8500 c2        1 2E9     -0.226200
     25 C           4.7060   -4.2210  -11.6780 c2        1 2E9     -0.156000
     26 H1          1.9540   -1.3920    1.1000 hn        1 2E9      0.341500
     27 H2         -0.9200    1.1060    1.5690 ha        1 2E9      0.179000
     28 H3         -1.8010    1.1030    4.0500 h4        1 2E9      0.208000
     29 H4          1.8260   -1.6060    3.6550 h4        1 2E9      0.189000
     30 H5          3.0800   -0.7710   -0.8800 hn        1 2E9      0.454300
     31 H6          1.1900   -1.0120   -2.2950 hx        1 2E9      0.125700
     32 H7          1.0450    0.8150   -2.3660 hx        1 2E9      0.125700
     33 H8          3.3060    0.9130   -3.5610 hc        1 2E9      0.086200
     34 H9          3.3710   -0.9030   -3.5590 hc        1 2E9      0.086200
     35 H10         1.0720    0.8280   -4.7820 hx        1 2E9      0.116200
     36 H11         1.1700   -1.0000   -4.8060 hx        1 2E9      0.116200
     37 H12         3.1010    0.8670   -6.1170 hn        1 2E9      0.463300
     38 H14         1.0920   -1.0400   -7.2350 hx        1 2E9      0.111200
     39 H15         0.8840    0.7930   -7.1840 hx        1 2E9      0.111200
     40 H16         3.9220   -2.7210   -8.3810 ho        1 2E9      0.474000
     41 H17         1.5090    1.9420   -9.1360 ha        1 2E9      0.161000
     42 H18         4.2580    0.1620  -11.9770 ha        1 2E9      0.184000
     43 H19         5.6430   -2.2160   -9.6860 hc        1 2E9      0.072200
     44 H20         5.5280   -1.7040  -11.4120 hc        1 2E9      0.072200
     45 H21         3.2290   -3.4460  -10.3670 ha        1 2E9      0.115000
     46 H22         5.6700   -4.1030  -12.1940 ha        1 2E9      0.133000
     47 H23         4.1730   -5.1580  -11.8990 ha        1 2E9      0.133000
     48 H121        3.1540    0.8770   -1.0840 hn        1 2E9      0.454300
     49 HN3         3.1950   -0.7940   -6.1370 hn        1 2E9      0.463300
@<TRIPOS>BOND
     1    1    2 2   
     2    2    3 1   
     3    2    9 1   
     4    3    4 1   
     5    3   26 1   
     6    4    5 1   
     7    4    8 2   
     8    5    6 2   
     9    5   27 1   
    10    6    7 1   
    11    6   28 1   
    12    7    8 1   
    13    8   29 1   
    14    9   10 1   
    15    9   30 1   
    16    9   48 1   
    17   10   11 1   
    18   10   31 1   
    19   10   32 1   
    20   11   12 1   
    21   11   33 1   
    22   11   34 1   
    23   12   13 1   
    24   12   35 1   
    25   12   36 1   
    26   13   14 1   
    27   13   37 1   
    28   13   49 1   
    29   14   15 1   
    30   14   38 1   
    31   14   39 1   
    32   15   16 ar  
    33   15   18 ar  
    34   16   17 1   
    35   16   22 ar  
    36   17   40 1   
    37   18   19 ar  
    38   18   41 1   
    39   19   20 1   
    40   19   21 ar  
    41   21   22 ar  
    42   21   42 1   
    43   22   23 1   
    44   23   24 1   
    45   23   43 1   
    46   23   44 1   
    47   24   25 2   
    48   24   45 1   
    49   25   46 1   
    50   25   47 1   
@<TRIPOS>SUBSTRUCTURE
     1 2E9         1 TEMP              0 ****  ****    0 ROOT
