@<TRIPOS>MOLECULE
2EA
   53    57     1     0     0
SMALL
bcc


@<TRIPOS>ATOM
      1 C1         -0.1350    0.1560   -0.0780 cp        1 2EA     -0.049000
      2 C2          1.2450    0.1040   -0.1310 ca        1 2EA     -0.095000
      3 C3          1.9920   -0.3250    0.9970 ca        1 2EA     -0.013000
      4 C4          1.3060   -0.6930    2.1830 ca        1 2EA     -0.154300
      5 C5         -0.1080   -0.6270    2.2210 ca        1 2EA     -0.086000
      6 C6         -0.8130   -0.2150    1.1170 ca        1 2EA     -0.131000
      7 C7          3.4130   -0.4010    0.9920 ca        1 2EA     -0.230300
      8 C8          4.0630   -0.8290    2.1360 ca        1 2EA      0.397200
      9 N1          3.4160   -1.1880    3.2900 nb        1 2EA     -0.646000
     10 C9          2.0950   -1.1200    3.3040 ca        1 2EA      0.425200
     11 C10        -5.3810   -3.5600  -10.7730 ca        1 2EA     -0.114000
     12 C11        -5.1600   -4.5190   -9.7720 ca        1 2EA     -0.062000
     13 C12        -4.8950   -4.0660   -8.4860 ca        1 2EA      0.074400
     14 C13        -4.8490   -2.6570   -8.2030 ca        1 2EA     -0.142300
     15 C14        -5.0640   -1.7300   -9.1980 ca        1 2EA     -0.102000
     16 C15        -5.3340   -2.1970  -10.4960 ca        1 2EA     -0.111000
     17 N2         -4.6240   -4.8370   -7.3060 ne        1 2EA     -0.468100
     18 C16        -4.4160   -3.9950   -6.3310 c2        1 2EA      0.350200
     19 C17        -4.5140   -2.5110   -6.7370 c3        1 2EA     -0.115700
     20 C18        -2.2720    1.5160   -3.4570 ca        1 2EA      0.360200
     21 N3         -1.1210    2.1250   -3.1180 nb        1 2EA     -0.623000
     22 C19        -0.4630    1.6750   -2.0360 ca        1 2EA      0.407200
     23 C20        -0.9080    0.5930   -1.2340 cp        1 2EA     -0.106300
     24 C21        -2.1030   -0.0440   -1.5920 ca        1 2EA     -0.093000
     25 C22        -2.7890    0.4330   -2.7170 ca        1 2EA     -0.042200
     26 O1         -4.0180   -0.1530   -3.0070 os        1 2EA     -0.375900
     27 C24        -4.2800   -0.3180   -4.4020 c3        1 2EA      0.105400
     28 C23        -5.2090   -1.5420   -4.5250 c3        1 2EA      0.113500
     29 C25        -5.6000   -1.7690   -5.9870 c3        1 2EA     -0.088400
     30 N4         -6.4220   -1.3670   -3.6490 nz        1 2EA     -0.838600
     31 H2          1.7880    0.3850   -1.0470 ha        1 2EA      0.142000
     32 H5         -0.6290   -0.9070    3.1500 ha        1 2EA      0.145000
     33 H6         -1.9110   -0.1520    1.1480 ha        1 2EA      0.132000
     34 H7          3.9730   -0.1210    0.0890 ha        1 2EA      0.149000
     35 H8          5.1650   -0.9040    2.1830 h4        1 2EA      0.034100
     36 H9          1.5900   -1.4120    4.2440 h4        1 2EA      0.030100
     37 H14        -5.0210   -0.6500   -8.9990 ha        1 2EA      0.135000
     38 H15        -5.5050   -1.4680  -11.3030 ha        1 2EA      0.150000
     39 H16        -4.1550   -4.3120   -5.3170 h4        1 2EA      0.036800
     40 H17        -3.5160   -2.0150   -6.6070 hc        1 2EA      0.095700
     41 H18        -2.7900    1.9120   -4.3470 h4        1 2EA      0.026100
     42 H19         0.4720    2.2110   -1.7840 h4        1 2EA      0.049100
     43 H21        -2.4960   -0.8880   -1.0060 ha        1 2EA      0.156000
     44 H241       -3.3410   -0.5170   -4.9820 h1        1 2EA      0.086700
     45 H242       -4.7750    0.6130   -4.7870 h1        1 2EA      0.086700
     46 H23        -4.6660   -2.4520   -4.1220 hx        1 2EA      0.122700
     47 H251       -5.7820   -0.7810   -6.4900 hc        1 2EA      0.079200
     48 H252       -6.5510   -2.3650   -6.0590 hc        1 2EA      0.079200
     49 HN41       -6.9920   -0.5890   -3.9910 hn        1 2EA      0.464467
     50 HN42       -6.9830   -2.2230   -3.6510 hn        1 2EA      0.464467
     51 H10        -5.5910   -3.9010  -11.8000 ha        1 2EA      0.154000
     52 H43        -6.1100   -1.1540   -2.6920 hn        1 2EA      0.464467
     53 H11        -5.1920   -5.5940  -10.0050 ha        1 2EA      0.166000
@<TRIPOS>BOND
     1    1    2 ar  
     2    1    6 ar  
     3    1   23 1   
     4    2    3 ar  
     5    2   31 1   
     6    3    4 ar  
     7    3    7 ar  
     8    4    5 ar  
     9    4   10 ar  
    10    5    6 ar  
    11    5   32 1   
    12    6   33 1   
    13    7    8 ar  
    14    7   34 1   
    15    8    9 ar  
    16    8   35 1   
    17    9   10 ar  
    18   10   36 1   
    19   11   12 ar  
    20   11   16 ar  
    21   11   51 1   
    22   12   13 ar  
    23   12   53 1   
    24   13   14 ar  
    25   13   17 1   
    26   14   15 ar  
    27   14   19 1   
    28   15   16 ar  
    29   15   37 1   
    30   16   38 1   
    31   17   18 2   
    32   18   19 1   
    33   18   39 1   
    34   19   29 1   
    35   19   40 1   
    36   20   21 ar  
    37   20   25 ar  
    38   20   41 1   
    39   21   22 ar  
    40   22   23 ar  
    41   22   42 1   
    42   23   24 ar  
    43   24   25 ar  
    44   24   43 1   
    45   25   26 1   
    46   26   27 1   
    47   27   28 1   
    48   27   44 1   
    49   27   45 1   
    50   28   29 1   
    51   28   30 1   
    52   28   46 1   
    53   29   47 1   
    54   29   48 1   
    55   30   49 1   
    56   30   50 1   
    57   30   52 1   
@<TRIPOS>SUBSTRUCTURE
     1 2EA         1 TEMP              0 ****  ****    0 ROOT
