@<TRIPOS>MOLECULE
2EA
   53    57     1     0     0
SMALL
bcc


@<TRIPOS>ATOM
      1 C1         -0.1390    0.1640   -0.0750 cp        1 2EA     -0.049000
      2 C2          1.2410    0.1100   -0.1290 ca        1 2EA     -0.095000
      3 C3          1.9870   -0.3210    0.9990 ca        1 2EA     -0.013000
      4 C4          1.3000   -0.6890    2.1840 ca        1 2EA     -0.154300
      5 C5         -0.1140   -0.6210    2.2220 ca        1 2EA     -0.086000
      6 C6         -0.8180   -0.2080    1.1190 ca        1 2EA     -0.131000
      7 C7          3.4080   -0.3990    0.9940 ca        1 2EA     -0.230300
      8 C8          4.0570   -0.8280    2.1390 ca        1 2EA      0.397200
      9 N1          3.4090   -1.1880    3.2920 nb        1 2EA     -0.646000
     10 C9          2.0890   -1.1180    3.3060 ca        1 2EA      0.425200
     11 C10        -5.3730   -3.5560  -10.7700 ca        1 2EA     -0.114000
     12 C11        -5.1550   -4.5130   -9.7670 ca        1 2EA     -0.062000
     13 C12        -4.8920   -4.0590   -8.4810 ca        1 2EA      0.074400
     14 C13        -4.8460   -2.6490   -8.2000 ca        1 2EA     -0.142300
     15 C14        -5.0580   -1.7230   -9.1980 ca        1 2EA     -0.102000
     16 C15        -5.3250   -2.1930  -10.4950 ca        1 2EA     -0.111000
     17 N2         -4.6240   -4.8270   -7.2990 ne        1 2EA     -0.468100
     18 C16        -4.4170   -3.9840   -6.3250 c2        1 2EA      0.350200
     19 C17        -4.5130   -2.5010   -6.7340 c3        1 2EA     -0.115700
     20 C18        -2.2730    1.5290   -3.4540 ca        1 2EA      0.360200
     21 N3         -1.1210    2.1360   -3.1150 nb        1 2EA     -0.623000
     22 C19        -0.4650    1.6850   -2.0330 ca        1 2EA      0.407200
     23 C20        -0.9110    0.6020   -1.2320 cp        1 2EA     -0.106300
     24 C21        -2.1070   -0.0330   -1.5910 ca        1 2EA     -0.093000
     25 C22        -2.7910    0.4470   -2.7160 ca        1 2EA     -0.043200
     26 O1         -4.0210   -0.1380   -3.0070 os        1 2EA     -0.375900
     27 C24        -4.2810   -0.3050   -4.4020 c3        1 2EA      0.105400
     28 C23        -5.2110   -1.5270   -4.5250 c3        1 2EA      0.113500
     29 C25        -5.6000   -1.7560   -5.9880 c3        1 2EA     -0.088400
     30 N4         -6.4260   -1.3490   -3.6520 n4        1 2EA     -0.838600
     31 H2          1.7840    0.3910   -1.0440 ha        1 2EA      0.142000
     32 H5         -0.6350   -0.9020    3.1510 ha        1 2EA      0.145000
     33 H6         -1.9160   -0.1430    1.1490 ha        1 2EA      0.132000
     34 H7          3.9680   -0.1190    0.0920 ha        1 2EA      0.149000
     35 H8          5.1590   -0.9050    2.1860 h4        1 2EA      0.034100
     36 H9          1.5830   -1.4100    4.2450 h4        1 2EA      0.030100
     37 H14        -5.0140   -0.6430   -9.0010 ha        1 2EA      0.135000
     38 H15        -5.4950   -1.4660  -11.3040 ha        1 2EA      0.150000
     39 H16        -4.1580   -4.3000   -5.3110 h4        1 2EA      0.036800
     40 H17        -3.5150   -2.0060   -6.6030 hc        1 2EA      0.095700
     41 H18        -2.7900    1.9260   -4.3440 h4        1 2EA      0.027100
     42 H19         0.4710    2.2200   -1.7800 h4        1 2EA      0.049100
     43 H21        -2.5010   -0.8760   -1.0060 ha        1 2EA      0.156000
     44 H241       -4.7740    0.6270   -4.7890 h1        1 2EA      0.086700
     45 H242       -3.3410   -0.5060   -4.9800 h1        1 2EA      0.086700
     46 H23        -4.6700   -2.4370   -4.1200 hx        1 2EA      0.122700
     47 H251       -6.5510   -2.3520   -6.0600 hc        1 2EA      0.079200
     48 H252       -5.7790   -0.7690   -6.4930 hc        1 2EA      0.079200
     49 HN41       -6.9950   -0.5710   -3.9970 hn        1 2EA      0.464467
     50 HN42       -6.1150   -1.1350   -2.6950 hn        1 2EA      0.464467
     51 H10        -5.5810   -3.8980  -11.7960 ha        1 2EA      0.154000
     52 H43        -6.9880   -2.2040   -3.6530 hn        1 2EA      0.464467
     53 H11        -5.1870   -5.5890   -9.9980 ha        1 2EA      0.166000
@<TRIPOS>BOND
     1    1    2 ar  
     2    1    6 ar  
     3    1   23 1   
     4    2    3 ar  
     5    2   31 1   
     6    3    4 ar  
     7    3    7 ar  
     8    4    5 ar  
     9    4   10 ar  
    10    5    6 ar  
    11    5   32 1   
    12    6   33 1   
    13    7    8 ar  
    14    7   34 1   
    15    8    9 ar  
    16    8   35 1   
    17    9   10 ar  
    18   10   36 1   
    19   11   12 ar  
    20   11   16 ar  
    21   11   51 1   
    22   12   13 ar  
    23   12   53 1   
    24   13   14 ar  
    25   13   17 1   
    26   14   15 ar  
    27   14   19 1   
    28   15   16 ar  
    29   15   37 1   
    30   16   38 1   
    31   17   18 2   
    32   18   19 1   
    33   18   39 1   
    34   19   29 1   
    35   19   40 1   
    36   20   21 ar  
    37   20   25 ar  
    38   20   41 1   
    39   21   22 ar  
    40   22   23 ar  
    41   22   42 1   
    42   23   24 ar  
    43   24   25 ar  
    44   24   43 1   
    45   25   26 1   
    46   26   27 1   
    47   27   28 1   
    48   27   44 1   
    49   27   45 1   
    50   28   29 1   
    51   28   30 1   
    52   28   46 1   
    53   29   47 1   
    54   29   48 1   
    55   30   49 1   
    56   30   50 1   
    57   30   52 1   
@<TRIPOS>SUBSTRUCTURE
     1 2EA         1 TEMP              0 ****  ****    0 ROOT
