@<TRIPOS>MOLECULE
2EA
   53    57     1     0     0
SMALL
bcc


@<TRIPOS>ATOM
      1 C1         -0.1310    0.1660   -0.0840 cp        1 2EA     -0.049000
      2 C2          1.2490    0.1220   -0.1420 ca        1 2EA     -0.095000
      3 C3          2.0020   -0.3040    0.9830 ca        1 2EA     -0.013000
      4 C4          1.3220   -0.6800    2.1700 ca        1 2EA     -0.154300
      5 C5         -0.0930   -0.6230    2.2130 ca        1 2EA     -0.086000
      6 C6         -0.8030   -0.2120    1.1120 ca        1 2EA     -0.131000
      7 C7          3.4230   -0.3720    0.9730 ca        1 2EA     -0.230300
      8 C8          4.0790   -0.7990    2.1150 ca        1 2EA      0.397200
      9 N1          3.4380   -1.1650    3.2700 nb        1 2EA     -0.646000
     10 C9          2.1170   -1.1050    3.2880 ca        1 2EA      0.425200
     11 C10        -5.3880   -3.5710  -10.7640 ca        1 2EA     -0.114000
     12 C11        -5.1640   -4.5290   -9.7640 ca        1 2EA     -0.062000
     13 C12        -4.8980   -4.0750   -8.4780 ca        1 2EA      0.074400
     14 C13        -4.8550   -2.6660   -8.1950 ca        1 2EA     -0.142300
     15 C14        -5.0730   -1.7390   -9.1910 ca        1 2EA     -0.102000
     16 C15        -5.3440   -2.2080  -10.4880 ca        1 2EA     -0.111000
     17 N2         -4.6230   -4.8450   -7.2980 ne        1 2EA     -0.468100
     18 C16        -4.4160   -4.0020   -6.3240 c2        1 2EA      0.350200
     19 C17        -4.5180   -2.5190   -6.7300 c3        1 2EA     -0.115700
     20 C18        -2.2860    1.5210   -3.4540 ca        1 2EA      0.360200
     21 N3         -1.1370    2.1360   -3.1170 nb        1 2EA     -0.623000
     22 C19        -0.4740    1.6880   -2.0380 ca        1 2EA      0.407200
     23 C20        -0.9100    0.6010   -1.2370 cp        1 2EA     -0.106300
     24 C21        -2.1030   -0.0420   -1.5920 ca        1 2EA     -0.093000
     25 C22        -2.7950    0.4340   -2.7150 ca        1 2EA     -0.042200
     26 O1         -4.0220   -0.1590   -3.0020 os        1 2EA     -0.375900
     27 C24        -4.2860   -0.3240   -4.3960 c3        1 2EA      0.105400
     28 C23        -5.2120   -1.5500   -4.5180 c3        1 2EA      0.113500
     29 C25        -5.6050   -1.7790   -5.9790 c3        1 2EA     -0.088400
     30 N4         -6.4240   -1.3780   -3.6400 n4        1 2EA     -0.838600
     31 H2          1.7870    0.4090   -1.0590 ha        1 2EA      0.142000
     32 H5         -0.6090   -0.9080    3.1430 ha        1 2EA      0.145000
     33 H6         -1.9020   -0.1550    1.1460 ha        1 2EA      0.132000
     34 H7          3.9780   -0.0870    0.0700 ha        1 2EA      0.149000
     35 H8          5.1820   -0.8680    2.1580 h4        1 2EA      0.034100
     36 H9          1.6160   -1.4020    4.2290 h4        1 2EA      0.030100
     37 H14        -5.0320   -0.6590   -8.9920 ha        1 2EA      0.135000
     38 H15        -5.5180   -1.4800  -11.2960 ha        1 2EA      0.150000
     39 H16        -4.1530   -4.3180   -5.3110 h4        1 2EA      0.036800
     40 H17        -3.5210   -2.0210   -6.6020 hc        1 2EA      0.095700
     41 H18        -2.8090    1.9160   -4.3410 h4        1 2EA      0.026100
     42 H19         0.4590    2.2280   -1.7880 h4        1 2EA      0.049100
     43 H21        -2.4890   -0.8890   -1.0080 ha        1 2EA      0.156000
     44 H241       -3.3470   -0.5210   -4.9780 h1        1 2EA      0.086700
     45 H242       -4.7830    0.6060   -4.7810 h1        1 2EA      0.086700
     46 H23        -4.6660   -2.4590   -4.1160 hx        1 2EA      0.122700
     47 H251       -6.5540   -2.3770   -6.0490 hc        1 2EA      0.079200
     48 H252       -5.7890   -0.7910   -6.4820 hc        1 2EA      0.079200
     49 HN41       -6.9970   -0.6010   -3.9820 hn        1 2EA      0.464467
     50 HN42       -6.9830   -2.2350   -3.6410 hn        1 2EA      0.464467
     51 H10        -5.5990   -3.9120  -11.7910 ha        1 2EA      0.154000
     52 H43        -6.1110   -1.1640   -2.6840 hn        1 2EA      0.464467
     53 H11        -5.1940   -5.6040   -9.9960 ha        1 2EA      0.166000
@<TRIPOS>BOND
     1    1    2 ar  
     2    1    6 ar  
     3    1   23 1   
     4    2    3 ar  
     5    2   31 1   
     6    3    4 ar  
     7    3    7 ar  
     8    4    5 ar  
     9    4   10 ar  
    10    5    6 ar  
    11    5   32 1   
    12    6   33 1   
    13    7    8 ar  
    14    7   34 1   
    15    8    9 ar  
    16    8   35 1   
    17    9   10 ar  
    18   10   36 1   
    19   11   12 ar  
    20   11   16 ar  
    21   11   51 1   
    22   12   13 ar  
    23   12   53 1   
    24   13   14 ar  
    25   13   17 1   
    26   14   15 ar  
    27   14   19 1   
    28   15   16 ar  
    29   15   37 1   
    30   16   38 1   
    31   17   18 2   
    32   18   19 1   
    33   18   39 1   
    34   19   29 1   
    35   19   40 1   
    36   20   21 ar  
    37   20   25 ar  
    38   20   41 1   
    39   21   22 ar  
    40   22   23 ar  
    41   22   42 1   
    42   23   24 ar  
    43   24   25 ar  
    44   24   43 1   
    45   25   26 1   
    46   26   27 1   
    47   27   28 1   
    48   27   44 1   
    49   27   45 1   
    50   28   29 1   
    51   28   30 1   
    52   28   46 1   
    53   29   47 1   
    54   29   48 1   
    55   30   49 1   
    56   30   50 1   
    57   30   52 1   
@<TRIPOS>SUBSTRUCTURE
     1 2EA         1 TEMP              0 ****  ****    0 ROOT
