@<TRIPOS>MOLECULE
2EA
   52    56     1     0     0
SMALL
bcc


@<TRIPOS>ATOM
      1 C1          4.0540    0.0360   -0.3560 cp        1 2EA     -0.019000
      2 C2          4.9340   -1.0270   -0.3010 ca        1 2EA     -0.111000
      3 C3          6.2350   -0.8580    0.2380 ca        1 2EA     -0.013000
      4 C4          6.6260    0.4180    0.7190 ca        1 2EA     -0.158300
      5 C5          5.7120    1.4980    0.6530 ca        1 2EA     -0.099000
      6 C6          4.4560    1.3120    0.1300 ca        1 2EA     -0.121000
      7 C7          7.1770   -1.9220    0.3200 ca        1 2EA     -0.227300
      8 C8          8.4250   -1.6700    0.8600 ca        1 2EA      0.383200
      9 N1          8.8200   -0.4440    1.3290 nb        1 2EA     -0.662000
     10 C9          7.9510    0.5510    1.2570 ca        1 2EA      0.422200
     11 C10        -8.5170   -1.5930    0.3270 ca        1 2EA     -0.128000
     12 C11        -8.0420   -0.9540    1.4810 ca        1 2EA     -0.084000
     13 C12        -6.7650   -0.4060    1.4450 ca        1 2EA      0.085400
     14 C13        -5.9660   -0.5010    0.2530 ca        1 2EA     -0.125300
     15 C14        -6.4500   -1.1330   -0.8710 ca        1 2EA     -0.104000
     16 C15        -7.7410   -1.6820   -0.8250 ca        1 2EA     -0.127000
     17 N2         -6.0620    0.2900    2.4840 ne        1 2EA     -0.521100
     18 C16        -4.8930    0.6190    2.0010 c2        1 2EA      0.395200
     19 C17        -4.6460    0.1680    0.5510 c3        1 2EA     -0.117700
     20 C18         0.2330   -0.5310   -2.0540 ca        1 2EA      0.324200
     21 N3          1.2980   -1.1370   -2.6120 nb        1 2EA     -0.634000
     22 C19         2.5020   -0.9400   -2.0530 ca        1 2EA      0.371200
     23 C20         2.7140   -0.1300   -0.9090 cp        1 2EA     -0.124300
     24 C21         1.6090    0.5020   -0.3330 ca        1 2EA     -0.110000
     25 C22         0.3440    0.2970   -0.9150 ca        1 2EA      0.013800
     26 O1         -0.7110    0.9190   -0.2850 os        1 2EA     -0.311900
     27 C24        -1.9540    0.8980   -0.9960 c3        1 2EA      0.131400
     28 C23        -2.8960    1.8340   -0.2070 c3        1 2EA      0.162500
     29 C25        -4.3400    1.3230   -0.3750 c3        1 2EA     -0.101400
     30 N4         -2.6940    3.2200   -0.5760 n3        1 2EA     -0.898800
     31 H2          4.6380   -2.0230   -0.6660 ha        1 2EA      0.142000
     32 H5          6.0270    2.4850    1.0270 ha        1 2EA      0.139000
     33 H6          3.7450    2.1500    0.0720 ha        1 2EA      0.142000
     34 H7          6.9030   -2.9210   -0.0430 ha        1 2EA      0.145000
     35 H8          9.1890   -2.4630    0.9450 h4        1 2EA      0.024100
     36 H9          8.2840    1.5330    1.6390 h4        1 2EA      0.023100
     37 H11        -8.6640   -0.8920    2.3850 ha        1 2EA      0.151000
     38 H14        -5.8470   -1.2110   -1.7870 ha        1 2EA      0.134000
     39 H15        -8.1410   -2.1900   -1.7150 ha        1 2EA      0.134000
     40 H16        -4.1360    1.1640    2.5760 h4        1 2EA      0.044800
     41 H17        -3.8140   -0.5870    0.5380 hc        1 2EA      0.092700
     42 H18        -0.7360   -0.7220   -2.5430 h4        1 2EA      0.024100
     43 H19         3.3510   -1.4480   -2.5440 h4        1 2EA      0.028100
     44 H21         1.7060    1.1400    0.5570 ha        1 2EA      0.160000
     45 H241       -2.3530   -0.1500   -0.9940 h1        1 2EA      0.045200
     46 H242       -1.8040    1.2420   -2.0520 h1        1 2EA      0.045200
     47 H23        -2.6140    1.7510    0.8880 h1        1 2EA      0.080700
     48 H251       -5.0670    2.1540   -0.1720 hc        1 2EA      0.055200
     49 H252       -4.5030    0.9940   -1.4360 hc        1 2EA      0.055200
     50 HN41       -2.9240    3.3760   -1.5370 hn        1 2EA      0.352800
     51 HN42       -3.2530    3.8190   -0.0010 hn        1 2EA      0.352800
     52 H10        -9.5260   -2.0330    0.3390 ha        1 2EA      0.136000
@<TRIPOS>BOND
     1    1    2 ar  
     2    1    6 ar  
     3    1   23 1   
     4    2    3 ar  
     5    2   31 1   
     6    3    4 ar  
     7    3    7 ar  
     8    4    5 ar  
     9    4   10 ar  
    10    5    6 ar  
    11    5   32 1   
    12    6   33 1   
    13    7    8 ar  
    14    7   34 1   
    15    8    9 ar  
    16    8   35 1   
    17    9   10 ar  
    18   10   36 1   
    19   11   12 ar  
    20   11   16 ar  
    21   11   52 1   
    22   12   13 ar  
    23   12   37 1   
    24   13   14 ar  
    25   13   17 1   
    26   14   15 ar  
    27   14   19 1   
    28   15   16 ar  
    29   15   38 1   
    30   16   39 1   
    31   17   18 2   
    32   18   19 1   
    33   18   40 1   
    34   19   29 1   
    35   19   41 1   
    36   20   21 ar  
    37   20   25 ar  
    38   20   42 1   
    39   21   22 ar  
    40   22   23 ar  
    41   22   43 1   
    42   23   24 ar  
    43   24   25 ar  
    44   24   44 1   
    45   25   26 1   
    46   26   27 1   
    47   27   28 1   
    48   27   45 1   
    49   27   46 1   
    50   28   29 1   
    51   28   30 1   
    52   28   47 1   
    53   29   48 1   
    54   29   49 1   
    55   30   50 1   
    56   30   51 1   
@<TRIPOS>SUBSTRUCTURE
     1 2EA         1 TEMP              0 ****  ****    0 ROOT
