@<TRIPOS>MOLECULE
2EA
   52    44     1     0     0
SMALL
bcc


@<TRIPOS>ATOM
      1 C1          3.0930    1.0950    3.0210 c1        1 2EA     -0.039000
      2 C2          4.0760    0.3460    3.6520 c1        1 2EA     -0.110000
      3 C3          4.4370    0.6350    4.9950 c1        1 2EA     -0.013000
      4 C4          3.8180    1.6470    5.6620 c1        1 2EA     -0.093000
      5 C5          2.8140    2.4110    5.0170 c1        1 2EA     -0.098000
      6 C6          2.4610    2.1270    3.7020 c1        1 2EA     -0.117500
      7 C7          5.4150   -0.1200    5.6330 c2        1 2EA     -0.162000
      8 C8          5.7610    0.1620    6.9610 c1        1 2EA     -0.081000
      9 N1          5.1360    1.1820    7.6320 n1        1 2EA     -0.135000
     10 C9          4.1710    1.9280    7.0040 c2        1 2EA     -0.043000
     11 C10        -6.6990   -0.2450   -5.7750 c1        1 2EA     -0.128500
     12 C11        -6.6030   -1.4150   -4.9870 c1        1 2EA     -0.087000
     13 C12        -5.4450   -1.6830   -4.2900 c1        1 2EA     -0.051000
     14 C13        -4.3010   -0.7440   -4.3680 c1        1 2EA     -0.120000
     15 C14        -4.3990    0.3930   -5.1350 c1        1 2EA     -0.105000
     16 C15        -5.5910    0.6640   -5.8500 c1        1 2EA     -0.128500
     17 N2         -4.9680   -2.7650   -3.5020 n2        1 2EA     -0.101000
     18 C16        -3.7660   -2.6490   -3.1020 c1        1 2EA     -0.088000
     19 C17        -3.1140   -1.4650   -3.5170 c2        1 2EA     -0.088000
     20 C18         2.5570    0.7390   -1.0860 c1        1 2EA     -0.136000
     21 N3          3.5100    1.5930   -0.5910 n1        1 2EA     -0.106000
     22 C19         3.6860    1.7160    0.7600 c1        1 2EA     -0.093000
     23 C20         2.9020    0.9780    1.6310 c1        1 2EA     -0.039000
     24 C21         1.9480    0.1220    1.1380 c1        1 2EA     -0.117500
     25 C22         1.7720   -0.0000   -0.2180 c1        1 2EA      0.034000
     26 O1          0.8230   -0.9530   -0.7380 os        1 2EA     -0.216000
     27 C24        -0.1770   -0.3720   -1.6160 c3        1 2EA     -0.029000
     28 C23        -1.3780   -1.3350   -1.7350 c3        1 2EA     -0.028000
     29 C25        -2.5450   -0.6130   -2.3650 c3        1 2EA     -0.137000
     30 N4         -1.7430   -1.7860   -0.4620 n3        1 2EA     -0.347000
     31 H2          4.5210   -0.3810    3.1720 ha        1 2EA      0.142000
     32 H5          2.3680    3.1380    5.4960 ha        1 2EA      0.139000
     33 H6          1.7640    2.6580    3.2540 ha        1 2EA      0.148500
     34 H7          5.8640   -0.8540    5.1510 ha        1 2EA      0.145000
     35 H8          6.4590   -0.3760    7.4170 ha        1 2EA      0.161000
     36 H9          3.7280    2.6520    7.4820 h4        1 2EA      0.160000
     37 H10        -7.5200   -0.0560   -6.2690 ha        1 2EA      0.134000
     38 H11        -7.3580   -2.0330   -4.9380 ha        1 2EA      0.150000
     39 H14        -3.6470    1.0130   -5.1870 ha        1 2EA      0.134000
     40 H15        -5.6600    1.4700   -6.3940 ha        1 2EA      0.134000
     41 H16        -3.4760   -3.1080   -2.2870 ha        1 2EA      0.183000
     42 H17        -2.3200   -1.6410   -4.0540 ha        1 2EA      0.123000
     43 H18         2.4330    0.6520   -2.0510 ha        1 2EA      0.166000
     44 H19         4.3650    2.3250    1.1110 ha        1 2EA      0.166000
     45 H21         1.3940   -0.3990    1.7520 ha        1 2EA      0.148500
     46 H241       -0.4770    0.4780   -1.2500 h1        1 2EA      0.094500
     47 H242        0.2140   -0.2260   -2.5060 h1        1 2EA      0.094500
     48 H23        -1.1280   -2.1030   -2.2940 h1        1 2EA      0.069000
     49 H251       -3.2400   -0.4670   -1.6930 hc        1 2EA      0.101000
     50 H252       -2.2440    0.2500   -2.7150 hc        1 2EA      0.101000
     51 HN41       -1.1260   -2.4010   -0.1650 hn        1 2EA      0.154500
     52 HN42       -2.5670   -2.1770   -0.5020 hn        1 2EA      0.154500
@<TRIPOS>BOND
     1    1    6 1   
     2    2    3 1   
     3    2   31 1   
     4    3    7 1   
     5    4    5 1   
     6    4   10 1   
     7    5   32 1   
     8    6   33 1   
     9    7    8 1   
    10    7   34 1   
    11    8   35 1   
    12    9   10 1   
    13   10   36 1   
    14   11   16 1   
    15   11   37 1   
    16   12   13 1   
    17   12   38 1   
    18   13   17 1   
    19   14   15 1   
    20   14   19 1   
    21   15   39 1   
    22   16   40 1   
    23   17   18 1   
    24   18   41 1   
    25   19   29 1   
    26   19   42 1   
    27   20   25 1   
    28   20   43 1   
    29   21   22 1   
    30   22   44 1   
    31   23   24 1   
    32   24   45 1   
    33   25   26 1   
    34   26   27 1   
    35   27   28 1   
    36   27   46 1   
    37   27   47 1   
    38   28   29 1   
    39   28   30 1   
    40   28   48 1   
    41   29   49 1   
    42   29   50 1   
    43   30   51 1   
    44   30   52 1   
@<TRIPOS>SUBSTRUCTURE
     1 2EA         1 TEMP              0 ****  ****    0 ROOT
