@<TRIPOS>MOLECULE
2EB
   43    44     1     0     0
SMALL
bcc


@<TRIPOS>ATOM
      1 I           2.0060    3.2230    1.7060 i         1 2EB     -0.035900
      2 C14         2.6300    1.4210    1.0400 ca        1 2EB     -0.047100
      3 C           3.6780    0.7080    1.6430 ca        1 2EB      0.174100
      4 O           4.3460    1.1240    2.7750 oh        1 2EB     -0.569100
      5 C13         1.9990    0.8680   -0.0750 ca        1 2EB      0.004000
      6 C12         2.3940   -0.3830   -0.5790 ca        1 2EB     -0.009600
      7 CL          1.6060   -1.0330   -1.9190 cl        1 2EB      0.008600
      8 C11         3.4410   -1.0830    0.0200 ca        1 2EB     -0.049000
      9 C1          4.0990   -0.5370    1.1290 ca        1 2EB     -0.236300
     10 C2          5.2960   -1.2040    1.6940 c3        1 2EB      0.211100
     11 N           5.0270   -1.6510    3.1240 n4        1 2EB     -0.777000
     12 C3          6.2060   -2.3280    3.7170 c3        1 2EB      0.104800
     13 C4          6.0040   -2.7600    5.1760 c3        1 2EB     -0.135400
     14 C5          7.3040   -3.4020    5.6600 c3        1 2EB      0.111800
     15 N1          7.2460   -3.8250    7.1100 n4        1 2EB     -0.641800
     16 C6          8.6130   -4.1760    7.6260 c         1 2EB      0.471100
     17 O1          9.5980   -3.6010    7.1970 o         1 2EB     -0.287100
     18 N2          8.7280   -5.2310    8.6920 n4        1 2EB     -0.435200
     19 C7          7.5250   -5.4840    9.4300 cc        1 2EB     -0.251400
     20 C10         6.5260   -6.4410    9.0320 cc        1 2EB     -0.137000
     21 C9          5.6060   -6.5970   10.0500 cd        1 2EB     -0.203100
     22 S           5.9540   -5.6740   11.3770 ss        1 2EB      0.531200
     23 C8          7.2710   -4.9940   10.7320 cd        1 2EB     -0.221100
     24 H1          4.1430    2.0650    2.9360 ho        1 2EB      0.479000
     25 H2          1.1750    1.4160   -0.5760 ha        1 2EB      0.202000
     26 H3          3.7640   -2.0530   -0.3970 ha        1 2EB      0.164000
     27 H4          5.5860   -2.1150    1.0970 hx        1 2EB      0.114200
     28 H5          6.1620   -0.4790    1.7410 hx        1 2EB      0.114200
     29 H6          4.2120   -2.2760    3.1260 hn        1 2EB      0.466300
     30 H8          7.0790   -1.6120    3.6500 hx        1 2EB      0.121200
     31 H9          6.4420   -3.2320    3.0810 hx        1 2EB      0.121200
     32 H10         5.7470   -1.8650    5.8070 hc        1 2EB      0.096700
     33 H11         5.1530   -3.4910    5.2460 hc        1 2EB      0.096700
     34 H12         8.1580   -2.6650    5.5510 hx        1 2EB      0.140200
     35 H13         7.5380   -4.3240    5.0500 hx        1 2EB      0.140200
     36 H14         6.8890   -3.0380    7.6820 hn        1 2EB      0.495800
     37 H15         9.0430   -6.1100    8.2310 hn        1 2EB      0.524300
     38 H16         6.5280   -7.0110    8.0980 ha        1 2EB      0.185000
     39 H17         4.7510   -7.2900   10.0000 h4        1 2EB      0.245000
     40 H18         7.9070   -4.2750   11.2680 h4        1 2EB      0.224000
     41 HN3         4.7820   -0.8070    3.6680 hn        1 2EB      0.466300
     42 H121        6.5950   -4.6210    7.2270 hn        1 2EB      0.495800
     43 H22         9.4800   -4.9180    9.3460 hn        1 2EB      0.524300
@<TRIPOS>BOND
     1    1    2 1   
     2    2    3 ar  
     3    2    5 ar  
     4    3    4 1   
     5    3    9 ar  
     6    4   24 1   
     7    5    6 ar  
     8    5   25 1   
     9    6    7 1   
    10    6    8 ar  
    11    8    9 ar  
    12    8   26 1   
    13    9   10 1   
    14   10   11 1   
    15   10   27 1   
    16   10   28 1   
    17   11   12 1   
    18   11   29 1   
    19   11   41 1   
    20   12   13 1   
    21   12   30 1   
    22   12   31 1   
    23   13   14 1   
    24   13   32 1   
    25   13   33 1   
    26   14   15 1   
    27   14   34 1   
    28   14   35 1   
    29   15   16 1   
    30   15   36 1   
    31   15   42 1   
    32   16   17 2   
    33   16   18 1   
    34   18   19 1   
    35   18   37 1   
    36   18   43 1   
    37   19   20 1   
    38   19   23 2   
    39   20   21 2   
    40   20   38 1   
    41   21   22 1   
    42   21   39 1   
    43   22   23 1   
    44   23   40 1   
@<TRIPOS>SUBSTRUCTURE
     1 2EB         1 TEMP              0 ****  ****    0 ROOT
