@<TRIPOS>MOLECULE
2EB
   42    43     1     0     0
SMALL
bcc


@<TRIPOS>ATOM
      1 I           0.2790   -0.3610   -0.5890 i         1 2EB     -0.049900
      2 C14         2.2070    0.0890   -0.1880 ca        1 2EB     -0.047100
      3 C           2.8200   -0.2160    1.0370 ca        1 2EB      0.173100
      4 O           2.2020   -0.8930    2.0640 oh        1 2EB     -0.558100
      5 C13         2.9550    0.7410   -1.1690 ca        1 2EB     -0.006000
      6 C12         4.2980    1.0770   -0.9420 ca        1 2EB     -0.011600
      7 Cl          5.1860    1.8540   -2.1480 cl        1 2EB     -0.005400
      8 C11         4.9030    0.7760    0.2800 ca        1 2EB     -0.048000
      9 C1          4.1650    0.1350    1.2810 ca        1 2EB     -0.224300
     10 C2          4.7600   -0.0900    2.6240 c3        1 2EB      0.202100
     11 N           4.8620   -1.5680    2.9270 ny        1 2EB     -0.771000
     12 C3          5.4810   -1.8150    4.2560 c3        1 2EB      0.104800
     13 C4          5.5740   -3.2990    4.6110 c3        1 2EB     -0.134400
     14 C5          6.2450   -3.4200    5.9780 c3        1 2EB      0.104800
     15 N1          6.4790   -4.8240    6.4050 ny        1 2EB     -0.687800
     16 C6          7.4660   -4.8470    7.6370 c         1 2EB      0.629100
     17 O1          8.5560   -4.3580    7.3410 o         1 2EB     -0.468100
     18 N2          6.9440   -5.2350    8.8400 ns        1 2EB     -0.325100
     19 C7          7.8110   -5.5480    9.9110 cc        1 2EB     -0.096400
     20 C10         9.0080   -4.8240   10.2400 cc        1 2EB     -0.121000
     21 C9          9.5730   -5.3380   11.3900 cd        1 2EB     -0.193100
     22 S           8.7060   -6.6040   12.0100 ss        1 2EB      0.292200
     23 C8          7.5660   -6.5770   10.8330 cd        1 2EB     -0.231100
     24 H1          1.2430   -0.9360    1.8870 ho        1 2EB      0.475000
     25 H2          2.4910    0.9990   -2.1410 ha        1 2EB      0.195000
     26 H3          5.9530    1.0620    0.4610 ha        1 2EB      0.164000
     27 H4          4.0980    0.3630    3.4200 hx        1 2EB      0.113200
     28 H5          5.7950    0.3520    2.6950 hx        1 2EB      0.113200
     29 H6          5.4130   -2.0220    2.1900 hn        1 2EB      0.463800
     30 H8          6.5130   -1.3570    4.2480 hx        1 2EB      0.117200
     31 H9          4.8600   -1.2750    5.0310 hx        1 2EB      0.117200
     32 H10         6.1750   -3.8450    3.8330 hc        1 2EB      0.086200
     33 H11         4.5480   -3.7580    4.6380 hc        1 2EB      0.086200
     34 H12         7.2540   -2.9040    5.9540 hx        1 2EB      0.126200
     35 H13         5.6110   -2.9210    6.7680 hx        1 2EB      0.126200
     36 H14         6.9570   -5.3380    5.6560 hn        1 2EB      0.454300
     37 H15         6.0600   -5.7060    8.8750 hn        1 2EB      0.341500
     38 H16         9.4070   -3.9960    9.6480 ha        1 2EB      0.179000
     39 H17        10.4910   -4.9550   11.8470 h4        1 2EB      0.208000
     40 H18         6.7230   -7.2700   10.7990 h4        1 2EB      0.189000
     41 HN3         3.9090   -1.9640    2.8990 hn        1 2EB      0.463800
     42 H121        5.5900   -5.2870    6.6010 hn        1 2EB      0.454300
@<TRIPOS>BOND
     1    1    2 1   
     2    2    3 ar  
     3    2    5 ar  
     4    3    4 1   
     5    3    9 ar  
     6    4   24 1   
     7    5    6 ar  
     8    5   25 1   
     9    6    7 1   
    10    6    8 ar  
    11    8    9 ar  
    12    8   26 1   
    13    9   10 1   
    14   10   11 1   
    15   10   27 1   
    16   10   28 1   
    17   11   12 1   
    18   11   29 1   
    19   11   41 1   
    20   12   13 1   
    21   12   30 1   
    22   12   31 1   
    23   13   14 1   
    24   13   32 1   
    25   13   33 1   
    26   14   15 1   
    27   14   34 1   
    28   14   35 1   
    29   15   16 1   
    30   15   36 1   
    31   15   42 1   
    32   16   17 2   
    33   16   18 1   
    34   18   19 1   
    35   18   37 1   
    36   19   20 1   
    37   19   23 2   
    38   20   21 2   
    39   20   38 1   
    40   21   22 1   
    41   21   39 1   
    42   22   23 1   
    43   23   40 1   
@<TRIPOS>SUBSTRUCTURE
     1 2EB         1 TEMP              0 ****  ****    0 ROOT
