@<TRIPOS>MOLECULE
2EB
   42    43     1     0     0
SMALL
bcc


@<TRIPOS>ATOM
      1 I           0.2840   -0.3480   -0.5900 i         1 2EB     -0.049900
      2 C14         2.2110    0.1020   -0.1850 ca        1 2EB     -0.047100
      3 C           2.8230   -0.2070    1.0400 ca        1 2EB      0.173100
      4 O           2.2030   -0.8870    2.0640 oh        1 2EB     -0.558100
      5 C13         2.9600    0.7570   -1.1630 ca        1 2EB     -0.006000
      6 C12         4.3030    1.0930   -0.9320 ca        1 2EB     -0.011600
      7 CL          5.1920    1.8740   -2.1350 cl        1 2EB     -0.005400
      8 C11         4.9060    0.7890    0.2900 ca        1 2EB     -0.048000
      9 C1          4.1670    0.1450    1.2880 ca        1 2EB     -0.224300
     10 C2          4.7600   -0.0840    2.6300 c3        1 2EB      0.202100
     11 N           4.8630   -1.5630    2.9300 n4        1 2EB     -0.771000
     12 C3          5.4800   -1.8140    4.2580 c3        1 2EB      0.104800
     13 C4          5.5730   -3.2990    4.6090 c3        1 2EB     -0.134400
     14 C5          6.2440   -3.4240    5.9760 c3        1 2EB      0.104800
     15 N1          6.4770   -4.8290    6.4000 n4        1 2EB     -0.687800
     16 C6          7.4640   -4.8550    7.6310 c         1 2EB      0.629100
     17 O1          8.5550   -4.3660    7.3380 o         1 2EB     -0.468100
     18 N2          6.9410   -5.2450    8.8340 n         1 2EB     -0.325100
     19 C7          7.8080   -5.5610    9.9040 cc        1 2EB     -0.096400
     20 C10         9.0050   -4.8390   10.2350 cc        1 2EB     -0.121000
     21 C9          9.5700   -5.3560   11.3840 cd        1 2EB     -0.193100
     22 S           8.7020   -6.6230   12.0010 ss        1 2EB      0.292200
     23 C8          7.5610   -6.5920   10.8240 cd        1 2EB     -0.231100
     24 H1          1.2450   -0.9290    1.8860 ho        1 2EB      0.475000
     25 H2          2.4970    1.0180   -2.1350 ha        1 2EB      0.195000
     26 H3          5.9560    1.0740    0.4720 ha        1 2EB      0.164000
     27 H4          4.0970    0.3660    3.4270 hx        1 2EB      0.113200
     28 H5          5.7950    0.3580    2.7040 hx        1 2EB      0.113200
     29 H6          5.4140   -2.0150    2.1920 hn        1 2EB      0.463800
     30 H8          6.5120   -1.3550    4.2530 hx        1 2EB      0.117200
     31 H9          4.8580   -1.2760    5.0340 hx        1 2EB      0.117200
     32 H10         6.1760   -3.8420    3.8300 hc        1 2EB      0.086200
     33 H11         4.5480   -3.7580    4.6340 hc        1 2EB      0.086200
     34 H12         5.6090   -2.9270    6.7670 hx        1 2EB      0.126200
     35 H13         7.2530   -2.9080    5.9550 hx        1 2EB      0.126200
     36 H14         6.9550   -5.3410    5.6490 hn        1 2EB      0.454300
     37 H15         6.0570   -5.7160    8.8670 hn        1 2EB      0.341500
     38 H16         9.4050   -4.0100    9.6450 ha        1 2EB      0.179000
     39 H17        10.4870   -4.9750   11.8420 h4        1 2EB      0.208000
     40 H18         6.7180   -7.2840   10.7890 h4        1 2EB      0.189000
     41 HN3         3.9100   -1.9590    2.8990 hn        1 2EB      0.463800
     42 H121        5.5890   -5.2920    6.5940 hn        1 2EB      0.454300
@<TRIPOS>BOND
     1    1    2 1   
     2    2    3 ar  
     3    2    5 ar  
     4    3    4 1   
     5    3    9 ar  
     6    4   24 1   
     7    5    6 ar  
     8    5   25 1   
     9    6    7 1   
    10    6    8 ar  
    11    8    9 ar  
    12    8   26 1   
    13    9   10 1   
    14   10   11 1   
    15   10   27 1   
    16   10   28 1   
    17   11   12 1   
    18   11   29 1   
    19   11   41 1   
    20   12   13 1   
    21   12   30 1   
    22   12   31 1   
    23   13   14 1   
    24   13   32 1   
    25   13   33 1   
    26   14   15 1   
    27   14   34 1   
    28   14   35 1   
    29   15   16 1   
    30   15   36 1   
    31   15   42 1   
    32   16   17 2   
    33   16   18 1   
    34   18   19 1   
    35   18   37 1   
    36   19   20 1   
    37   19   23 2   
    38   20   21 2   
    39   20   38 1   
    40   21   22 1   
    41   21   39 1   
    42   22   23 1   
    43   23   40 1   
@<TRIPOS>SUBSTRUCTURE
     1 2EB         1 TEMP              0 ****  ****    0 ROOT
