@<TRIPOS>MOLECULE
2EC
   22    23     1     0     0
SMALL
bcc


@<TRIPOS>ATOM
      1 N6         -0.0860   -0.0160   -0.0680 n4        1 2EC     -0.815300
      2 C6          1.3890   -0.0290   -0.0720 ca        1 2EC      0.519200
      3 C5          2.0610    0.0060    1.1620 ca        1 2EC     -0.139200
      4 N7          1.6530    0.0520    2.4960 nc        1 2EC     -0.586100
      5 C4          3.5420   -0.0140    1.0840 ca        1 2EC      0.452800
      6 N9          3.9690    0.0070    2.4190 na        1 2EC     -0.238000
      7 C8          2.8010    0.0600    3.2060 cd        1 2EC      0.501700
      8 C9M         5.3350    0.0610    2.8870 c3        1 2EC      0.032300
      9 N3          4.2170   -0.0610   -0.0910 nb        1 2EC     -0.613000
     10 C50         5.9000    1.4630    3.0400 c3        1 2EC     -0.124100
     11 C2          3.4180   -0.0870   -1.1880 ca        1 2EC      0.671900
     12 N1          2.0540   -0.0740   -1.2530 nb        1 2EC     -0.678000
     13 H61N       -0.4020    0.8380    0.4080 hn        1 2EC      0.478467
     14 H62N       -0.4170   -0.8360    0.4550 hn        1 2EC      0.478467
     15 H8          2.8520    0.0900    4.3080 h5        1 2EC      0.108800
     16 H9M1        5.3640   -0.4690    3.8840 h1        1 2EC      0.088700
     17 H9M2        5.9690   -0.5200    2.1550 h1        1 2EC      0.088700
     18 H501        5.9150    2.0050    2.0640 hc        1 2EC      0.064700
     19 H502        5.3140    2.0640    3.7760 hc        1 2EC      0.064700
     20 H503        6.9510    1.3730    3.4120 hc        1 2EC      0.064700
     21 H2          3.9390   -0.1240   -2.1750 h5        1 2EC      0.101100
     22 H63        -0.4620   -0.0390   -1.0250 hn        1 2EC      0.478467
@<TRIPOS>BOND
     1    1    2 1   
     2    1   13 1   
     3    1   14 1   
     4    1   22 1   
     5    2    3 ar  
     6    2   12 ar  
     7    3    4 1   
     8    3    5 ar  
     9    4    7 2   
    10    5    6 1   
    11    5    9 ar  
    12    6    7 1   
    13    6    8 1   
    14    7   15 1   
    15    8   10 1   
    16    8   16 1   
    17    8   17 1   
    18    9   11 ar  
    19   10   18 1   
    20   10   19 1   
    21   10   20 1   
    22   11   12 ar  
    23   11   21 1   
@<TRIPOS>SUBSTRUCTURE
     1 2EC         1 TEMP              0 ****  ****    0 ROOT
