@<TRIPOS>MOLECULE
2EC
   21    22     1     0     0
SMALL
bcc


@<TRIPOS>ATOM
      1 N6          3.1020    1.0990    0.3240 nh        1 2EC     -0.962500
      2 C6          2.0960    0.1950    0.1090 ca        1 2EC      0.764200
      3 C5          0.7360    0.6400   -0.0080 ca        1 2EC     -0.236200
      4 N7          0.1420    1.9100    0.0330 nc        1 2EC     -0.544100
      5 C4         -0.2850   -0.3820   -0.2160 ca        1 2EC      0.457800
      6 N9         -1.4960    0.3190   -0.3180 na        1 2EC     -0.263000
      7 C8         -1.1690    1.6870   -0.1380 cd        1 2EC      0.400700
      8 C9M        -2.8110   -0.2430   -0.4200 c3        1 2EC      0.047300
      9 N3         -0.0120   -1.7190   -0.3030 nb        1 2EC     -0.737000
     10 C50        -3.5000   -0.5200    0.9090 c3        1 2EC     -0.120100
     11 C2          1.3080   -1.9890   -0.1780 ca        1 2EC      0.686900
     12 N1          2.3620   -1.1520    0.0160 nb        1 2EC     -0.798000
     13 H61N        2.8830    2.0630    0.3350 hn        1 2EC      0.448800
     14 H62N        4.0450    0.8060    0.3600 hn        1 2EC      0.448800
     15 H8         -1.9460    2.4600   -0.1640 h5        1 2EC      0.071800
     16 H9M1       -3.4410    0.4770   -1.0180 h1        1 2EC      0.067200
     17 H9M2       -2.7300   -1.2090   -0.9980 h1        1 2EC      0.067200
     18 H501       -2.9190   -1.2550    1.5160 hc        1 2EC      0.049700
     19 H502       -3.6220    0.4160    1.5050 hc        1 2EC      0.049700
     20 H503       -4.5100   -0.9470    0.7010 hc        1 2EC      0.049700
     21 H2          1.5800   -3.0650   -0.2430 h5        1 2EC      0.050100
@<TRIPOS>BOND
     1    1    2 1   
     2    1   13 1   
     3    1   14 1   
     4    2    3 ar  
     5    2   12 ar  
     6    3    4 1   
     7    3    5 ar  
     8    4    7 2   
     9    5    6 1   
    10    5    9 ar  
    11    6    7 1   
    12    6    8 1   
    13    7   15 1   
    14    8   10 1   
    15    8   16 1   
    16    8   17 1   
    17    9   11 ar  
    18   10   18 1   
    19   10   19 1   
    20   10   20 1   
    21   11   12 ar  
    22   11   21 1   
@<TRIPOS>SUBSTRUCTURE
     1 2EC         1 TEMP              0 ****  ****    0 ROOT
