@<TRIPOS>MOLECULE
2EC
   21    22     1     0     0
SMALL
bcc


@<TRIPOS>ATOM
      1 N6         -0.0300    0.0180   -0.0530 nv        1 2EC     -0.962500
      2 C6          1.3390   -0.0230   -0.0600 ca        1 2EC      0.764200
      3 C5          2.0700   -0.0010    1.1760 ca        1 2EC     -0.236200
      4 N7          1.6690    0.0400    2.5190 nc        1 2EC     -0.544100
      5 C4          3.5260   -0.0280    1.0900 ca        1 2EC      0.457800
      6 N9          3.9760   -0.0240    2.4190 na        1 2EC     -0.263000
      7 C8          2.8100    0.0400    3.2230 cd        1 2EC      0.400700
      8 C9M         5.3350    0.0650    2.8680 c3        1 2EC      0.047300
      9 N3          4.2150   -0.0720   -0.0900 nb        1 2EC     -0.737000
     10 C50         5.8600    1.4800    3.0630 c3        1 2EC     -0.120100
     11 C2          3.3980   -0.0910   -1.1680 ca        1 2EC      0.686900
     12 N1          2.0400   -0.0720   -1.2430 nb        1 2EC     -0.798000
     13 H61N       -0.5040    0.0020    0.8150 hn        1 2EC      0.448800
     14 H62N       -0.5420   -0.0420   -0.8970 hn        1 2EC      0.448800
     15 H8          2.8800    0.0640    4.3170 h5        1 2EC      0.071800
     16 H9M1        5.4030   -0.4910    3.8480 h1        1 2EC      0.067200
     17 H9M2        5.9840   -0.4660    2.1120 h1        1 2EC      0.067200
     18 H501        5.2600    2.0350    3.8220 hc        1 2EC      0.049700
     19 H502        6.9170    1.4190    3.4160 hc        1 2EC      0.049700
     20 H503        5.8370    2.0520    2.1040 hc        1 2EC      0.049700
     21 H2          3.9130   -0.1280   -2.1530 h5        1 2EC      0.050100
@<TRIPOS>BOND
     1    1    2 1   
     2    1   13 1   
     3    1   14 1   
     4    2    3 ar  
     5    2   12 ar  
     6    3    4 1   
     7    3    5 ar  
     8    4    7 2   
     9    5    6 1   
    10    5    9 ar  
    11    6    7 1   
    12    6    8 1   
    13    7   15 1   
    14    8   10 1   
    15    8   16 1   
    16    8   17 1   
    17    9   11 ar  
    18   10   18 1   
    19   10   19 1   
    20   10   20 1   
    21   11   12 ar  
    22   11   21 1   
@<TRIPOS>SUBSTRUCTURE
     1 2EC         1 TEMP              0 ****  ****    0 ROOT
