@<TRIPOS>MOLECULE
2EC
   21    16     1     0     0
SMALL
bcc


@<TRIPOS>ATOM
      1 N6         -3.6840   -0.1440   -1.0510 n3        1 2EC     -0.360000
      2 C6         -2.2650   -0.1440   -1.0510 c2        1 2EC      0.243000
      3 C5         -1.3020   -0.1440   -0.0540 c1        1 2EC     -0.245000
      4 N7         -1.3930   -0.1440    1.3020 n1        1 2EC     -0.148500
      5 C4          0.0070   -0.1440   -0.3830 c1        1 2EC      0.066000
      6 N9          0.7290   -0.1440    0.7690 n1        1 2EC     -0.148500
      7 C8         -0.1380   -0.1440    1.8060 c1        1 2EC     -0.055000
      8 C9M         2.1010   -0.4250    1.0150 c2        1 2EC     -0.012000
      9 N3          0.3790   -0.1440   -1.6940 n1        1 2EC     -0.211000
     10 C50         2.8430    0.8680    1.2740 c3        1 2EC     -0.238000
     11 C2         -0.5710   -0.1440   -2.6730 c1        1 2EC      0.024000
     12 N1         -1.8950   -0.1440   -2.3420 n1        1 2EC     -0.272000
     13 H61N       -4.1400    0.4050   -1.6190 hn        1 2EC      0.244000
     14 H62N       -4.1390   -0.6680   -0.4590 hn        1 2EC      0.244000
     15 H8          0.1000   -0.1560    2.7530 DU        1 2EC      0.201000
     16 H9M1        2.1790   -1.0070    1.7950 ha        1 2EC      0.106500
     17 H9M2        2.4860   -0.8710    0.2370 ha        1 2EC      0.106500
     18 H501        2.7050    1.4780    0.5240 hc        1 2EC      0.089000
     19 H502        2.5060    1.2780    2.0930 hc        1 2EC      0.089000
     20 H503        3.7960    0.6820    1.3710 hc        1 2EC      0.089000
     21 H2         -0.3030   -0.1440   -3.6120 ha        1 2EC      0.187000
@<TRIPOS>BOND
     1    1    2 1   
     2    1   13 1   
     3    1   14 1   
     4    2    3 1   
     5    2   12 1   
     6    3    5 1   
     7    4    7 1   
     8    6    7 1   
     9    8   10 1   
    10    8   16 1   
    11    8   17 1   
    12    9   11 1   
    13   10   18 1   
    14   10   19 1   
    15   10   20 1   
    16   11   21 1   
@<TRIPOS>SUBSTRUCTURE
     1 2EC         1 TEMP              0 ****  ****    0 ROOT
