@<TRIPOS>MOLECULE
2EC
   21    22     1     0     0
SMALL
bcc


@<TRIPOS>ATOM
      1 N6         -0.0180    0.0010   -0.0760 nh        1 2EC     -0.962500
      2 C6          1.3510   -0.0360   -0.0730 ca        1 2EC      0.764200
      3 C5          2.0730   -0.0070    1.1680 ca        1 2EC     -0.236200
      4 N7          1.6630    0.0380    2.5080 nc        1 2EC     -0.544100
      5 C4          3.5300   -0.0280    1.0920 ca        1 2EC      0.457800
      6 N9          3.9700   -0.0170    2.4240 na        1 2EC     -0.263000
      7 C8          2.7990    0.0440    3.2200 cd        1 2EC      0.400700
      8 C9M         5.3260    0.0780    2.8830 c3        1 2EC      0.047300
      9 N3          4.2280   -0.0750   -0.0830 nb        1 2EC     -0.737000
     10 C50         5.8450    1.4950    3.0740 c3        1 2EC     -0.120100
     11 C2          3.4170   -0.1010   -1.1670 ca        1 2EC      0.686900
     12 N1          2.0600   -0.0870   -1.2510 nb        1 2EC     -0.798000
     13 H61N       -0.5240   -0.0650   -0.9230 hn        1 2EC      0.448300
     14 H62N       -0.4980   -0.0150    0.7890 hn        1 2EC      0.448300
     15 H8          2.8610    0.0730    4.3140 h5        1 2EC      0.071800
     16 H9M1        5.3890   -0.4740    3.8650 h1        1 2EC      0.067200
     17 H9M2        5.9810   -0.4540    2.1340 h1        1 2EC      0.067200
     18 H501        6.9000    1.4390    3.4360 hc        1 2EC      0.049700
     19 H502        5.2370    2.0520    3.8270 hc        1 2EC      0.049700
     20 H503        5.8260    2.0630    2.1130 hc        1 2EC      0.049700
     21 H2          3.9390   -0.1390   -2.1480 h5        1 2EC      0.050100
@<TRIPOS>BOND
     1    1    2 1   
     2    1   13 1   
     3    1   14 1   
     4    2    3 ar  
     5    2   12 ar  
     6    3    4 1   
     7    3    5 ar  
     8    4    7 2   
     9    5    6 1   
    10    5    9 ar  
    11    6    7 1   
    12    6    8 1   
    13    7   15 1   
    14    8   10 1   
    15    8   16 1   
    16    8   17 1   
    17    9   11 ar  
    18   10   18 1   
    19   10   19 1   
    20   10   20 1   
    21   11   12 ar  
    22   11   21 1   
@<TRIPOS>SUBSTRUCTURE
     1 2EC         1 TEMP              0 ****  ****    0 ROOT
