@<TRIPOS>MOLECULE
2ED
   63    60     1     0     0
SMALL
bcc


@<TRIPOS>ATOM
      1 O2         -3.8480   -5.9930    4.1950 o         1 2ED     -0.391000
      2 O3         -4.2420   -3.9050    2.0590 oh        1 2ED     -0.328000
      3 O1          0.0020   -4.0650    4.1850 oh        1 2ED     -0.317000
      4 C1         -2.2220   -3.9620    3.3290 c3        1 2ED     -0.002000
      5 C2         -0.9250   -3.2160    3.5510 c3        1 2ED      0.052000
      6 C3         -1.1810   -2.0080    4.4230 c2        1 2ED     -0.208000
      7 C4         -0.3830   -0.9260    4.3270 c1        1 2ED     -0.146000
      8 C5          0.7700   -0.9220    3.3470 c2        1 2ED     -0.138000
      9 C6          1.4130    0.4480    3.3320 c3        1 2ED     -0.157000
     10 C18        -2.8580   -6.3240    3.5750 c1        1 2ED      0.312000
     11 C19        -2.6040   -7.7860    3.2790 c2        1 2ED     -0.240000
     12 N          -1.9460   -5.3380    3.1170 n3        1 2ED     -0.364000
     13 C          -2.9280   -3.3960    2.1170 c3        1 2ED     -0.037000
     14 HO3        -4.6120   -3.6830    1.2810 ho        1 2ED      0.205000
     15 HO1         0.0700   -3.8400    5.0430 ho        1 2ED      0.224000
     16 H1         -2.7930   -3.8620    4.1160 h1        1 2ED      0.122000
     17 H2         -0.5650   -2.9260    2.6890 h1        1 2ED      0.112000
     18 H3         -1.9250   -2.0110    5.0550 ha        1 2ED      0.131000
     19 H4         -0.5480   -0.1460    4.8900 ha        1 2ED      0.125000
     20 H5          1.4310   -1.5890    3.6190 ha        1 2ED      0.088500
     21 H5A         0.4380   -1.1360    2.4520 ha        1 2ED      0.088500
     22 H6          1.9160    0.5820    4.1600 hc        1 2ED      0.082000
     23 H6A         0.7190    1.1330    3.2570 hc        1 2ED      0.082000
     24 H19        -2.3080   -7.8840    2.3500 ha        1 2ED      0.106000
     25 H19A       -1.9090   -8.1250    3.8810 ha        1 2ED      0.106000
     26 H19B       -3.4300   -8.2950    3.4140 ha        1 2ED      0.106000
     27 HN         -1.1890   -5.5890    2.6740 hn        1 2ED      0.229000
     28 H          -2.9590   -2.4190    2.1840 h1        1 2ED      0.076500
     29 HA         -2.4420   -3.6530    1.3070 h1        1 2ED      0.076500
     30 C10         2.3510    0.5510    2.1490 c3        1 2ED     -0.158000
     31 C11         2.4090    1.9870    1.6750 c3        1 2ED     -0.158000
     32 C12         3.0790    2.0430    0.3190 c3        1 2ED     -0.158000
     33 C13         2.5740    3.2490   -0.4430 c3        1 2ED     -0.158000
     34 C14         2.7770    3.0300   -1.9260 c3        1 2ED     -0.158000
     35 C15         1.8820    3.9720   -2.7020 c3        1 2ED     -0.158000
     36 C16         1.6540    3.4200   -4.0920 c3        1 2ED     -0.158000
     37 C17         0.4770    4.1260   -4.7280 c3        1 2ED     -0.158000
     38 C181        0.0440    3.3700   -5.9650 c3        1 2ED     -0.158000
     39 C191       -1.3130    3.8690   -6.4120 c3        1 2ED     -0.159000
     40 C20        -1.8380    2.9800   -7.5180 c3        1 2ED     -0.210000
     41 H17         2.0260   -0.0190    1.4240 hc        1 2ED      0.079000
     42 H18         3.2460    0.2600    2.4170 hc        1 2ED      0.079000
     43 H191        2.9220    2.5210    2.3140 hc        1 2ED      0.080000
     44 H20         1.5010    2.3440    1.6060 hc        1 2ED      0.080000
     45 H21         4.0470    2.1140    0.4370 hc        1 2ED      0.079000
     46 H22         2.8690    1.2300   -0.1820 hc        1 2ED      0.079000
     47 H23         3.0680    4.0440   -0.1600 hc        1 2ED      0.079500
     48 H24         1.6210    3.3750   -0.2590 hc        1 2ED      0.079500
     49 H25         3.7110    3.2040   -2.1560 hc        1 2ED      0.078500
     50 H26         2.5520    2.1050   -2.1530 hc        1 2ED      0.078500
     51 H27         2.3100    4.8490   -2.7660 hc        1 2ED      0.079000
     52 H28         1.0240    4.0600   -2.2410 hc        1 2ED      0.079000
     53 H29         2.4540    3.5650   -4.6360 hc        1 2ED      0.079000
     54 H30         1.4680    2.4610   -4.0360 hc        1 2ED      0.079000
     55 H31         0.7370    5.0360   -4.9760 hc        1 2ED      0.079000
     56 H32        -0.2650    4.1610   -4.0910 hc        1 2ED      0.079000
     57 H33        -0.0100    2.4150   -5.7620 hc        1 2ED      0.079000
     58 H34         0.6960    3.5150   -6.6800 hc        1 2ED      0.079000
     59 H35        -1.2310    4.7860   -6.7420 hc        1 2ED      0.078000
     60 H36        -1.9320    3.8490   -5.6550 hc        1 2ED      0.078000
     61 H37        -2.8000    3.1280   -7.6270 hc        1 2ED      0.072000
     62 H38        -1.6760    2.0410   -7.2870 hc        1 2ED      0.072000
     63 H39        -1.3770    3.1940   -8.3560 hc        1 2ED      0.072000
@<TRIPOS>BOND
     1    1   10 1   
     2    2   13 1   
     3    2   14 1   
     4    3    5 1   
     5    3   15 1   
     6    4    5 1   
     7    4   12 1   
     8    4   13 1   
     9    4   16 1   
    10    5    6 1   
    11    5   17 1   
    12    6    7 1   
    13    6   18 1   
    14    7   19 1   
    15    8    9 1   
    16    8   20 1   
    17    8   21 1   
    18    9   22 1   
    19    9   23 1   
    20    9   30 1   
    21   10   12 1   
    22   11   24 1   
    23   11   25 1   
    24   11   26 1   
    25   12   27 1   
    26   13   28 1   
    27   13   29 1   
    28   30   31 1   
    29   30   41 1   
    30   30   42 1   
    31   31   32 1   
    32   31   43 1   
    33   31   44 1   
    34   32   33 1   
    35   32   45 1   
    36   32   46 1   
    37   33   34 1   
    38   33   47 1   
    39   33   48 1   
    40   34   35 1   
    41   34   49 1   
    42   34   50 1   
    43   35   36 1   
    44   35   51 1   
    45   35   52 1   
    46   36   37 1   
    47   36   53 1   
    48   36   54 1   
    49   37   38 1   
    50   37   55 1   
    51   37   56 1   
    52   38   39 1   
    53   38   57 1   
    54   38   58 1   
    55   39   40 1   
    56   39   59 1   
    57   39   60 1   
    58   40   61 1   
    59   40   62 1   
    60   40   63 1   
@<TRIPOS>SUBSTRUCTURE
     1 2ED         1 TEMP              0 ****  ****    0 ROOT
