@<TRIPOS>MOLECULE
2ED
   63    62     1     0     0
SMALL
bcc


@<TRIPOS>ATOM
      1 O2          5.6330    1.7380    2.0940 o         1 2ED     -0.615100
      2 O3          8.2590    0.2150   -1.8300 oh        1 2ED     -0.611800
      3 O1          5.7530   -1.0580   -1.6550 oh        1 2ED     -0.611800
      4 C1          6.8790    0.0790    0.2030 c3        1 2ED      0.031700
      5 C2          5.9220   -1.0620   -0.2450 c3        1 2ED      0.161300
      6 C3          4.6310   -1.0100    0.5030 c2        1 2ED     -0.219200
      7 C4          3.4920   -1.5180    0.0260 c2        1 2ED     -0.150200
      8 C5          2.2140   -1.5100    0.7760 c3        1 2ED     -0.052200
      9 C6          1.0440   -1.1500   -0.1180 c3        1 2ED     -0.075400
     10 C18         5.8150    2.1870    0.9430 c         1 2ED      0.659100
     11 C19         5.4320    3.5980    0.5740 c3        1 2ED     -0.173100
     12 N           6.3480    1.3940   -0.0560 n         1 2ED     -0.568900
     13 C           8.2590   -0.1290   -0.4620 c3        1 2ED      0.122400
     14 HO3         7.6740   -0.4060   -2.2870 ho        1 2ED      0.422000
     15 HO1         5.1380   -0.3470   -1.8720 ho        1 2ED      0.410000
     16 H1          7.0150   -0.0380    1.3220 h1        1 2ED      0.092700
     17 H2          6.4390   -2.0460   -0.0390 h1        1 2ED      0.081700
     18 H3          4.6870   -0.5220    1.4920 ha        1 2ED      0.155000
     19 H4          3.4570   -1.9930   -0.9700 ha        1 2ED      0.126000
     20 H5          2.0480   -2.5340    1.2110 hc        1 2ED      0.052200
     21 H5A         2.2640   -0.7910    1.6380 hc        1 2ED      0.052200
     22 H6          1.2080   -0.1320   -0.5600 hc        1 2ED      0.040700
     23 H6A         0.9830   -1.8760   -0.9710 hc        1 2ED      0.040700
     24 H19         5.0150    4.1040    1.4790 hc        1 2ED      0.067033
     25 H19A        6.3240    4.1670    0.2170 hc        1 2ED      0.067033
     26 H19B        4.6560    3.5950   -0.2300 hc        1 2ED      0.067033
     27 HN          6.5910    1.8000   -0.9300 hn        1 2ED      0.319500
     28 H           8.5690   -1.1980   -0.3200 h1        1 2ED      0.052700
     29 HA          9.0240    0.5500    0.0020 h1        1 2ED      0.052700
     30 C10        -0.2570   -1.1640    0.6560 c3        1 2ED     -0.080400
     31 C11        -1.4280   -0.8070   -0.2330 c3        1 2ED     -0.078400
     32 C12        -2.7290   -0.8200    0.5400 c3        1 2ED     -0.079400
     33 C13        -3.9010   -0.4640   -0.3490 c3        1 2ED     -0.078400
     34 C14        -5.2020   -0.4770    0.4240 c3        1 2ED     -0.079400
     35 C15        -6.3740   -0.1200   -0.4650 c3        1 2ED     -0.079400
     36 C16        -7.6750   -0.1330    0.3090 c3        1 2ED     -0.079400
     37 C17        -8.8470    0.2230   -0.5800 c3        1 2ED     -0.079400
     38 C181      -10.1480    0.2100    0.1930 c3        1 2ED     -0.079400
     39 C191      -11.3210    0.5670   -0.6950 c3        1 2ED     -0.080400
     40 C20       -12.6180    0.5550    0.0710 c3        1 2ED     -0.092100
     41 H17        -0.4190   -2.1810    1.1020 hc        1 2ED      0.041200
     42 H18        -0.1960   -0.4360    1.5080 hc        1 2ED      0.041200
     43 H191       -1.2660    0.2100   -0.6790 hc        1 2ED      0.039700
     44 H20        -1.4900   -1.5350   -1.0850 hc        1 2ED      0.039700
     45 H21        -2.8910   -1.8370    0.9860 hc        1 2ED      0.040200
     46 H22        -2.6680   -0.0920    1.3910 hc        1 2ED      0.040200
     47 H23        -3.7390    0.5530   -0.7950 hc        1 2ED      0.039700
     48 H24        -3.9620   -1.1920   -1.2000 hc        1 2ED      0.039700
     49 H25        -5.3640   -1.4930    0.8710 hc        1 2ED      0.039700
     50 H26        -5.1410    0.2520    1.2760 hc        1 2ED      0.039700
     51 H27        -6.2120    0.8960   -0.9110 hc        1 2ED      0.039700
     52 H28        -6.4350   -0.8480   -1.3160 hc        1 2ED      0.039700
     53 H29        -7.8370   -1.1500    0.7550 hc        1 2ED      0.039700
     54 H30        -7.6130    0.5950    1.1600 hc        1 2ED      0.039700
     55 H31        -8.6850    1.2400   -1.0260 hc        1 2ED      0.039700
     56 H32        -8.9080   -0.5050   -1.4320 hc        1 2ED      0.039700
     57 H33       -10.3100   -0.8060    0.6390 hc        1 2ED      0.039700
     58 H34       -10.0870    0.9380    1.0450 hc        1 2ED      0.039700
     59 H35       -11.1560    1.5830   -1.1410 hc        1 2ED      0.038700
     60 H36       -11.3790   -0.1620   -1.5470 hc        1 2ED      0.038700
     61 H37       -13.4690    0.8200   -0.6020 hc        1 2ED      0.032700
     62 H38       -12.8120   -0.4570    0.5020 hc        1 2ED      0.032700
     63 H39       -12.5880    1.2920    0.9090 hc        1 2ED      0.032700
@<TRIPOS>BOND
     1    1   10 2   
     2    2   13 1   
     3    2   14 1   
     4    3    5 1   
     5    3   15 1   
     6    4    5 1   
     7    4   12 1   
     8    4   13 1   
     9    4   16 1   
    10    5    6 1   
    11    5   17 1   
    12    6    7 2   
    13    6   18 1   
    14    7    8 1   
    15    7   19 1   
    16    8    9 1   
    17    8   20 1   
    18    8   21 1   
    19    9   22 1   
    20    9   23 1   
    21    9   30 1   
    22   10   11 1   
    23   10   12 1   
    24   11   24 1   
    25   11   25 1   
    26   11   26 1   
    27   12   27 1   
    28   13   28 1   
    29   13   29 1   
    30   30   31 1   
    31   30   41 1   
    32   30   42 1   
    33   31   32 1   
    34   31   43 1   
    35   31   44 1   
    36   32   33 1   
    37   32   45 1   
    38   32   46 1   
    39   33   34 1   
    40   33   47 1   
    41   33   48 1   
    42   34   35 1   
    43   34   49 1   
    44   34   50 1   
    45   35   36 1   
    46   35   51 1   
    47   35   52 1   
    48   36   37 1   
    49   36   53 1   
    50   36   54 1   
    51   37   38 1   
    52   37   55 1   
    53   37   56 1   
    54   38   39 1   
    55   38   57 1   
    56   38   58 1   
    57   39   40 1   
    58   39   59 1   
    59   39   60 1   
    60   40   61 1   
    61   40   62 1   
    62   40   63 1   
@<TRIPOS>SUBSTRUCTURE
     1 2ED         1 TEMP              0 ****  ****    0 ROOT
