@<TRIPOS>MOLECULE
2ED
   64    52     1     0     0
SMALL
bcc


@<TRIPOS>ATOM
      1 O2          1.7760    0.4470   -1.0770 o         1 2ED     -0.489000
      2 O3          2.0150   -2.4340   -3.5470 o         1 2ED     -0.266000
      3 O1          2.5120    0.2390   -3.8500 oh        1 2ED     -0.476000
      4 C1          3.1120    4.1590   -5.2880 c3        1 2ED     -0.172000
      5 C2          2.9570    2.8570   -4.5970 c2        1 2ED     -0.142000
      6 C3          3.3350    2.5630   -3.4000 c1        1 2ED      0.302000
      7 C4          3.7600    2.2160   -2.1060 c3        1 2ED     -0.244000
      8 C5          5.1790    2.5450   -1.8700 c1        1 2ED      0.008000
      9 C6          5.7420    2.3080   -0.5600 c3        1 2ED     -0.246000
     10 C18         1.1230   -0.0620   -0.1270 c2        1 2ED      0.326000
     11 C19         1.7520   -1.0580    0.8110 c3        1 2ED     -0.248000
     12 N          -0.1790    0.2970    0.0640 n         1 2ED     -0.409000
     13 C           1.6780   -3.5610   -3.5580 c1        1 2ED      0.269000
     14 HO3         1.8800   -0.1220   -3.2140 ho        1 2ED      0.238000
     15 HO1         2.8810   -0.5370   -4.2840 ho        1 2ED      0.238000
     16 H1         -0.7100   -0.0840    0.8060 hn        1 2ED      0.237500
     17 H2          2.4530    2.0450   -5.1880 ha        1 2ED      0.262000
     18 H3          3.0540    2.6170   -1.3120 hc        1 2ED      0.235000
     19 H4          3.6170    1.0620   -2.0320 hc        1 2ED      0.235000
     20 H5          5.0060    2.0370    0.2460 hc        1 2ED      0.123000
     21 H5A         6.4340    1.4170   -0.6960 hc        1 2ED      0.123000
     22 H6          3.8730   -1.1710   -2.2390 ha        1 2ED      0.001900
     23 H6A         3.3630   -1.1790   -1.7920 ha        1 2ED      0.001900
     24 H19         1.1160   -1.9700    0.9170 hc        1 2ED      0.117000
     25 H19A        2.7510   -1.3570    0.4100 hc        1 2ED      0.117000
     26 H19B        1.8900   -0.5960    1.8200 hc        1 2ED      0.117000
     27 HN          3.6240    4.9190   -4.6480 hc        1 2ED      0.129000
     28 H           3.7170    4.0050   -6.2190 hc        1 2ED      0.129000
     29 HA          2.1000    4.5440   -5.5760 hc        1 2ED      0.129000
     30 C10         6.5880    3.4930   -0.1040 c3        1 2ED     -0.124000
     31 C11         7.3330    3.1620    1.1620 c3        1 2ED     -0.239000
     32 C12         8.5540    6.6340    7.2100 c1        1 2ED     -0.221500
     33 C13         9.0500    5.6780    6.6920 c1        1 2ED     -0.221500
     34 C14         8.9750    5.8650    2.5750 c1        1 2ED      0.119000
     35 C15         9.5940    6.6970    3.3610 c2        1 2ED     -0.544000
     36 C16        11.2270    9.8500    2.6210 c1        1 2ED     -0.155000
     37 C17        12.1080    8.9990    2.1950 c2        1 2ED     -0.189000
     38 C181       10.3570   10.7260    3.0500 c2        1 2ED     -0.092000
     39 C191        9.0240   10.3780    3.5110 c2        1 2ED     -0.133000
     40 C20         8.1330   11.2860    3.9150 c2        1 2ED     -0.202000
     41 H17         7.3110    3.7680   -0.9170 hc        1 2ED      0.097000
     42 H18         5.9200    4.3760    0.0690 hc        1 2ED      0.097000
     43 H191        8.0370    2.3110    0.9980 hc        1 2ED      0.093000
     44 H20         6.6270    2.8840    1.9810 hc        1 2ED      0.093000
     45 H21         8.1160    7.4840    7.6720 ha        1 2ED      0.222000
     46 H22         7.9270    4.0550    1.4970 hc        1 2ED      0.093000
     47 H23         8.2390    4.4060    4.3040 ha        1 2ED      0.001900
     48 H24         7.8900    4.1400    3.7850 ha        1 2ED      0.001900
     49 H25         9.4960    4.8240    6.2440 ha        1 2ED      0.222000
     50 H26         9.5630    6.6570    4.4650 ha        1 2ED      0.205500
     51 H27        10.9480    3.9340    4.5710 ha        1 2ED      0.001900
     52 H28        10.5680    4.3930    4.2470 ha        1 2ED      0.001900
     53 H29        10.2250    7.5300    2.9900 ha        1 2ED      0.205500
     54 H30        12.1940    8.7220    1.1330 ha        1 2ED      0.137000
     55 H31        12.0280    6.2290    4.1480 ha        1 2ED      0.001900
     56 H32        12.6340    6.5340    4.1360 ha        1 2ED      0.001900
     57 H33        10.6260   11.7990    3.0760 ha        1 2ED      0.147000
     58 H34        12.8340    8.5140    2.8690 ha        1 2ED      0.137000
     59 H35        14.5380    7.5730    4.1590 ha        1 2ED      0.001900
     60 H36        14.8940    8.1030    3.9320 ha        1 2ED      0.001900
     61 H37         7.1310   11.0020    4.2620 ha        1 2ED      0.116500
     62 H38         8.7800    9.3000    3.5150 ha        1 2ED      0.122000
     63 H39         8.3430   12.3630    3.9260 ha        1 2ED      0.116500
     64 HN3        -0.6100    0.9560   -0.5370 hn        1 2ED      0.237500
@<TRIPOS>BOND
     1    1   10 1   
     2    2   13 1   
     3    3   14 1   
     4    3   15 1   
     5    4    5 1   
     6    4   27 1   
     7    4   28 1   
     8    4   29 1   
     9    5    6 1   
    10    5   17 1   
    11    6    7 1   
    12    7    8 1   
    13    7   18 1   
    14    7   19 1   
    15    8    9 1   
    16    9   20 1   
    17    9   21 1   
    18    9   30 1   
    19   10   11 1   
    20   10   12 1   
    21   11   24 1   
    22   11   25 1   
    23   11   26 1   
    24   12   16 1   
    25   12   64 1   
    26   22   23 1   
    27   30   31 1   
    28   30   41 1   
    29   30   42 1   
    30   31   43 1   
    31   31   44 1   
    32   31   46 1   
    33   32   33 1   
    34   32   45 1   
    35   33   49 1   
    36   34   35 1   
    37   35   50 1   
    38   35   53 1   
    39   36   37 1   
    40   36   38 1   
    41   37   54 1   
    42   37   58 1   
    43   38   39 1   
    44   38   57 1   
    45   39   40 1   
    46   39   62 1   
    47   40   61 1   
    48   40   63 1   
    49   47   48 1   
    50   51   52 1   
    51   55   56 1   
    52   59   60 1   
@<TRIPOS>SUBSTRUCTURE
     1 2ED         1 TEMP              0 ****  ****    0 ROOT
