@<TRIPOS>MOLECULE
2EE
   63    65     1     0     0
SMALL
bcc


@<TRIPOS>ATOM
      1 CL          0.1910    0.5130   -0.3600 cl        1 2EE     -0.003400
      2 C5          1.8750    0.4420   -0.2930 ca        1 2EE      0.009400
      3 C4          2.5380    0.6260    0.9250 ca        1 2EE     -0.045000
      4 C6          2.6070    0.2280   -1.4660 ca        1 2EE     -0.078000
      5 C7          4.0000    0.1460   -1.4050 ca        1 2EE     -0.215300
      6 C8          4.6560    0.2430   -0.1570 ca        1 2EE      0.115100
      7 O           6.0400    0.1190   -0.2140 os        1 2EE     -0.388900
      8 C9          6.6370   -0.7530    0.7660 c3        1 2EE      0.160700
      9 C10         7.3840   -1.8380    0.0570 ca        1 2EE     -0.137300
     10 C15         7.1400   -3.1800    0.3700 ca        1 2EE     -0.125500
     11 C14         7.9230   -4.1850   -0.2000 ca        1 2EE     -0.147500
     12 C13         8.9490   -3.8540   -1.0860 ca        1 2EE     -0.142000
     13 C12         9.1900   -2.5180   -1.4080 ca        1 2EE     -0.147500
     14 C11         8.4110   -1.5100   -0.8390 ca        1 2EE     -0.125500
     15 C3          3.9350    0.5450    1.0100 ca        1 2EE     -0.072300
     16 C2          4.5970    0.8220    2.3180 c3        1 2EE     -0.010900
     17 C1          3.9040    1.8890    3.0880 c2        1 2EE     -0.217200
     18 C           3.6040    1.7850    4.3810 c2        1 2EE     -0.163000
     19 C16         4.7830    0.1340   -2.6660 c3        1 2EE      0.204100
     20 N           5.6410   -1.1120   -2.7770 n4        1 2EE     -0.779000
     21 C17         6.3430   -1.1590   -4.0830 c3        1 2EE      0.109800
     22 C18         7.1870   -2.4220   -4.2900 c3        1 2EE     -0.148400
     23 C19         7.9290   -2.2690   -5.6160 c3        1 2EE      0.115800
     24 N1          8.8100   -3.4580   -5.9300 n4        1 2EE     -0.643800
     25 C20         9.7720   -3.1490   -7.0410 c         1 2EE      0.472100
     26 O1         10.0560   -1.9970   -7.3180 o         1 2EE     -0.285100
     27 N2         10.3700   -4.3030   -7.8010 n4        1 2EE     -0.437200
     28 C21         9.4500   -5.3730   -8.0620 cc        1 2EE     -0.245400
     29 C24         9.2570   -6.4980   -7.1850 cc        1 2EE     -0.139000
     30 C23         8.4600   -7.4370   -7.8090 cd        1 2EE     -0.202100
     31 S           8.0140   -6.9870   -9.3370 ss        1 2EE      0.524200
     32 C22         8.7750   -5.5610   -9.2890 cd        1 2EE     -0.215100
     33 H1          1.9590    0.8560    1.8420 ha        1 2EE      0.196000
     34 H2          2.0830    0.1530   -2.4330 ha        1 2EE      0.159000
     35 H3          7.3570   -0.1040    1.3410 h1        1 2EE      0.098200
     36 H4          5.8700   -1.1810    1.4630 h1        1 2EE      0.098200
     37 H5          6.3560   -3.4460    1.0990 ha        1 2EE      0.162500
     38 H6          7.7540   -5.2380    0.0840 ha        1 2EE      0.148000
     39 H7          9.6050   -4.6460   -1.4780 ha        1 2EE      0.138000
     40 H8         10.0490   -2.2470   -2.0390 ha        1 2EE      0.148000
     41 H9          8.6430   -0.4490   -1.0260 ha        1 2EE      0.162500
     42 H10         5.6580    1.1550    2.1390 hc        1 2EE      0.064700
     43 H11         4.6330   -0.1300    2.9200 hc        1 2EE      0.064700
     44 H12         3.6850    2.8080    2.5190 ha        1 2EE      0.138000
     45 H13         3.8140    0.8870    4.9780 ha        1 2EE      0.133000
     46 H14         3.1260    2.6070    4.9340 ha        1 2EE      0.133000
     47 H15         4.1060    0.1690   -3.5670 hx        1 2EE      0.110700
     48 H16         5.4900    1.0150   -2.6850 hx        1 2EE      0.110700
     49 H17         5.0430   -1.9370   -2.6580 hn        1 2EE      0.469800
     50 H19         5.5640   -1.0880   -4.8990 hx        1 2EE      0.116200
     51 H20         7.0020   -0.2420   -4.1440 hx        1 2EE      0.116200
     52 H21         6.5230   -3.3280   -4.3070 hc        1 2EE      0.103700
     53 H22         7.9160   -2.5390   -3.4330 hc        1 2EE      0.103700
     54 H23         7.2000   -2.1600   -6.4720 hx        1 2EE      0.139200
     55 H24         8.5890   -1.3490   -5.5810 hx        1 2EE      0.139200
     56 H25         9.3550   -3.7040   -5.0850 hn        1 2EE      0.495800
     57 H26        11.1840   -4.6650   -7.2680 hn        1 2EE      0.521300
     58 H27         9.7200   -6.6250   -6.2020 ha        1 2EE      0.182000
     59 H28         8.1790   -8.4000   -7.3550 h4        1 2EE      0.244000
     60 H29         8.7910   -4.8530  -10.1300 h4        1 2EE      0.224000
     61 HN3         6.3240   -1.0940   -1.9890 hn        1 2EE      0.469800
     62 H121        8.2250   -4.2730   -6.1880 hn        1 2EE      0.495800
     63 H221       10.7160   -3.9140   -8.7080 hn        1 2EE      0.521300
@<TRIPOS>BOND
     1    1    2 1   
     2    2    3 ar  
     3    2    4 ar  
     4    3   15 ar  
     5    3   33 1   
     6    4    5 ar  
     7    4   34 1   
     8    5    6 ar  
     9    5   19 1   
    10    6    7 1   
    11    6   15 ar  
    12    7    8 1   
    13    8    9 1   
    14    8   35 1   
    15    8   36 1   
    16    9   10 ar  
    17    9   14 ar  
    18   10   11 ar  
    19   10   37 1   
    20   11   12 ar  
    21   11   38 1   
    22   12   13 ar  
    23   12   39 1   
    24   13   14 ar  
    25   13   40 1   
    26   14   41 1   
    27   15   16 1   
    28   16   17 1   
    29   16   42 1   
    30   16   43 1   
    31   17   18 2   
    32   17   44 1   
    33   18   45 1   
    34   18   46 1   
    35   19   20 1   
    36   19   47 1   
    37   19   48 1   
    38   20   21 1   
    39   20   49 1   
    40   20   61 1   
    41   21   22 1   
    42   21   50 1   
    43   21   51 1   
    44   22   23 1   
    45   22   52 1   
    46   22   53 1   
    47   23   24 1   
    48   23   54 1   
    49   23   55 1   
    50   24   25 1   
    51   24   56 1   
    52   24   62 1   
    53   25   26 2   
    54   25   27 1   
    55   27   28 1   
    56   27   57 1   
    57   27   63 1   
    58   28   29 1   
    59   28   32 2   
    60   29   30 2   
    61   29   58 1   
    62   30   31 1   
    63   30   59 1   
    64   31   32 1   
    65   32   60 1   
@<TRIPOS>SUBSTRUCTURE
     1 2EE         1 TEMP              0 ****  ****    0 ROOT
