@<TRIPOS>MOLECULE
2EE
   62    64     1     0     0
SMALL
bcc


@<TRIPOS>ATOM
      1 CL          0.1410   -0.3970    0.5830 cl        1 2EE     -0.019400
      2 C5          1.7870   -0.1310    0.3140 ca        1 2EE      0.007400
      3 C4          2.5530    0.5430    1.2710 ca        1 2EE     -0.054000
      4 C6          2.3730   -0.5670   -0.8780 ca        1 2EE     -0.080000
      5 C7          3.7390   -0.3670   -1.0890 ca        1 2EE     -0.204300
      6 C8          4.5230    0.2460   -0.0870 ca        1 2EE      0.118100
      7 O           5.8680    0.3890   -0.3990 os        1 2EE     -0.382900
      8 C9          6.8010   -0.0200    0.6240 c3        1 2EE      0.163700
      9 C10         7.6810   -1.0950    0.0720 ca        1 2EE     -0.150300
     10 C15         7.7920   -2.3240    0.7330 ca        1 2EE     -0.128500
     11 C14         8.7050   -3.2790    0.2850 ca        1 2EE     -0.141000
     12 C13         9.5060   -3.0140   -0.8260 ca        1 2EE     -0.134000
     13 C12         9.3920   -1.7930   -1.4940 ca        1 2EE     -0.141000
     14 C11         8.4830   -0.8350   -1.0470 ca        1 2EE     -0.128500
     15 C3          3.9250    0.7560    1.0780 ca        1 2EE     -0.076300
     16 C2          4.6880    1.5410    2.0910 c3        1 2EE     -0.011900
     17 C1          3.8780    2.6370    2.6880 c2        1 2EE     -0.207200
     18 C           3.8230    2.8820    3.9950 c2        1 2EE     -0.174000
     19 C16         4.3210   -0.6650   -2.4250 c3        1 2EE      0.196100
     20 N           5.4200   -1.6950   -2.3400 n4        1 2EE     -0.774000
     21 C17         5.8970   -2.0840   -3.6920 c3        1 2EE      0.108800
     22 C18         6.9360   -3.2050   -3.6690 c3        1 2EE     -0.143400
     23 C19         7.4020   -3.4490   -5.1030 c3        1 2EE      0.106800
     24 N1          8.4300   -4.5160   -5.2200 n4        1 2EE     -0.685800
     25 C20         9.1190   -4.4360   -6.6330 c         1 2EE      0.628100
     26 O1          9.8790   -3.4710   -6.6990 o         1 2EE     -0.467100
     27 N2          8.6690   -5.3040   -7.5910 n         1 2EE     -0.328100
     28 C21         9.4060   -5.4710   -8.7850 cc        1 2EE     -0.095400
     29 C24        10.0510   -4.4100   -9.5090 cc        1 2EE     -0.122000
     30 C23        10.6100   -4.9010  -10.6720 cd        1 2EE     -0.192100
     31 S          10.3640   -6.5270  -10.8560 ss        1 2EE      0.288200
     32 C22         9.5390   -6.6990   -9.4490 cd        1 2EE     -0.231100
     33 H1          2.0750    0.9320    2.1890 ha        1 2EE      0.189000
     34 H2          1.7510   -1.0440   -1.6540 ha        1 2EE      0.158000
     35 H3          7.4110    0.9000    0.8490 h1        1 2EE      0.090700
     36 H4          6.2730   -0.3650    1.5500 h1        1 2EE      0.090700
     37 H5          7.1870   -2.5260    1.6330 ha        1 2EE      0.157500
     38 H6          8.8150   -4.2300    0.8320 ha        1 2EE      0.154500
     39 H7         10.2640   -3.7480   -1.1420 ha        1 2EE      0.147000
     40 H8         10.0630   -1.5590   -2.3360 ha        1 2EE      0.154500
     41 H9          8.4310    0.1540   -1.5310 ha        1 2EE      0.157500
     42 H10         5.0510    0.8440    2.8970 hc        1 2EE      0.065200
     43 H11         5.5920    2.0030    1.6040 hc        1 2EE      0.065200
     44 H12         3.3450    3.2720    1.9610 ha        1 2EE      0.136000
     45 H13         4.3470    2.2720    4.7440 ha        1 2EE      0.129000
     46 H14         3.2460    3.7230    4.4050 ha        1 2EE      0.129000
     47 H15         4.7830    0.2730   -2.8560 hx        1 2EE      0.110200
     48 H16         3.5330   -1.0540   -3.1320 hx        1 2EE      0.110200
     49 H17         6.1990   -1.2890   -1.7820 hn        1 2EE      0.466800
     50 H19         6.3360   -1.1630   -4.1770 hx        1 2EE      0.112200
     51 H20         5.0020   -2.4100   -4.2990 hx        1 2EE      0.112200
     52 H21         7.8100   -2.9100   -3.0180 hc        1 2EE      0.091700
     53 H22         6.4860   -4.1400   -3.2380 hc        1 2EE      0.091700
     54 H23         7.8570   -2.4990   -5.5200 hx        1 2EE      0.122200
     55 H24         6.5270   -3.7400   -5.7540 hx        1 2EE      0.122200
     56 H25         8.0180   -5.4310   -5.0320 hn        1 2EE      0.455300
     57 H26         8.1270   -6.1040   -7.3260 hn        1 2EE      0.340500
     58 H27        10.0960   -3.3730   -9.1690 ha        1 2EE      0.179000
     59 H28        11.1560   -4.2890  -11.3970 h4        1 2EE      0.208000
     60 H29         9.1420   -7.6540   -9.1010 h4        1 2EE      0.188000
     61 HN3         5.0690   -2.5170   -1.8370 hn        1 2EE      0.466800
     62 H121        9.1780   -4.3480   -4.5350 hn        1 2EE      0.455300
@<TRIPOS>BOND
     1    1    2 1   
     2    2    3 ar  
     3    2    4 ar  
     4    3   15 ar  
     5    3   33 1   
     6    4    5 ar  
     7    4   34 1   
     8    5    6 ar  
     9    5   19 1   
    10    6    7 1   
    11    6   15 ar  
    12    7    8 1   
    13    8    9 1   
    14    8   35 1   
    15    8   36 1   
    16    9   10 ar  
    17    9   14 ar  
    18   10   11 ar  
    19   10   37 1   
    20   11   12 ar  
    21   11   38 1   
    22   12   13 ar  
    23   12   39 1   
    24   13   14 ar  
    25   13   40 1   
    26   14   41 1   
    27   15   16 1   
    28   16   17 1   
    29   16   42 1   
    30   16   43 1   
    31   17   18 2   
    32   17   44 1   
    33   18   45 1   
    34   18   46 1   
    35   19   20 1   
    36   19   47 1   
    37   19   48 1   
    38   20   21 1   
    39   20   49 1   
    40   20   61 1   
    41   21   22 1   
    42   21   50 1   
    43   21   51 1   
    44   22   23 1   
    45   22   52 1   
    46   22   53 1   
    47   23   24 1   
    48   23   54 1   
    49   23   55 1   
    50   24   25 1   
    51   24   56 1   
    52   24   62 1   
    53   25   26 2   
    54   25   27 1   
    55   27   28 1   
    56   27   57 1   
    57   28   29 1   
    58   28   32 2   
    59   29   30 2   
    60   29   58 1   
    61   30   31 1   
    62   30   59 1   
    63   31   32 1   
    64   32   60 1   
@<TRIPOS>SUBSTRUCTURE
     1 2EE         1 TEMP              0 ****  ****    0 ROOT
