@<TRIPOS>MOLECULE
2EE
   62    64     1     0     0
SMALL
bcc


@<TRIPOS>ATOM
      1 Cl          0.1270   -0.4900    0.5880 cl        1 2EE     -0.019400
      2 C5          1.7660   -0.1930    0.3090 ca        1 2EE      0.007400
      3 C4          2.5210    0.5100    1.2540 ca        1 2EE     -0.054000
      4 C6          2.3560   -0.6320   -0.8800 ca        1 2EE     -0.080000
      5 C7          3.7170   -0.4060   -1.0990 ca        1 2EE     -0.204300
      6 C8          4.4910    0.2360   -0.1080 ca        1 2EE      0.118100
      7 O           5.8320    0.4040   -0.4270 os        1 2EE     -0.382900
      8 C9          6.7770    0.0290    0.5970 c3        1 2EE      0.163700
      9 C10         7.6790   -1.0330    0.0560 ca        1 2EE     -0.150300
     10 C15         7.8220   -2.2490    0.7330 ca        1 2EE     -0.128500
     11 C14         8.7540   -3.1890    0.2930 ca        1 2EE     -0.141000
     12 C13         9.5440   -2.9210   -0.8260 ca        1 2EE     -0.134000
     13 C12         9.3980   -1.7130   -1.5100 ca        1 2EE     -0.141000
     14 C11         8.4690   -0.7700   -1.0710 ca        1 2EE     -0.128500
     15 C3          3.8860    0.7490    1.0520 ca        1 2EE     -0.076300
     16 C2          4.6360    1.5630    2.0530 c3        1 2EE     -0.011900
     17 C1          3.8060    2.6490    2.6390 c2        1 2EE     -0.207200
     18 C           3.7500    2.9080    3.9430 c2        1 2EE     -0.174000
     19 C16         4.3010   -0.7100   -2.4330 c3        1 2EE      0.196100
     20 N           5.4210   -1.7150   -2.3370 ny        1 2EE     -0.774000
     21 C17         5.9010   -2.1150   -3.6860 c3        1 2EE      0.108800
     22 C18         6.9630   -3.2130   -3.6500 c3        1 2EE     -0.143400
     23 C19         7.4250   -3.4710   -5.0830 c3        1 2EE      0.106800
     24 N1          8.4760   -4.5170   -5.1880 ny        1 2EE     -0.685800
     25 C20         9.1530   -4.4470   -6.6080 c         1 2EE      0.628100
     26 O1          9.8910   -3.4660   -6.6990 o         1 2EE     -0.467100
     27 N2          8.7160   -5.3430   -7.5470 ns        1 2EE     -0.328100
     28 C21         9.4470   -5.5140   -8.7430 cc        1 2EE     -0.095400
     29 C24        10.0620   -4.4530   -9.4920 cc        1 2EE     -0.122000
     30 C23        10.6230   -4.9520  -10.6500 cd        1 2EE     -0.192100
     31 S          10.4130   -6.5870  -10.8020 ss        1 2EE      0.288200
     32 C22         9.6040   -6.7510   -9.3860 cd        1 2EE     -0.231100
     33 H1          2.0370    0.9010    2.1690 ha        1 2EE      0.189000
     34 H2          1.7420   -1.1320   -1.6470 ha        1 2EE      0.158000
     35 H3          7.3670    0.9650    0.8080 h1        1 2EE      0.090700
     36 H4          6.2600   -0.3150    1.5300 h1        1 2EE      0.090700
     37 H5          7.2260   -2.4530    1.6380 ha        1 2EE      0.157500
     38 H6          8.8900   -4.1290    0.8530 ha        1 2EE      0.154500
     39 H7         10.3170   -3.6410   -1.1360 ha        1 2EE      0.147000
     40 H8         10.0590   -1.4740   -2.3580 ha        1 2EE      0.154500
     41 H9          8.3920    0.2110   -1.5690 ha        1 2EE      0.157500
     42 H10         5.5290    2.0380    1.5560 hc        1 2EE      0.065200
     43 H11         5.0180    0.8850    2.8660 hc        1 2EE      0.065200
     44 H12         3.2560    3.2630    1.9070 ha        1 2EE      0.136000
     45 H13         4.2900    2.3190    4.6970 ha        1 2EE      0.129000
     46 H14         3.1570    3.7420    4.3460 ha        1 2EE      0.129000
     47 H15         4.7410    0.2310   -2.8780 hx        1 2EE      0.110200
     48 H16         3.5180   -1.1250   -3.1310 hx        1 2EE      0.110200
     49 H17         6.1940   -1.2850   -1.7890 hn        1 2EE      0.466800
     50 H19         6.3170   -1.1920   -4.1870 hx        1 2EE      0.112200
     51 H20         5.0100   -2.4700   -4.2830 hx        1 2EE      0.112200
     52 H21         6.5360   -4.1500   -3.2010 hc        1 2EE      0.091700
     53 H22         7.8340   -2.8880   -3.0100 hc        1 2EE      0.091700
     54 H23         6.5530   -3.7920   -5.7230 hx        1 2EE      0.122200
     55 H24         7.8570   -2.5180   -5.5190 hx        1 2EE      0.122200
     56 H25         8.0870   -5.4370   -4.9810 hn        1 2EE      0.455300
     57 H26         8.1950   -6.1500   -7.2620 hn        1 2EE      0.340500
     58 H27        10.0850   -3.4090   -9.1710 ha        1 2EE      0.179000
     59 H28        11.1490   -4.3420  -11.3900 h4        1 2EE      0.208000
     60 H29         9.2320   -7.7090   -9.0170 h4        1 2EE      0.188000
     61 HN3         5.0900   -2.5370   -1.8210 hn        1 2EE      0.466800
     62 H121        9.2260   -4.3190   -4.5130 hn        1 2EE      0.455300
@<TRIPOS>BOND
     1    1    2 1   
     2    2    3 ar  
     3    2    4 ar  
     4    3   15 ar  
     5    3   33 1   
     6    4    5 ar  
     7    4   34 1   
     8    5    6 ar  
     9    5   19 1   
    10    6    7 1   
    11    6   15 ar  
    12    7    8 1   
    13    8    9 1   
    14    8   35 1   
    15    8   36 1   
    16    9   10 ar  
    17    9   14 ar  
    18   10   11 ar  
    19   10   37 1   
    20   11   12 ar  
    21   11   38 1   
    22   12   13 ar  
    23   12   39 1   
    24   13   14 ar  
    25   13   40 1   
    26   14   41 1   
    27   15   16 1   
    28   16   17 1   
    29   16   42 1   
    30   16   43 1   
    31   17   18 2   
    32   17   44 1   
    33   18   45 1   
    34   18   46 1   
    35   19   20 1   
    36   19   47 1   
    37   19   48 1   
    38   20   21 1   
    39   20   49 1   
    40   20   61 1   
    41   21   22 1   
    42   21   50 1   
    43   21   51 1   
    44   22   23 1   
    45   22   52 1   
    46   22   53 1   
    47   23   24 1   
    48   23   54 1   
    49   23   55 1   
    50   24   25 1   
    51   24   56 1   
    52   24   62 1   
    53   25   26 2   
    54   25   27 1   
    55   27   28 1   
    56   27   57 1   
    57   28   29 1   
    58   28   32 2   
    59   29   30 2   
    60   29   58 1   
    61   30   31 1   
    62   30   59 1   
    63   31   32 1   
    64   32   60 1   
@<TRIPOS>SUBSTRUCTURE
     1 2EE         1 TEMP              0 ****  ****    0 ROOT
