@<TRIPOS>MOLECULE
2EF
   48    49     1     0     0
SMALL
bcc


@<TRIPOS>ATOM
      1 I           0.3560    1.3520    0.2840 i         1 2EF     -0.048900
      2 C16         2.2390    0.6160    0.1860 ca        1 2EF     -0.025100
      3 C2          2.9930    0.1150    1.2560 ca        1 2EF      0.180100
      4 O           2.5660   -0.0710    2.5570 os        1 2EF     -0.397900
      5 C1          1.2220   -0.5520    2.7710 c3        1 2EF      0.116400
      6 C           1.2990   -1.5110    3.9370 c3        1 2EF     -0.116100
      7 C15         2.8380    0.7050   -1.0750 ca        1 2EF     -0.022000
      8 C14         4.1750    0.3370   -1.2720 ca        1 2EF     -0.008600
      9 CL          4.8620    0.4330   -2.8100 cl        1 2EF     -0.009400
     10 C13         4.9480   -0.0870   -0.1890 ca        1 2EF     -0.053000
     11 C3          4.3670   -0.1880    1.0770 ca        1 2EF     -0.223300
     12 C4          5.2290   -0.4770    2.2540 c3        1 2EF      0.199100
     13 N           4.8150   -1.7540    2.9450 n4        1 2EF     -0.774000
     14 C5          5.7080   -2.0700    4.0900 c3        1 2EF      0.104800
     15 C6          5.3300   -3.3620    4.8140 c3        1 2EF     -0.134400
     16 C7          6.2800   -3.5370    5.9990 c3        1 2EF      0.104800
     17 N1          5.9840   -4.7330    6.8300 n4        1 2EF     -0.687800
     18 C8          6.7690   -4.6360    8.1960 c         1 2EF      0.629100
     19 O1          6.3840   -3.6750    8.8610 o         1 2EF     -0.467100
     20 N2          7.8260   -5.4890    8.3630 n         1 2EF     -0.325100
     21 C9          8.3960   -5.6530    9.6450 cc        1 2EF     -0.097400
     22 C12         8.6200   -4.5920   10.5880 cc        1 2EF     -0.121000
     23 C11         9.2690   -5.0780   11.7050 cd        1 2EF     -0.192100
     24 S           9.5740   -6.7020   11.6030 ss        1 2EF      0.292200
     25 C10         8.8800   -6.8780   10.1290 cd        1 2EF     -0.231100
     26 H1          0.5910    0.3410    3.0280 h1        1 2EF      0.087200
     27 H2          0.8270   -1.0600    1.8540 h1        1 2EF      0.087200
     28 H3          1.8760   -2.4290    3.6680 hc        1 2EF      0.047700
     29 H4          0.2590   -1.8140    4.2180 hc        1 2EF      0.047700
     30 H5          1.7790   -1.0240    4.8190 hc        1 2EF      0.047700
     31 H6          2.2540    1.0840   -1.9370 ha        1 2EF      0.194000
     32 H7          6.0170   -0.3190   -0.3330 ha        1 2EF      0.162000
     33 H8          6.3110   -0.5820    1.9510 hx        1 2EF      0.112700
     34 H9          5.1280    0.3550    3.0130 hx        1 2EF      0.112700
     35 H10         3.8390   -1.6290    3.2730 hn        1 2EF      0.464300
     36 H12         6.7640   -2.1470    3.6980 hx        1 2EF      0.116700
     37 H13         5.6620   -1.1990    4.8100 hx        1 2EF      0.116700
     38 H14         5.4130   -4.2370    4.1150 hc        1 2EF      0.085200
     39 H15         4.2660   -3.3060    5.1740 hc        1 2EF      0.085200
     40 H16         6.2110   -2.6310    6.6780 hx        1 2EF      0.125700
     41 H17         7.3440   -3.6250    5.6340 hx        1 2EF      0.125700
     42 H18         4.9890   -4.7400    7.0820 hn        1 2EF      0.454300
     43 H19         7.9260   -6.2850    7.7630 hn        1 2EF      0.341500
     44 H20         8.3050   -3.5570   10.4340 ha        1 2EF      0.179000
     45 H21         9.5540   -4.4660   12.5660 h4        1 2EF      0.208000
     46 H22         8.8250   -7.8330    9.6030 h4        1 2EF      0.189000
     47 HN3         4.8250   -2.5220    2.2650 hn        1 2EF      0.464300
     48 H121        6.1950   -5.5860    6.3110 hn        1 2EF      0.454300
@<TRIPOS>BOND
     1    1    2 1   
     2    2    3 ar  
     3    2    7 ar  
     4    3    4 1   
     5    3   11 ar  
     6    4    5 1   
     7    5    6 1   
     8    5   26 1   
     9    5   27 1   
    10    6   28 1   
    11    6   29 1   
    12    6   30 1   
    13    7    8 ar  
    14    7   31 1   
    15    8    9 1   
    16    8   10 ar  
    17   10   11 ar  
    18   10   32 1   
    19   11   12 1   
    20   12   13 1   
    21   12   33 1   
    22   12   34 1   
    23   13   14 1   
    24   13   35 1   
    25   13   47 1   
    26   14   15 1   
    27   14   36 1   
    28   14   37 1   
    29   15   16 1   
    30   15   38 1   
    31   15   39 1   
    32   16   17 1   
    33   16   40 1   
    34   16   41 1   
    35   17   18 1   
    36   17   42 1   
    37   17   48 1   
    38   18   19 2   
    39   18   20 1   
    40   20   21 1   
    41   20   43 1   
    42   21   22 1   
    43   21   25 2   
    44   22   23 2   
    45   22   44 1   
    46   23   24 1   
    47   23   45 1   
    48   24   25 1   
    49   25   46 1   
@<TRIPOS>SUBSTRUCTURE
     1 2EF         1 TEMP              0 ****  ****    0 ROOT
