@<TRIPOS>MOLECULE
2EF
   48    49     1     0     0
SMALL
bcc


@<TRIPOS>ATOM
      1 I           0.3340    1.3410    0.2990 i         1 2EF     -0.048900
      2 C16         2.2220    0.6210    0.2010 ca        1 2EF     -0.025100
      3 C2          2.9790    0.1190    1.2680 ca        1 2EF      0.180100
      4 O           2.5510   -0.0790    2.5670 os        1 2EF     -0.397900
      5 C1          1.2100   -0.5720    2.7760 c3        1 2EF      0.116400
      6 C           1.2930   -1.5370    3.9360 c3        1 2EF     -0.116100
      7 C15         2.8240    0.7230   -1.0590 ca        1 2EF     -0.022000
      8 C14         4.1630    0.3670   -1.2560 ca        1 2EF     -0.008600
      9 Cl          4.8520    0.4780   -2.7920 cl        1 2EF     -0.009400
     10 C13         4.9380   -0.0570   -0.1740 ca        1 2EF     -0.053000
     11 C3          4.3550   -0.1720    1.0890 ca        1 2EF     -0.223300
     12 C4          5.2180   -0.4620    2.2660 c3        1 2EF      0.199100
     13 N           4.8130   -1.7470    2.9480 ny        1 2EF     -0.774000
     14 C5          5.7060   -2.0620    4.0930 c3        1 2EF      0.104800
     15 C6          5.3390   -3.3630    4.8080 c3        1 2EF     -0.134400
     16 C7          6.2870   -3.5370    5.9930 c3        1 2EF      0.104800
     17 N1          6.0000   -4.7420    6.8150 ny        1 2EF     -0.687800
     18 C8          6.7800   -4.6460    8.1840 c         1 2EF      0.629100
     19 O1          6.3830   -3.6940    8.8540 o         1 2EF     -0.467100
     20 N2          7.8450   -5.4890    8.3480 ns        1 2EF     -0.325100
     21 C9          8.4130   -5.6560    9.6310 cc        1 2EF     -0.097400
     22 C12         8.6220   -4.6000   10.5830 cc        1 2EF     -0.122000
     23 C11         9.2730   -5.0880   11.6990 cd        1 2EF     -0.192100
     24 S           9.5960   -6.7070   11.5850 ss        1 2EF      0.292200
     25 C10         8.9080   -6.8800   10.1080 cd        1 2EF     -0.231100
     26 H1          0.8210   -1.0780    1.8550 h1        1 2EF      0.087200
     27 H2          0.5720    0.3150    3.0370 h1        1 2EF      0.087200
     28 H3          1.8780   -2.4490    3.6630 hc        1 2EF      0.047700
     29 H4          1.7670   -1.0520    4.8220 hc        1 2EF      0.047700
     30 H5          0.2550   -1.8510    4.2130 hc        1 2EF      0.047700
     31 H6          2.2380    1.1030   -1.9190 ha        1 2EF      0.194000
     32 H7          6.0090   -0.2800   -0.3180 ha        1 2EF      0.162000
     33 H8          6.3010   -0.5560    1.9650 hx        1 2EF      0.112700
     34 H9          5.1090    0.3640    3.0310 hx        1 2EF      0.112700
     35 H10         3.8350   -1.6320    3.2750 hn        1 2EF      0.464300
     36 H12         6.7640   -2.1280    3.7020 hx        1 2EF      0.116700
     37 H13         5.6520   -1.1970    4.8190 hx        1 2EF      0.116700
     38 H14         4.2740   -3.3190    5.1650 hc        1 2EF      0.085200
     39 H15         5.4310   -4.2320    4.1030 hc        1 2EF      0.085200
     40 H16         7.3530   -3.6130    5.6300 hx        1 2EF      0.125700
     41 H17         6.2080   -2.6370    6.6780 hx        1 2EF      0.125700
     42 H18         5.0040   -4.7610    7.0640 hn        1 2EF      0.454300
     43 H19         7.9560   -6.2800    7.7430 hn        1 2EF      0.341500
     44 H20         8.2960   -3.5670   10.4360 ha        1 2EF      0.179000
     45 H21         9.5480   -4.4780   12.5650 h4        1 2EF      0.208000
     46 H22         8.8650   -7.8310    9.5750 h4        1 2EF      0.189000
     47 HN3         4.8300   -2.5100    2.2630 hn        1 2EF      0.464300
     48 H121        6.2210   -5.5890    6.2910 hn        1 2EF      0.454300
@<TRIPOS>BOND
     1    1    2 1   
     2    2    3 ar  
     3    2    7 ar  
     4    3    4 1   
     5    3   11 ar  
     6    4    5 1   
     7    5    6 1   
     8    5   26 1   
     9    5   27 1   
    10    6   28 1   
    11    6   29 1   
    12    6   30 1   
    13    7    8 ar  
    14    7   31 1   
    15    8    9 1   
    16    8   10 ar  
    17   10   11 ar  
    18   10   32 1   
    19   11   12 1   
    20   12   13 1   
    21   12   33 1   
    22   12   34 1   
    23   13   14 1   
    24   13   35 1   
    25   13   47 1   
    26   14   15 1   
    27   14   36 1   
    28   14   37 1   
    29   15   16 1   
    30   15   38 1   
    31   15   39 1   
    32   16   17 1   
    33   16   40 1   
    34   16   41 1   
    35   17   18 1   
    36   17   42 1   
    37   17   48 1   
    38   18   19 2   
    39   18   20 1   
    40   20   21 1   
    41   20   43 1   
    42   21   22 1   
    43   21   25 2   
    44   22   23 2   
    45   22   44 1   
    46   23   24 1   
    47   23   45 1   
    48   24   25 1   
    49   25   46 1   
@<TRIPOS>SUBSTRUCTURE
     1 2EF         1 TEMP              0 ****  ****    0 ROOT
