@<TRIPOS>MOLECULE
2EF
   49    50     1     0     0
SMALL
bcc


@<TRIPOS>ATOM
      1 I           2.9830   -2.4010   -1.7450 i         1 2EF     -0.035900
      2 C16         3.4660   -0.9260   -0.4480 ca        1 2EF     -0.003100
      3 C2          3.4630   -1.0560    0.9460 ca        1 2EF      0.153100
      4 O           3.1440   -2.2290    1.6140 os        1 2EF     -0.421900
      5 C1          1.7670   -2.6590    1.5160 c3        1 2EF      0.125400
      6 C           0.9000   -1.9250    2.5060 c3        1 2EF     -0.134100
      7 C15         3.8670    0.2910   -1.0090 ca        1 2EF     -0.021000
      8 C14         4.2960    1.3540   -0.2000 ca        1 2EF      0.004400
      9 CL          4.7650    2.8120   -0.9030 cl        1 2EF      0.008600
     10 C13         4.3430    1.2040    1.1880 ca        1 2EF     -0.063000
     11 C3          3.9240    0.0020    1.7650 ca        1 2EF     -0.224300
     12 C4          3.9200   -0.1590    3.2410 c3        1 2EF      0.204100
     13 N           4.9020   -1.2510    3.6340 n4        1 2EF     -0.778000
     14 C5          5.0060   -1.4080    5.1050 c3        1 2EF      0.105800
     15 C6          5.9890   -2.5050    5.5370 c3        1 2EF     -0.136400
     16 C7          6.0050   -2.5490    7.0640 c3        1 2EF      0.112800
     17 N1          6.9980   -3.5500    7.6100 n4        1 2EF     -0.641800
     18 C8          7.1690   -3.3890    9.0940 c         1 2EF      0.471100
     19 O1          7.0080   -2.3010    9.6180 o         1 2EF     -0.287100
     20 N2          7.5590   -4.5950    9.9040 n4        1 2EF     -0.435200
     21 C9          8.1400   -5.6700    9.1540 cc        1 2EF     -0.251400
     22 C12         7.3750   -6.7180    8.5300 cc        1 2EF     -0.137000
     23 C11         8.2280   -7.7010    8.0710 cd        1 2EF     -0.203100
     24 S           9.8160   -7.3780    8.4000 ss        1 2EF      0.531200
     25 C10         9.5240   -5.9570    9.1140 cd        1 2EF     -0.221100
     26 H1          1.3900   -2.5240    0.4680 h1        1 2EF      0.088700
     27 H2          1.8380   -3.7560    1.7520 h1        1 2EF      0.088700
     28 H3          1.2560   -2.0870    3.5520 hc        1 2EF      0.054033
     29 H4         -0.1490   -2.3080    2.4270 hc        1 2EF      0.054033
     30 H5          0.8900   -0.8290    2.2940 hc        1 2EF      0.054033
     31 H6          3.8530    0.4250   -2.1100 ha        1 2EF      0.201000
     32 H7          4.6890    2.0390    1.8210 ha        1 2EF      0.164000
     33 H8          2.9000   -0.4950    3.5960 hx        1 2EF      0.113700
     34 H9          4.2210    0.7900    3.7670 hx        1 2EF      0.113700
     35 H10         5.8190   -1.0260    3.2300 hn        1 2EF      0.469800
     36 H12         5.3300   -0.4140    5.5370 hx        1 2EF      0.119700
     37 H13         3.9730   -1.6430    5.4980 hx        1 2EF      0.119700
     38 H14         5.6650   -3.4970    5.1170 hc        1 2EF      0.096700
     39 H15         7.0150   -2.2770    5.1370 hc        1 2EF      0.096700
     40 H16         6.2840   -1.5310    7.4760 hx        1 2EF      0.140200
     41 H17         4.9870   -2.8350    7.4610 hx        1 2EF      0.140200
     42 H18         7.9220   -3.3930    7.1680 hn        1 2EF      0.495800
     43 H19         8.2380   -4.2660   10.6270 hn        1 2EF      0.524300
     44 H20         6.2820   -6.7660    8.4840 ha        1 2EF      0.186000
     45 H21         7.8880   -8.6210    7.5710 h4        1 2EF      0.245000
     46 H22        10.3100   -5.3240    9.5490 h4        1 2EF      0.224000
     47 HN3         4.5690   -2.1290    3.1950 hn        1 2EF      0.469800
     48 H121        6.6990   -4.5140    7.3810 hn        1 2EF      0.495800
     49 H221        6.7040   -4.9350   10.3920 hn        1 2EF      0.524300
@<TRIPOS>BOND
     1    1    2 1   
     2    2    3 ar  
     3    2    7 ar  
     4    3    4 1   
     5    3   11 ar  
     6    4    5 1   
     7    5    6 1   
     8    5   26 1   
     9    5   27 1   
    10    6   28 1   
    11    6   29 1   
    12    6   30 1   
    13    7    8 ar  
    14    7   31 1   
    15    8    9 1   
    16    8   10 ar  
    17   10   11 ar  
    18   10   32 1   
    19   11   12 1   
    20   12   13 1   
    21   12   33 1   
    22   12   34 1   
    23   13   14 1   
    24   13   35 1   
    25   13   47 1   
    26   14   15 1   
    27   14   36 1   
    28   14   37 1   
    29   15   16 1   
    30   15   38 1   
    31   15   39 1   
    32   16   17 1   
    33   16   40 1   
    34   16   41 1   
    35   17   18 1   
    36   17   42 1   
    37   17   48 1   
    38   18   19 2   
    39   18   20 1   
    40   20   21 1   
    41   20   43 1   
    42   20   49 1   
    43   21   22 1   
    44   21   25 2   
    45   22   23 2   
    46   22   44 1   
    47   23   24 1   
    48   23   45 1   
    49   24   25 1   
    50   25   46 1   
@<TRIPOS>SUBSTRUCTURE
     1 2EF         1 TEMP              0 ****  ****    0 ROOT
