@<TRIPOS>MOLECULE
2EG
   41    43     1     0     0
SMALL
bcc


@<TRIPOS>ATOM
      1 OP3         4.3200    1.2640    1.8510 o         1 2EG     -0.930167
      2 OP1         6.5390    0.2840    1.0070 o         1 2EG     -0.930167
      3 P           5.1060    0.0580    1.3750 p5        1 2EG      1.331900
      4 OP2         4.7370   -1.2240    2.0640 o         1 2EG     -0.930167
      5 O5'         4.3130   -0.1450   -0.1710 os        1 2EG     -0.553200
      6 C5'         2.9740   -0.3960   -0.0710 c3        1 2EG      0.229400
      7 C4'         2.1590    0.8880   -0.3620 c3        1 2EG      0.054100
      8 O4'         0.9730    0.5560   -1.1350 os        1 2EG     -0.433600
      9 C3'         1.7020    1.6370    0.9050 c3        1 2EG      0.158100
     10 O3'         2.2970    2.9120    0.9860 oh        1 2EG     -0.674800
     11 C2'         0.1840    1.8190    0.7480 c3        1 2EG     -0.128400
     12 C1'        -0.2070    0.9300   -0.4500 c3        1 2EG      0.251800
     13 N9         -0.9540   -0.2770   -0.0760 na        1 2EG     -0.182900
     14 C4         -2.3400   -0.4300   -0.1100 cc        1 2EG      0.051800
     15 N3         -3.3220    0.4940   -0.4360 nc        1 2EG     -0.620100
     16 C8         -0.4360   -1.5300    0.3080 cc        1 2EG      0.451400
     17 N7         -1.3940   -2.4600    0.5280 nd        1 2EG     -0.631000
     18 C5         -2.5950   -1.8010    0.2750 cd        1 2EG      0.194800
     19 C6         -3.9630   -2.2640    0.3490 c         1 2EG      0.646000
     20 O6         -4.3930   -3.3910    0.6580 o         1 2EG     -0.644500
     21 N1         -4.9290   -1.2830    0.0070 n         1 2EG     -0.503400
     22 C2         -4.5800    0.0410   -0.3430 cd        1 2EG      0.610800
     23 N2         -5.7030    0.9190   -0.5730 nh        1 2EG     -0.785200
     24 C21        -5.4040    2.3370   -0.6660 c3        1 2EG      0.174800
     25 C22        -6.6590    3.1740   -0.8690 c3        1 2EG     -0.100100
     26 H5'         2.6690   -1.1600   -0.8480 h1        1 2EG     -0.003800
     27 H5''        2.7100   -0.7920    0.9520 h1        1 2EG     -0.003800
     28 H4'         2.7570    1.5670   -1.0280 h1        1 2EG      0.082700
     29 H3'         1.9540    1.0470    1.8290 h1        1 2EG      0.105700
     30 H2'        -0.3500    1.5450    1.6870 hc        1 2EG      0.053700
     31 H2''       -0.0570    2.8820    0.5020 hc        1 2EG      0.053700
     32 H1'        -0.8560    1.4800   -1.1940 h2        1 2EG      0.065700
     33 H8          0.6570   -1.6790    0.3990 h5        1 2EG      0.117100
     34 H1         -5.8870   -1.5280    0.1110 hn        1 2EG      0.320500
     35 H21        -6.2290    0.6050   -1.3680 hn        1 2EG      0.376800
     36 H211       -4.9050    2.6440    0.2970 h1        1 2EG      0.059200
     37 H212       -4.6840    2.5680   -1.5060 h1        1 2EG      0.059200
     38 H221       -7.3870    3.0210   -0.0370 hc        1 2EG      0.035033
     39 H222       -6.3650    4.2510   -0.8920 hc        1 2EG      0.035033
     40 H223       -7.1630    2.9220   -1.8320 hc        1 2EG      0.035033
     41 HO1         3.2200    2.7440    1.2940 ho        1 2EG      0.502000
@<TRIPOS>BOND
     1    1    3 1   
     2    2    3 1   
     3    3    4 1   
     4    3    5 1   
     5    5    6 1   
     6    6    7 1   
     7    6   26 1   
     8    6   27 1   
     9    7    8 1   
    10    7    9 1   
    11    7   28 1   
    12    8   12 1   
    13    9   10 1   
    14    9   11 1   
    15    9   29 1   
    16   10   41 1   
    17   11   12 1   
    18   11   30 1   
    19   11   31 1   
    20   12   13 1   
    21   12   32 1   
    22   13   14 1   
    23   13   16 1   
    24   14   15 1   
    25   14   18 2   
    26   15   22 2   
    27   16   17 2   
    28   16   33 1   
    29   17   18 1   
    30   18   19 1   
    31   19   20 2   
    32   19   21 1   
    33   21   22 1   
    34   21   34 1   
    35   22   23 1   
    36   23   24 1   
    37   23   35 1   
    38   24   25 1   
    39   24   36 1   
    40   24   37 1   
    41   25   38 1   
    42   25   39 1   
    43   25   40 1   
@<TRIPOS>SUBSTRUCTURE
     1 2EG         1 TEMP              0 ****  ****    0 ROOT
