@<TRIPOS>MOLECULE
2EG
   41    40     1     0     0
SMALL
bcc


@<TRIPOS>ATOM
      1 OP3        -2.8520    6.7590    2.6210 o         1 2EG     -0.930167
      2 OP1        -0.5560    6.0850    3.2130 o         1 2EG     -0.930167
      3 P          -2.0120    5.6780    3.2500 p5        1 2EG      1.565500
      4 OP2        -2.4420    5.4760    4.6850 o         1 2EG     -0.930167
      5 O5'        -2.2030    4.3310    2.4480 os        1 2EG     -0.715000
      6 C5'        -1.2770    3.2840    2.6570 c3        1 2EG      0.079000
      7 C4'        -1.8950    1.9530    2.1950 c3        1 2EG     -0.058000
      8 O4'        -1.8650    1.8690    0.9140 os        1 2EG     -0.290000
      9 C3'        -1.0290    0.7440    2.7070 c3        1 2EG      0.047000
     10 O3'        -1.6990    0.0590    3.6690 oh        1 2EG     -0.401000
     11 C2'        -0.8050   -0.1320    1.5020 c3        1 2EG     -0.208000
     12 C1'        -1.6380    0.3320    0.5790 c3        1 2EG      0.160000
     13 N9         -1.0660    0.1940   -0.7040 n3        1 2EG     -0.136000
     14 C4         -0.2740   -0.5610   -1.5110 c1        1 2EG     -0.004000
     15 N3          0.9250   -1.3550   -1.2390 n1        1 2EG     -0.189000
     16 C8         -1.9900    0.8090   -1.4790 c1        1 2EG     -0.035000
     17 N7         -1.7730    0.4360   -2.7690 n2        1 2EG     -0.106000
     18 C5         -0.7130   -0.4100   -2.7880 c1        1 2EG     -0.218000
     19 C6         -0.0170   -1.1390   -3.9170 c1        1 2EG      0.390000
     20 O6         -0.4710   -1.0870   -5.0490 o         1 2EG     -0.368000
     21 N1          1.1290   -1.8970   -3.6560 n3        1 2EG     -0.332000
     22 C2          1.6160   -2.0170   -2.3220 c2        1 2EG      0.150000
     23 N2          2.8710   -2.7040   -2.0670 n3        1 2EG     -0.259000
     24 C21         2.9650   -4.1370   -2.2590 c3        1 2EG     -0.076000
     25 C22         4.4230   -4.6040   -1.9840 c3        1 2EG     -0.217000
     26 H5'        -0.4670    3.4600    2.1460 h1        1 2EG      0.035500
     27 H5''       -1.0570    3.2280    3.6060 h1        1 2EG      0.035500
     28 H4'        -2.8190    1.8730    2.5220 h1        1 2EG      0.122000
     29 H3'        -0.1730    1.0650    3.0540 h1        1 2EG      0.145000
     30 H2'        -1.0180   -1.0670    1.7160 hc        1 2EG      0.093500
     31 H2''        0.1230   -0.0560    1.1930 hc        1 2EG      0.093500
     32 H1'        -2.4910   -0.1500    0.6220 h2        1 2EG      0.106000
     33 H8         -2.7260    1.3720   -1.1600 DU        1 2EG      0.255000
     34 H1          1.5660   -2.3150   -4.3410 hn        1 2EG      0.238000
     35 H21         3.6040   -2.2320   -1.8130 hn        1 2EG      0.191000
     36 H211        2.7190   -4.3600   -3.1830 h1        1 2EG      0.081500
     37 H212        2.3550   -4.5890   -1.6400 h1        1 2EG      0.081500
     38 H221        4.6670   -4.3920   -1.0490 hc        1 2EG      0.077667
     39 H222        4.4890   -5.5770   -2.1280 hc        1 2EG      0.077667
     40 H223        5.0370   -4.1410   -2.5970 hc        1 2EG      0.077667
     41 HO1        -1.1600   -0.0870    4.3580 ho        1 2EG      0.301000
@<TRIPOS>BOND
     1    1    3 1   
     2    2    3 1   
     3    3    4 1   
     4    3    5 1   
     5    5    6 1   
     6    6    7 1   
     7    6   26 1   
     8    6   27 1   
     9    7    8 1   
    10    7    9 1   
    11    7   28 1   
    12    8   12 1   
    13    9   10 1   
    14    9   11 1   
    15    9   29 1   
    16   10   41 1   
    17   11   12 1   
    18   11   30 1   
    19   11   31 1   
    20   12   13 1   
    21   12   32 1   
    22   13   14 1   
    23   13   16 1   
    24   14   18 1   
    25   15   22 1   
    26   16   17 1   
    27   17   18 1   
    28   19   20 1   
    29   19   21 1   
    30   21   22 1   
    31   21   34 1   
    32   22   23 1   
    33   23   24 1   
    34   23   35 1   
    35   24   25 1   
    36   24   36 1   
    37   24   37 1   
    38   25   38 1   
    39   25   39 1   
    40   25   40 1   
@<TRIPOS>SUBSTRUCTURE
     1 2EG         1 TEMP              0 ****  ****    0 ROOT
