@<TRIPOS>MOLECULE
2EH
   27    26     1     0     0
SMALL
bcc


@<TRIPOS>ATOM
      1 C7          1.2670    1.4100    0.4380 c3        1 2EH      0.131400
      2 C8          2.0680   -0.9500    0.2990 c3        1 2EH     -0.077400
      3 C9          2.0660   -2.1990   -0.5430 c3        1 2EH     -0.091100
      4 C12        -1.5750    0.1140   -0.2280 c3        1 2EH     -0.080400
      5 C7A         0.9390    0.0050   -0.0670 c3        1 2EH     -0.065700
      6 O7C         2.3140    1.9220   -0.3720 oh        1 2EH     -0.602800
      7 CBA        -0.3870   -0.4560    0.5180 c3        1 2EH     -0.078400
      8 CCA        -2.8800   -0.3590    0.3770 c3        1 2EH     -0.080400
      9 CCB        -4.0670    0.2010   -0.3630 c3        1 2EH     -0.093100
     10 H7          0.3660    2.0760    0.3550 h1        1 2EH      0.021700
     11 H7A         1.5950    1.3750    1.5120 h1        1 2EH      0.021700
     12 H8          1.9880   -1.2230    1.3840 hc        1 2EH      0.045200
     13 H8A         3.0450   -0.4130    0.1580 hc        1 2EH      0.045200
     14 H9          1.1160   -2.7710   -0.4150 hc        1 2EH      0.032367
     15 H9A         2.1770   -1.9440   -1.6250 hc        1 2EH      0.032367
     16 H9B         2.9160   -2.8610   -0.2490 hc        1 2EH      0.032367
     17 H12        -1.5390    1.2350   -0.2070 hc        1 2EH      0.040700
     18 H12A       -1.5270   -0.1970   -1.3050 hc        1 2EH      0.040700
     19 H7AA        0.8590    0.0500   -1.1890 hc        1 2EH      0.067700
     20 HO7C        2.5210    2.7990   -0.0290 ho        1 2EH      0.398000
     21 HBA        -0.4440   -0.1630    1.5990 hc        1 2EH      0.042700
     22 HBAA       -0.4370   -1.5770    0.4780 hc        1 2EH      0.042700
     23 HCA        -2.9170   -1.4810    0.3550 hc        1 2EH      0.038200
     24 HCAA       -2.9270   -0.0500    1.4540 hc        1 2EH      0.038200
     25 HCB        -5.0180   -0.1610    0.0980 hc        1 2EH      0.033033
     26 HCBA       -4.0620    1.3170   -0.3310 hc        1 2EH      0.033033
     27 HCBB       -4.0510   -0.1180   -1.4330 hc        1 2EH      0.033033
@<TRIPOS>BOND
     1    1    5 1   
     2    1    6 1   
     3    1   10 1   
     4    1   11 1   
     5    2    3 1   
     6    2    5 1   
     7    2   12 1   
     8    2   13 1   
     9    3   14 1   
    10    3   15 1   
    11    3   16 1   
    12    4    7 1   
    13    4    8 1   
    14    4   17 1   
    15    4   18 1   
    16    5    7 1   
    17    5   19 1   
    18    6   20 1   
    19    7   21 1   
    20    7   22 1   
    21    8    9 1   
    22    8   23 1   
    23    8   24 1   
    24    9   25 1   
    25    9   26 1   
    26    9   27 1   
@<TRIPOS>SUBSTRUCTURE
     1 2EH         1 TEMP              0 ****  ****    0 ROOT
