@<TRIPOS>MOLECULE
2EH
   27    26     1     0     0
SMALL
bcc


@<TRIPOS>ATOM
      1 C7         -0.0560    0.1400   -0.0750 c3        1 2EH      0.131400
      2 C8          2.1120    1.2250   -0.6660 c3        1 2EH     -0.077400
      3 C9          3.5640    0.9750   -0.9800 c3        1 2EH     -0.091100
      4 C12         1.6850   -1.3100    2.1750 c3        1 2EH     -0.080400
      5 C7A         1.4640    0.0600    0.0690 c3        1 2EH     -0.065700
      6 O7C        -0.3760   -0.1900   -1.4190 oh        1 2EH     -0.602800
      7 CBA         1.8410    0.0570    1.5430 c3        1 2EH     -0.078400
      8 CCA         2.0660   -1.2830    3.6400 c3        1 2EH     -0.080400
      9 CCB         1.9160   -2.6410    4.2750 c3        1 2EH     -0.093100
     10 H7         -0.5550   -0.5880    0.6200 h1        1 2EH      0.021700
     11 H7A        -0.4190    1.1760    0.1620 h1        1 2EH      0.021700
     12 H8          1.5530    1.3940   -1.6260 hc        1 2EH      0.045200
     13 H8A         2.0120    2.1570   -0.0500 hc        1 2EH      0.045200
     14 H9          3.9940    1.8480   -1.5290 hc        1 2EH      0.032367
     15 H9A         3.6780    0.0660   -1.6200 hc        1 2EH      0.032367
     16 H9B         4.1590    0.8220   -0.0470 hc        1 2EH      0.032367
     17 H12         0.6250   -1.6620    2.0710 hc        1 2EH      0.040700
     18 H12A        2.3320   -2.0510    1.6340 hc        1 2EH      0.040700
     19 H7AA        1.8080   -0.9000   -0.4080 hc        1 2EH      0.067700
     20 HO7C       -1.3330   -0.1160   -1.4980 ho        1 2EH      0.398000
     21 HBA         2.9090    0.3870    1.6500 hc        1 2EH      0.042700
     22 HBAA        1.2100    0.8030    2.0950 hc        1 2EH      0.042700
     23 HCA         1.4200   -0.5410    4.1810 hc        1 2EH      0.038200
     24 HCAA        3.1270   -0.9330    3.7440 hc        1 2EH      0.038200
     25 HCB         0.8600   -2.9960    4.2050 hc        1 2EH      0.033033
     26 HCBA        2.2030   -2.5990    5.3540 hc        1 2EH      0.033033
     27 HCBB        2.5710   -3.3890    3.7650 hc        1 2EH      0.033033
@<TRIPOS>BOND
     1    1    5 1   
     2    1    6 1   
     3    1   10 1   
     4    1   11 1   
     5    2    3 1   
     6    2    5 1   
     7    2   12 1   
     8    2   13 1   
     9    3   14 1   
    10    3   15 1   
    11    3   16 1   
    12    4    7 1   
    13    4    8 1   
    14    4   17 1   
    15    4   18 1   
    16    5    7 1   
    17    5   19 1   
    18    6   20 1   
    19    7   21 1   
    20    7   22 1   
    21    8    9 1   
    22    8   23 1   
    23    8   24 1   
    24    9   25 1   
    25    9   26 1   
    26    9   27 1   
@<TRIPOS>SUBSTRUCTURE
     1 2EH         1 TEMP              0 ****  ****    0 ROOT
