@<TRIPOS>MOLECULE
2EH
   27    26     1     0     0
SMALL
bcc


@<TRIPOS>ATOM
      1 C7         -2.1500    0.4420   -0.6960 c3        1 2EH      0.134400
      2 C8         -0.1620    1.6710   -1.5440 c3        1 2EH     -0.073400
      3 C9          0.3870    1.2480   -2.9010 c3        1 2EH     -0.094100
      4 C12         0.6650   -0.8220    0.9200 c3        1 2EH     -0.080400
      5 C7A        -0.6200    0.4460   -0.7730 c3        1 2EH     -0.068700
      6 O7C        -2.6850   -0.2380   -1.8290 oh        1 2EH     -0.602800
      7 CBA        -0.0480    0.4850    0.6280 c3        1 2EH     -0.077400
      8 CCA         1.1710   -0.8230    2.3840 c3        1 2EH     -0.080400
      9 CCB         1.7820   -2.1430    2.6940 c3        1 2EH     -0.092100
     10 H7         -2.4450   -0.0240    0.1470 h1        1 2EH      0.021700
     11 H7A        -2.4830    1.3930   -0.6890 h1        1 2EH      0.021700
     12 H8          0.5400    2.1350   -1.0370 hc        1 2EH      0.035700
     13 H8A        -0.9250    2.2730   -1.6730 hc        1 2EH      0.035700
     14 H9         -0.3050    0.7650   -3.3980 hc        1 2EH      0.037033
     15 H9A         0.6560    2.0490   -3.4090 hc        1 2EH      0.037033
     16 H9B         1.1620    0.6680   -2.7740 hc        1 2EH      0.037033
     17 H12         0.0370   -1.5770    0.7880 hc        1 2EH      0.042200
     18 H12A        1.4310   -0.9210    0.3090 hc        1 2EH      0.042200
     19 H7AA       -0.3020   -0.3900   -1.2430 hc        1 2EH      0.072700
     20 HO7C       -3.5320   -0.4410   -1.6770 ho        1 2EH      0.396000
     21 HBA         0.6050    1.2460    0.7000 hc        1 2EH      0.040700
     22 HBAA       -0.7870    0.6190    1.2860 hc        1 2EH      0.040700
     23 HCA         0.4200   -0.6630    2.9890 hc        1 2EH      0.037700
     24 HCAA        1.8360   -0.1210    2.4990 hc        1 2EH      0.037700
     25 HCB         1.1020   -2.8220    2.6850 hc        1 2EH      0.033033
     26 HCBA        2.1990   -2.1080    3.5790 hc        1 2EH      0.033033
     27 HCBB        2.4490   -2.3490    2.0340 hc        1 2EH      0.033033
@<TRIPOS>BOND
     1    1    5 1   
     2    1    6 1   
     3    1   10 1   
     4    1   11 1   
     5    2    3 1   
     6    2    5 1   
     7    2   12 1   
     8    2   13 1   
     9    3   14 1   
    10    3   15 1   
    11    3   16 1   
    12    4    7 1   
    13    4    8 1   
    14    4   17 1   
    15    4   18 1   
    16    5    7 1   
    17    5   19 1   
    18    6   20 1   
    19    7   21 1   
    20    7   22 1   
    21    8    9 1   
    22    8   23 1   
    23    8   24 1   
    24    9   25 1   
    25    9   26 1   
    26    9   27 1   
@<TRIPOS>SUBSTRUCTURE
     1 2EH         1 TEMP              0 ****  ****    0 ROOT
