@<TRIPOS>MOLECULE
2EH
   27    26     1     0     0
SMALL
bcc


@<TRIPOS>ATOM
      1 C7         -0.0520    0.1290   -0.0870 c3        1 2EH      0.131400
      2 C8          2.1120    1.2310   -0.6610 c3        1 2EH     -0.077400
      3 C9          3.5680    0.9910   -0.9660 c3        1 2EH     -0.091100
      4 C12         1.6860   -1.3120    2.1730 c3        1 2EH     -0.080400
      5 C7A         1.4670    0.0600    0.0680 c3        1 2EH     -0.065700
      6 O7C        -0.3600   -0.2020   -1.4320 oh        1 2EH     -0.602800
      7 CBA         1.8350    0.0570    1.5450 c3        1 2EH     -0.078400
      8 CCA         2.0550   -1.2830    3.6420 c3        1 2EH     -0.080400
      9 CCB         1.9130   -2.6440    4.2740 c3        1 2EH     -0.093100
     10 H7         -0.5490   -0.6040    0.6050 h1        1 2EH      0.021700
     11 H7A        -0.4240    1.1620    0.1490 h1        1 2EH      0.021700
     12 H8          1.5580    1.3960   -1.6250 hc        1 2EH      0.045200
     13 H8A         2.0010    2.1610   -0.0450 hc        1 2EH      0.045200
     14 H9          3.9950    1.8680   -1.5110 hc        1 2EH      0.032367
     15 H9A         3.6930    0.0850   -1.6070 hc        1 2EH      0.032367
     16 H9B         4.1580    0.8410   -0.0290 hc        1 2EH      0.032367
     17 H12         0.6290   -1.6720    2.0610 hc        1 2EH      0.040700
     18 H12A        2.3420   -2.0460    1.6360 hc        1 2EH      0.040700
     19 H7AA        1.8220   -0.8970   -0.4080 hc        1 2EH      0.067700
     20 HO7C       -1.3170   -0.1360   -1.5180 ho        1 2EH      0.398000
     21 HBA         2.8990    0.3960    1.6590 hc        1 2EH      0.042700
     22 HBAA        1.1940    0.7970    2.0930 hc        1 2EH      0.042700
     23 HCA         1.3990   -0.5480    4.1780 hc        1 2EH      0.038200
     24 HCAA        3.1130   -0.9240    3.7530 hc        1 2EH      0.038200
     25 HCB         0.8600   -3.0070    4.1940 hc        1 2EH      0.033033
     26 HCBA        2.1910   -2.6010    5.3540 hc        1 2EH      0.033033
     27 HCBB        2.5780   -3.3850    3.7680 hc        1 2EH      0.033033
@<TRIPOS>BOND
     1    1    5 1   
     2    1    6 1   
     3    1   10 1   
     4    1   11 1   
     5    2    3 1   
     6    2    5 1   
     7    2   12 1   
     8    2   13 1   
     9    3   14 1   
    10    3   15 1   
    11    3   16 1   
    12    4    7 1   
    13    4    8 1   
    14    4   17 1   
    15    4   18 1   
    16    5    7 1   
    17    5   19 1   
    18    6   20 1   
    19    7   21 1   
    20    7   22 1   
    21    8    9 1   
    22    8   23 1   
    23    8   24 1   
    24    9   25 1   
    25    9   26 1   
    26    9   27 1   
@<TRIPOS>SUBSTRUCTURE
     1 2EH         1 TEMP              0 ****  ****    0 ROOT
