@<TRIPOS>MOLECULE
2EJ
   43    44     1     0     0
SMALL
bcc


@<TRIPOS>ATOM
      1 O           0.6230    1.4400   -0.1350 o         1 2EJ     -0.468100
      2 C           1.4440    0.5640    0.1330 c         1 2EJ      0.629100
      3 N2          1.4820   -0.3670    1.1350 n         1 2EJ     -0.324100
      4 C13         0.7570   -0.1430    2.3250 cc        1 2EJ     -0.097400
      5 C16        -0.5640    0.4210    2.3910 cc        1 2EJ     -0.121000
      6 C15        -1.0150    0.4240    3.6960 cd        1 2EJ     -0.193100
      7 S           0.0930   -0.2100    4.7500 ss        1 2EJ      0.293200
      8 C14         1.2190   -0.5110    3.5980 cd        1 2EJ     -0.231100
      9 N           2.5140    0.4140   -1.0200 n4        1 2EJ     -0.687800
     10 C1          1.8350    0.0380   -2.2870 c3        1 2EJ      0.104800
     11 C2          2.7190    0.1860   -3.5240 c3        1 2EJ     -0.135400
     12 C3          1.8720   -0.1400   -4.7550 c3        1 2EJ      0.101800
     13 N1          2.6150    0.0020   -6.0350 n4        1 2EJ     -0.773000
     14 C4          1.7440   -0.3220   -7.2340 c3        1 2EJ      0.190100
     15 C5          2.5310   -0.1780   -8.4840 ca        1 2EJ     -0.213300
     16 C10         3.2750   -1.2640   -8.9620 ca        1 2EJ     -0.094000
     17 C9          3.9810   -1.1530  -10.1690 ca        1 2EJ      0.070000
     18 C11         4.7250   -2.2410  -10.6580 cg        1 2EJ     -0.202000
     19 C12         5.3560   -3.1620  -11.0940 c1        1 2EJ     -0.029500
     20 C8          3.9280    0.0540  -10.8910 ca        1 2EJ     -0.050000
     21 C7          3.1830    1.1290  -10.4080 ca        1 2EJ     -0.114000
     22 C6          2.4850    1.0210   -9.2070 ca        1 2EJ     -0.095000
     23 H1          2.2910   -0.9480    1.2480 hn        1 2EJ      0.341500
     24 H2         -1.1140    0.8000    1.5260 ha        1 2EJ      0.179000
     25 H3         -1.9940    0.8000    4.0060 h4        1 2EJ      0.208000
     26 H4          2.1920   -0.9560    3.8140 h4        1 2EJ      0.189000
     27 H5          2.9450    1.3410   -1.1210 hn        1 2EJ      0.454300
     28 H6          1.4840   -1.0300   -2.1850 hx        1 2EJ      0.126200
     29 H7          0.9220    0.7030   -2.3890 hx        1 2EJ      0.126200
     30 H8          3.5970   -0.5110   -3.4610 hc        1 2EJ      0.086200
     31 H9          3.1150    1.2360   -3.5950 hc        1 2EJ      0.086200
     32 H10         1.4950   -1.2020   -4.6910 hx        1 2EJ      0.117700
     33 H11         0.9770    0.5490   -4.7990 hx        1 2EJ      0.117700
     34 H12         2.9650    0.9630   -6.1370 hn        1 2EJ      0.454800
     35 H14         1.3720   -1.3790   -7.1030 hx        1 2EJ      0.110700
     36 H15         0.8670    0.3870   -7.2160 hx        1 2EJ      0.110700
     37 H16         3.2920   -2.2170   -8.4120 ha        1 2EJ      0.141000
     38 H17         5.9160   -3.9770  -11.4880 ha        1 2EJ      0.190500
     39 H18         4.4740    0.1420  -11.8460 ha        1 2EJ      0.178000
     40 H19         3.1380    2.0680  -10.9860 ha        1 2EJ      0.171000
     41 H20         1.8820    1.8690   -8.8470 ha        1 2EJ      0.141000
     42 HN3         3.2450   -0.2610   -0.7960 hn        1 2EJ      0.454300
     43 H121        3.4280   -0.6260   -6.0460 hn        1 2EJ      0.454800
@<TRIPOS>BOND
     1    1    2 2   
     2    2    3 1   
     3    2    9 1   
     4    3    4 1   
     5    3   23 1   
     6    4    5 1   
     7    4    8 2   
     8    5    6 2   
     9    5   24 1   
    10    6    7 1   
    11    6   25 1   
    12    7    8 1   
    13    8   26 1   
    14    9   10 1   
    15    9   27 1   
    16    9   42 1   
    17   10   11 1   
    18   10   28 1   
    19   10   29 1   
    20   11   12 1   
    21   11   30 1   
    22   11   31 1   
    23   12   13 1   
    24   12   32 1   
    25   12   33 1   
    26   13   14 1   
    27   13   34 1   
    28   13   43 1   
    29   14   15 1   
    30   14   35 1   
    31   14   36 1   
    32   15   16 ar  
    33   15   22 ar  
    34   16   17 ar  
    35   16   37 1   
    36   17   18 1   
    37   17   20 ar  
    38   18   19 3   
    39   19   38 1   
    40   20   21 ar  
    41   20   39 1   
    42   21   22 ar  
    43   21   40 1   
    44   22   41 1   
@<TRIPOS>SUBSTRUCTURE
     1 2EJ         1 TEMP              0 ****  ****    0 ROOT
