@<TRIPOS>MOLECULE
2EJ
   44    45     1     0     0
SMALL
bcc


@<TRIPOS>ATOM
      1 O          -0.9290    1.7250   -0.6690 o         1 2EJ     -0.287100
      2 C          -0.0500    1.0600   -0.1500 c         1 2EJ      0.471100
      3 N2          0.1160    1.0150    1.3440 n4        1 2EJ     -0.434200
      4 C13         0.8360   -0.1200    1.8430 cc        1 2EJ     -0.251400
      5 C16         2.2670   -0.1570    1.9990 cc        1 2EJ     -0.137000
      6 C15         2.6260   -1.2970    2.6890 cd        1 2EJ     -0.203100
      7 S           1.3250   -2.2200    3.1270 ss        1 2EJ      0.532200
      8 C14         0.2290   -1.2500    2.4380 cd        1 2EJ     -0.221100
      9 N           0.8860    0.2460   -1.0000 n4        1 2EJ     -0.641800
     10 C1          1.1240    0.9100   -2.3370 c3        1 2EJ      0.111800
     11 C2          1.8230   -0.0070   -3.3400 c3        1 2EJ     -0.135400
     12 C3          1.9560    0.7580   -4.6640 c3        1 2EJ      0.101800
     13 N1          2.6020   -0.0210   -5.7490 n4        1 2EJ     -0.780000
     14 C4          2.7140    0.7880   -7.0410 c3        1 2EJ      0.201100
     15 C5          3.3530   -0.0420   -8.0860 ca        1 2EJ     -0.226300
     16 C10         2.5590   -0.8410   -8.9210 ca        1 2EJ     -0.092000
     17 C9          3.1490   -1.5730   -9.9610 ca        1 2EJ      0.078000
     18 C11         2.3580   -2.3660  -10.8090 cg        1 2EJ     -0.217000
     19 C12         1.7030   -3.0380  -11.5550 c1        1 2EJ     -0.008500
     20 C8          4.5420   -1.4940  -10.1560 ca        1 2EJ     -0.038000
     21 C7          5.3250   -0.6970   -9.3210 ca        1 2EJ     -0.112000
     22 C6          4.7400    0.0280   -8.2860 ca        1 2EJ     -0.094000
     23 H1          0.6040    1.8890    1.6330 hn        1 2EJ      0.524300
     24 H2          2.9610    0.6270    1.6810 ha        1 2EJ      0.185000
     25 H3          3.6640   -1.5500    2.9550 h4        1 2EJ      0.245000
     26 H4         -0.8530   -1.4360    2.4760 h4        1 2EJ      0.224000
     27 H5          0.4450   -0.6790   -1.1500 hn        1 2EJ      0.495800
     28 H6          0.1160    1.2280   -2.7470 hx        1 2EJ      0.140200
     29 H7          1.7470    1.8340   -2.1470 hx        1 2EJ      0.140200
     30 H8          1.2250   -0.9460   -3.4990 hc        1 2EJ      0.096200
     31 H9          2.8400   -0.3010   -2.9630 hc        1 2EJ      0.096200
     32 H10         2.5680    1.6940   -4.5030 hx        1 2EJ      0.121700
     33 H11         0.9310    1.0670   -5.0300 hx        1 2EJ      0.121700
     34 H12         2.0640   -0.8730   -5.9530 hn        1 2EJ      0.456800
     35 H14         3.3250    1.7060   -6.8060 hx        1 2EJ      0.111200
     36 H15         1.6680    1.0900   -7.3330 hx        1 2EJ      0.111200
     37 H16         1.4670   -0.8760   -8.7890 ha        1 2EJ      0.141000
     38 H17         1.1260   -3.6350  -12.2230 ha        1 2EJ      0.195500
     39 H18         5.0090   -2.0590  -10.9830 ha        1 2EJ      0.185000
     40 H19         6.4140   -0.6310   -9.4920 ha        1 2EJ      0.177000
     41 H20         5.3650    0.6750   -7.6520 ha        1 2EJ      0.138000
     42 H22        -0.8450    1.0260    1.7540 hn        1 2EJ      0.524300
     43 HN3         1.7840    0.0930   -0.5100 hn        1 2EJ      0.495800
     44 H121        3.5480   -0.3110   -5.4710 hn        1 2EJ      0.456800
@<TRIPOS>BOND
     1    1    2 2   
     2    2    3 1   
     3    2    9 1   
     4    3    4 1   
     5    3   23 1   
     6    3   42 1   
     7    4    5 1   
     8    4    8 2   
     9    5    6 2   
    10    5   24 1   
    11    6    7 1   
    12    6   25 1   
    13    7    8 1   
    14    8   26 1   
    15    9   10 1   
    16    9   27 1   
    17    9   43 1   
    18   10   11 1   
    19   10   28 1   
    20   10   29 1   
    21   11   12 1   
    22   11   30 1   
    23   11   31 1   
    24   12   13 1   
    25   12   32 1   
    26   12   33 1   
    27   13   14 1   
    28   13   34 1   
    29   13   44 1   
    30   14   15 1   
    31   14   35 1   
    32   14   36 1   
    33   15   16 ar  
    34   15   22 ar  
    35   16   17 ar  
    36   16   37 1   
    37   17   18 1   
    38   17   20 ar  
    39   18   19 3   
    40   19   38 1   
    41   20   21 ar  
    42   20   39 1   
    43   21   22 ar  
    44   21   40 1   
    45   22   41 1   
@<TRIPOS>SUBSTRUCTURE
     1 2EJ         1 TEMP              0 ****  ****    0 ROOT
