@<TRIPOS>MOLECULE
2EJ
   43    43     1     0     0
SMALL
bcc


@<TRIPOS>ATOM
      1 O          -8.4210  -18.2660  113.9070 o         1 2EJ     -0.256000
      2 C          -8.5410  -17.3670  114.7470 c2        1 2EJ      0.279000
      3 N2         -8.5820  -16.0140  114.5850 ns        1 2EJ     -0.217000
      4 C13        -8.7200  -15.4230  113.3110 c2        1 2EJ     -0.051000
      5 C16        -8.3110  -16.0150  112.0670 c2        1 2EJ     -0.134000
      6 C15        -8.5450  -15.1420  111.0230 c2        1 2EJ     -0.454000
      7 S          -9.2090  -13.7120  111.5310 ss        1 2EJ      0.774000
      8 C14        -9.2440  -14.1390  113.1200 c2        1 2EJ     -0.501000
      9 N          -8.5420  -17.9130  116.2040 ny        1 2EJ     -0.174000
     10 C1         -8.4420  -19.3310  116.3720 c1        1 2EJ      0.183000
     11 C2          9.7460   11.0950  -85.3550 c3        1 2EJ     -0.256000
     12 C3          9.4820    9.9960  -84.3480 c3        1 2EJ     -0.131000
     13 N1          9.6060   10.4690  -82.9360 ny        1 2EJ     -0.044000
     14 C4          9.3480    9.3700  -81.9450 c3        1 2EJ     -0.068000
     15 C5          9.4480    9.8840  -80.5510 ca        1 2EJ     -0.187000
     16 C10         8.3420   10.5100  -79.9650 ca        1 2EJ     -0.095000
     17 C9          8.4150   10.9680  -78.6410 ca        1 2EJ      0.064000
     18 C11         7.3060   11.5980  -78.0480 c1        1 2EJ     -0.188000
     19 C12         6.3660   12.1320  -77.5320 c1        1 2EJ     -0.111000
     20 C8          9.6050   10.7860  -77.9130 ca        1 2EJ     -0.063000
     21 C7         10.7000   10.1570  -78.5030 ca        1 2EJ     -0.118000
     22 C6         10.6280    9.7060  -79.8200 ca        1 2EJ     -0.096000
     23 H1         -8.7510  -15.4070  115.3600 hn        1 2EJ      0.260000
     24 H2         -7.8870  -17.0190  111.9740 ha        1 2EJ      0.184000
     25 H3         -8.3180  -15.3610  109.9770 h4        1 2EJ      0.201000
     26 H4         -9.6240  -13.4840  113.9050 h4        1 2EJ      0.185000
     27 H5         -9.4120  -17.6270  116.6870 hn        1 2EJ      0.293500
     28 H6         -8.3480  -19.9260  115.4310 hx        1 2EJ      0.134000
     29 H7          9.6320   10.6590  -86.3810 hc        1 2EJ      0.120333
     30 H8          9.0160   11.9350  -85.2530 hc        1 2EJ      0.120333
     31 H9         10.7830   11.5020  -85.2640 hc        1 2EJ      0.120333
     32 H10         8.4390    9.5880  -84.4810 hx        1 2EJ      0.145000
     33 H11        10.2160    9.1520  -84.4910 hx        1 2EJ      0.145000
     34 H12        10.5490   10.8460  -82.7820 hn        1 2EJ      0.245000
     35 H14         8.3160    8.9620  -82.1500 hx        1 2EJ      0.147500
     36 H15        10.1040    8.5540  -82.1330 hx        1 2EJ      0.147500
     37 H16         7.4040   10.6300  -80.5290 ha        1 2EJ      0.142000
     38 H17         5.5330   12.6050  -77.0710 ha        1 2EJ      0.242000
     39 H18         9.6650   11.1390  -76.8700 ha        1 2EJ      0.168000
     40 H19        11.6260   10.0100  -77.9240 ha        1 2EJ      0.163000
     41 H20        11.4940    9.1970  -80.2720 ha        1 2EJ      0.142000
     42 HN3        -7.7510  -17.5060  116.7360 hn        1 2EJ      0.293500
     43 H121        8.9400   11.2320  -82.7690 hn        1 2EJ      0.245000
@<TRIPOS>BOND
     1    1    2 1   
     2    2    3 1   
     3    2    9 1   
     4    3    4 1   
     5    3   23 1   
     6    4    5 1   
     7    4    8 1   
     8    5    6 1   
     9    5   24 1   
    10    6    7 1   
    11    6   25 1   
    12    7    8 1   
    13    8   26 1   
    14    9   10 1   
    15    9   27 1   
    16    9   42 1   
    17   10   28 1   
    18   11   12 1   
    19   11   29 1   
    20   11   30 1   
    21   11   31 1   
    22   12   13 1   
    23   12   32 1   
    24   12   33 1   
    25   13   14 1   
    26   13   34 1   
    27   13   43 1   
    28   14   15 1   
    29   14   35 1   
    30   14   36 1   
    31   15   16 1   
    32   15   22 1   
    33   16   17 1   
    34   16   37 1   
    35   17   18 1   
    36   17   20 1   
    37   18   19 1   
    38   19   38 1   
    39   20   21 1   
    40   20   39 1   
    41   21   22 1   
    42   21   40 1   
    43   22   41 1   
@<TRIPOS>SUBSTRUCTURE
     1 2EJ         1 TEMP              0 ****  ****    0 ROOT
