@<TRIPOS>MOLECULE
2EK
   38    39     1     0     0
SMALL
bcc


@<TRIPOS>ATOM
      1 O           0.4800   -1.1890   -0.1050 o         1 2EK     -0.468100
      2 C8          1.3700   -0.3750    0.1400 c         1 2EK      0.629100
      3 N2          1.4810    0.5800    1.1140 n         1 2EK     -0.324100
      4 C9          0.7370    0.4510    2.3070 cc        1 2EK     -0.097400
      5 C12        -0.6260    0.0010    2.3830 cc        1 2EK     -0.121000
      6 C11        -1.0790    0.0740    3.6860 cd        1 2EK     -0.193100
      7 S1          0.0750    0.6460    4.7250 ss        1 2EK      0.293200
      8 C10         1.2250    0.8180    3.5710 cd        1 2EK     -0.231100
      9 N1          2.4510   -0.3490   -1.0110 n4        1 2EK     -0.687800
     10 C7          1.8070    0.0420   -2.2920 c3        1 2EK      0.104800
     11 C6          2.6800   -0.2140   -3.5200 c3        1 2EK     -0.134400
     12 C5          1.8650    0.1400   -4.7650 c3        1 2EK      0.102800
     13 N           2.5990   -0.0960   -6.0360 n4        1 2EK     -0.773000
     14 C4          1.7600    0.2680   -7.2450 c3        1 2EK      0.217100
     15 C2          2.5060    0.0130   -8.4850 cc        1 2EK     -0.243300
     16 C1          2.1480   -0.9960   -9.4210 cc        1 2EK     -0.110000
     17 C3          3.5870    0.7770   -8.9490 cd        1 2EK     -0.086700
     18 CL1         4.2750    2.0430   -8.0980 cl        1 2EK     -0.011400
     19 S           4.0860    0.2840  -10.4430 ss        1 2EK      0.329200
     20 C           2.9570   -0.9420  -10.5500 cd        1 2EK     -0.062700
     21 CL          2.8270   -1.9600  -11.8570 cl        1 2EK      0.054600
     22 H1          2.3340    1.0960    1.2140 hn        1 2EK      0.341500
     23 H2         -1.2030   -0.3570    1.5270 ha        1 2EK      0.179000
     24 H3         -2.0860   -0.2110    4.0030 h4        1 2EK      0.208000
     25 H4          2.2320    1.1870    3.7780 h4        1 2EK      0.189000
     26 H5          2.8050   -1.3100   -1.0820 hn        1 2EK      0.454300
     27 H6          0.8450   -0.5500   -2.3790 hx        1 2EK      0.126200
     28 H7          1.5430    1.1380   -2.2250 hx        1 2EK      0.126200
     29 H8          2.9920   -1.2930   -3.5570 hc        1 2EK      0.086200
     30 H9          3.6110    0.4130   -3.4740 hc        1 2EK      0.086200
     31 H10         1.5710    1.2300   -4.7330 hx        1 2EK      0.118200
     32 H11         0.9200   -0.4790   -4.7930 hx        1 2EK      0.118200
     33 H12         3.4600    0.4680   -6.0590 hn        1 2EK      0.456800
     34 H14         1.5000    1.3630   -7.1470 hx        1 2EK      0.114700
     35 H15         0.8160   -0.3470   -7.2060 hx        1 2EK      0.114700
     36 H16         1.3280   -1.7060   -9.2770 ha        1 2EK      0.183000
     37 H121        3.2340    0.2720   -0.8050 hn        1 2EK      0.454300
     38 HN3         2.8710   -1.0840   -6.1090 hn        1 2EK      0.456800
@<TRIPOS>BOND
     1    1    2 2   
     2    2    3 1   
     3    2    9 1   
     4    3    4 1   
     5    3   22 1   
     6    4    5 1   
     7    4    8 2   
     8    5    6 2   
     9    5   23 1   
    10    6    7 1   
    11    6   24 1   
    12    7    8 1   
    13    8   25 1   
    14    9   10 1   
    15    9   26 1   
    16    9   37 1   
    17   10   11 1   
    18   10   27 1   
    19   10   28 1   
    20   11   12 1   
    21   11   29 1   
    22   11   30 1   
    23   12   13 1   
    24   12   31 1   
    25   12   32 1   
    26   13   14 1   
    27   13   33 1   
    28   13   38 1   
    29   14   15 1   
    30   14   34 1   
    31   14   35 1   
    32   15   16 1   
    33   15   17 2   
    34   16   20 2   
    35   16   36 1   
    36   17   18 1   
    37   17   19 1   
    38   19   20 1   
    39   20   21 1   
@<TRIPOS>SUBSTRUCTURE
     1 2EK         1 TEMP              0 ****  ****    0 ROOT
