@<TRIPOS>MOLECULE
2EK
   38    39     1     0     0
SMALL
bcc


@<TRIPOS>ATOM
      1 O           0.4650   -1.1850   -0.1090 o         1 2EK     -0.468100
      2 C8          1.3630   -0.3810    0.1390 c         1 2EK      0.629100
      3 N2          1.4840    0.5700    1.1150 ns        1 2EK     -0.324100
      4 C9          0.7360    0.4470    2.3070 cc        1 2EK     -0.097400
      5 C12        -0.6310    0.0090    2.3810 cc        1 2EK     -0.121000
      6 C11        -1.0840    0.0850    3.6830 cd        1 2EK     -0.193100
      7 S1          0.0740    0.6430    4.7250 ss        1 2EK      0.293200
      8 C10         1.2270    0.8070    3.5710 cd        1 2EK     -0.231100
      9 N1          2.4450   -0.3630   -1.0110 ny        1 2EK     -0.687800
     10 C7          1.8080    0.0390   -2.2920 c3        1 2EK      0.104800
     11 C6          2.6780   -0.2230   -3.5200 c3        1 2EK     -0.134400
     12 C5          1.8690    0.1450   -4.7640 c3        1 2EK      0.102800
     13 N           2.6010   -0.0970   -6.0350 ny        1 2EK     -0.773000
     14 C4          1.7680    0.2840   -7.2440 c3        1 2EK      0.217100
     15 C2          2.5120    0.0210   -8.4840 cc        1 2EK     -0.243300
     16 C1          2.1390   -0.9800   -9.4230 cc        1 2EK     -0.110000
     17 C3          3.6040    0.7700   -8.9440 cd        1 2EK     -0.086700
     18 Cl1         4.3100    2.0230   -8.0890 cl        1 2EK     -0.011400
     19 S           4.0970    0.2740  -10.4400 ss        1 2EK      0.329200
     20 C           2.9500   -0.9340  -10.5510 cd        1 2EK     -0.062700
     21 Cl          2.8050   -1.9470  -11.8620 cl        1 2EK      0.054600
     22 H1          2.3420    1.0770    1.2170 hn        1 2EK      0.341500
     23 H2         -1.2100   -0.3410    1.5230 ha        1 2EK      0.179000
     24 H3         -2.0950   -0.1910    3.9980 h4        1 2EK      0.208000
     25 H4          2.2360    1.1650    3.7800 h4        1 2EK      0.189000
     26 H5          2.7880   -1.3290   -1.0850 hn        1 2EK      0.454300
     27 H6          1.5570    1.1380   -2.2210 hx        1 2EK      0.126200
     28 H7          0.8380   -0.5410   -2.3810 hx        1 2EK      0.126200
     29 H8          2.9760   -1.3070   -3.5600 hc        1 2EK      0.086200
     30 H9          3.6170    0.3910   -3.4710 hc        1 2EK      0.086200
     31 H10         0.9160   -0.4610   -4.7940 hx        1 2EK      0.118200
     32 H11         1.5900    1.2390   -4.7290 hx        1 2EK      0.118200
     33 H12         2.8590   -1.0890   -6.1110 hn        1 2EK      0.456800
     34 H14         0.8150   -0.3180   -7.2080 hx        1 2EK      0.114700
     35 H15         1.5240    1.3820   -7.1430 hx        1 2EK      0.114700
     36 H16         1.3080   -1.6770   -9.2820 ha        1 2EK      0.183000
     37 H121        3.2360    0.2470   -0.8020 hn        1 2EK      0.454300
     38 HN3         3.4700    0.4540   -6.0560 hn        1 2EK      0.456800
@<TRIPOS>BOND
     1    1    2 2   
     2    2    3 1   
     3    2    9 1   
     4    3    4 1   
     5    3   22 1   
     6    4    5 1   
     7    4    8 2   
     8    5    6 2   
     9    5   23 1   
    10    6    7 1   
    11    6   24 1   
    12    7    8 1   
    13    8   25 1   
    14    9   10 1   
    15    9   26 1   
    16    9   37 1   
    17   10   11 1   
    18   10   27 1   
    19   10   28 1   
    20   11   12 1   
    21   11   29 1   
    22   11   30 1   
    23   12   13 1   
    24   12   31 1   
    25   12   32 1   
    26   13   14 1   
    27   13   33 1   
    28   13   38 1   
    29   14   15 1   
    30   14   34 1   
    31   14   35 1   
    32   15   16 1   
    33   15   17 2   
    34   16   20 2   
    35   16   36 1   
    36   17   18 1   
    37   17   19 1   
    38   19   20 1   
    39   20   21 1   
@<TRIPOS>SUBSTRUCTURE
     1 2EK         1 TEMP              0 ****  ****    0 ROOT
