@<TRIPOS>MOLECULE
2EK
   39    40     1     0     0
SMALL
bcc


@<TRIPOS>ATOM
      1 O           0.2060   -2.4640   -0.2000 o         1 2EK     -0.287100
      2 C8          0.6720   -1.3910    0.1410 c         1 2EK      0.471100
      3 N2          0.8770   -1.0540    1.5930 n4        1 2EK     -0.434200
      4 C9          0.9710    0.3460    1.8860 cc        1 2EK     -0.251400
      5 C12         2.2030    1.0900    1.8650 cc        1 2EK     -0.137000
      6 C11         1.9910    2.3480    2.3910 cd        1 2EK     -0.203100
      7 S1          0.4310    2.5820    2.8880 ss        1 2EK      0.532200
      8 C10        -0.0800    1.1170    2.4350 cd        1 2EK     -0.221100
      9 N1          1.0360   -0.3610   -0.8920 n4        1 2EK     -0.641800
     10 C7          1.4980   -1.0150   -2.1730 c3        1 2EK      0.111800
     11 C6          1.5970   -0.0330   -3.3410 c3        1 2EK     -0.135400
     12 C5          2.0170   -0.8240   -4.5870 c3        1 2EK      0.103800
     13 N           2.1300    0.0000   -5.8150 n4        1 2EK     -0.780000
     14 C4          2.5380   -0.8410   -7.0240 c3        1 2EK      0.228100
     15 C2          2.6460    0.0080   -8.2120 cc        1 2EK     -0.260300
     16 C1          3.8790    0.3100   -8.8540 cc        1 2EK     -0.107000
     17 C3          1.5580    0.5300   -8.9340 cd        1 2EK     -0.093700
     18 CL1        -0.0380    0.3740   -8.4550 cl        1 2EK     -0.012400
     19 S           2.0470    1.2910  -10.3080 ss        1 2EK      0.373200
     20 C           3.6700    1.0200  -10.0310 cd        1 2EK     -0.066700
     21 CL          4.8770    1.5330  -11.0510 cl        1 2EK      0.070600
     22 H1          1.7480   -1.5320    1.9060 hn        1 2EK      0.524300
     23 H2          3.1750    0.7010    1.5460 ha        1 2EK      0.185000
     24 H3          2.7830    3.1050    2.5040 h4        1 2EK      0.245000
     25 H4         -1.1090    0.7610    2.5840 h4        1 2EK      0.224000
     26 H5          1.7670    0.2770   -0.5300 hn        1 2EK      0.495800
     27 H6          0.7580   -1.8360   -2.4260 hx        1 2EK      0.140200
     28 H7          2.5060   -1.4830   -1.9670 hx        1 2EK      0.140200
     29 H8          2.3540    0.7680   -3.1200 hc        1 2EK      0.096200
     30 H9          0.6050    0.4650   -3.5210 hc        1 2EK      0.096200
     31 H10         1.2630   -1.6410   -4.7920 hx        1 2EK      0.121700
     32 H11         3.0220   -1.3110   -4.4070 hx        1 2EK      0.121700
     33 H12         2.8260    0.7450   -5.6880 hn        1 2EK      0.458800
     34 H14         3.5240   -1.3320   -6.7790 hx        1 2EK      0.115200
     35 H15         1.7390   -1.6280   -7.1530 hx        1 2EK      0.115200
     36 H16         4.8610   -0.0030   -8.4840 ha        1 2EK      0.183000
     37 H22         0.0720   -1.4680    2.1140 hn        1 2EK      0.524300
     38 H121        0.1890    0.2040   -1.0810 hn        1 2EK      0.495800
     39 HN3         1.2290    0.4480   -6.0350 hn        1 2EK      0.458800
@<TRIPOS>BOND
     1    1    2 2   
     2    2    3 1   
     3    2    9 1   
     4    3    4 1   
     5    3   22 1   
     6    3   37 1   
     7    4    5 1   
     8    4    8 2   
     9    5    6 2   
    10    5   23 1   
    11    6    7 1   
    12    6   24 1   
    13    7    8 1   
    14    8   25 1   
    15    9   10 1   
    16    9   26 1   
    17    9   38 1   
    18   10   11 1   
    19   10   27 1   
    20   10   28 1   
    21   11   12 1   
    22   11   29 1   
    23   11   30 1   
    24   12   13 1   
    25   12   31 1   
    26   12   32 1   
    27   13   14 1   
    28   13   33 1   
    29   13   39 1   
    30   14   15 1   
    31   14   34 1   
    32   14   35 1   
    33   15   16 1   
    34   15   17 2   
    35   16   20 2   
    36   16   36 1   
    37   17   18 1   
    38   17   19 1   
    39   19   20 1   
    40   20   21 1   
@<TRIPOS>SUBSTRUCTURE
     1 2EK         1 TEMP              0 ****  ****    0 ROOT
