@<TRIPOS>MOLECULE
2EL
   50    52     1     0     0
SMALL
bcc


@<TRIPOS>ATOM
      1 OAY         0.7560    1.9310    2.4970 oh        1 2EL     -0.598800
      2 CAX         1.1020    0.9820    1.5100 c3        1 2EL      0.132400
      3 CAW         2.0290   -0.0950    2.0660 c3        1 2EL      0.086400
      4 OAV         1.2530   -0.8380    3.0040 os        1 2EL     -0.437600
      5 CAU         2.0140   -1.8660    3.6400 c3        1 2EL      0.144400
      6 CAI         1.0650   -2.5750    4.5810 c3        1 2EL     -0.018300
      7 SAH         1.9690   -3.8880    5.3460 ss        1 2EL     -0.308200
      8 CAG         0.7100   -4.6220    6.3560 c3        1 2EL      0.000700
      9 CAF         1.2870   -5.8480    7.0170 c3        1 2EL     -0.114700
     10 CAE         2.3430   -5.4970    8.0880 c3        1 2EL      0.148800
     11 CAB         0.1950   -6.6300    7.7790 c3        1 2EL      0.126100
     12 OAA         0.1210   -7.9770    7.3640 oh        1 2EL     -0.589800
     13 CAC         0.5650   -6.5090    9.2780 c3        1 2EL      0.115800
     14 NAD         1.7980   -5.7350    9.4270 n3        1 2EL     -0.719600
     15 CAJ         1.6340   -4.5020   10.1940 c3        1 2EL      0.231000
     16 CAK         1.2290   -4.7260   11.5990 cc        1 2EL     -0.266000
     17 CAN         1.7640   -5.6530   12.4970 cd        1 2EL     -0.063100
     18 NAO         1.1300   -5.5630   13.7360 na        1 2EL     -0.166400
     19 C5          0.2090   -4.5180   13.6710 ca        1 2EL     -0.324800
     20 C6          0.2230   -3.9690   12.3220 ca        1 2EL      0.453100
     21 N1         -0.5940   -2.9490   11.9560 nb        1 2EL     -0.682000
     22 C2         -1.3970   -2.5000   12.9410 ca        1 2EL      0.638900
     23 N3         -1.5120   -2.9380   14.2320 nb        1 2EL     -0.750000
     24 C4         -0.7020   -3.9600   14.6250 ca        1 2EL      0.652200
     25 NAR        -0.6850   -4.4200   15.9530 nv        1 2EL     -0.916500
     26 H1          0.3510    1.4430    3.2260 ho        1 2EL      0.413000
     27 H2          0.1770    0.5100    1.0850 h1        1 2EL      0.053700
     28 H3          1.6350    1.5680    0.7160 h1        1 2EL      0.053700
     29 H4          2.3840   -0.7720    1.2460 h1        1 2EL      0.040200
     30 H5          2.9100    0.3660    2.5840 h1        1 2EL      0.040200
     31 H6          2.4140   -2.5710    2.8620 h1        1 2EL      0.043200
     32 H7          2.8710   -1.4050    4.2000 h1        1 2EL      0.043200
     33 H8          0.6760   -1.8610    5.3470 h1        1 2EL      0.074200
     34 H9          0.1880   -2.9740    4.0150 h1        1 2EL      0.074200
     35 H10         0.3560   -3.8890    7.1220 h1        1 2EL      0.067200
     36 H11        -0.1660   -4.9040    5.7200 h1        1 2EL      0.067200
     37 H12         1.7460   -6.5080    6.2330 hc        1 2EL      0.082700
     38 H13         2.7060   -4.4410    7.9510 h1        1 2EL      0.061200
     39 H14         3.2280   -6.1830    7.9760 h1        1 2EL      0.061200
     40 H15        -0.8330   -6.2260    7.5770 h1        1 2EL      0.085700
     41 H16         0.9790   -8.3850    7.5410 ho        1 2EL      0.403000
     42 H17         0.7570   -7.5340    9.7010 h1        1 2EL      0.061200
     43 H18        -0.2890   -6.0540    9.8480 h1        1 2EL      0.061200
     44 H20         2.6370   -3.9810   10.1950 h1        1 2EL      0.052200
     45 H21         0.8900   -3.8000    9.7100 h1        1 2EL      0.052200
     46 H22         2.5450   -6.3980   12.3180 h4        1 2EL      0.182000
     47 H23         1.4610   -5.9630   14.5760 hn        1 2EL      0.302700
     48 H24        -2.0740   -1.6600   12.6780 h5        1 2EL      0.051100
     49 H25        -0.6590   -5.4140   16.0170 hn        1 2EL      0.398800
     50 H26        -1.3790   -4.0130   16.5450 hn        1 2EL      0.398800
@<TRIPOS>BOND
     1    1    2 1   
     2    1   26 1   
     3    2    3 1   
     4    2   27 1   
     5    2   28 1   
     6    3    4 1   
     7    3   29 1   
     8    3   30 1   
     9    4    5 1   
    10    5    6 1   
    11    5   31 1   
    12    5   32 1   
    13    6    7 1   
    14    6   33 1   
    15    6   34 1   
    16    7    8 1   
    17    8    9 1   
    18    8   35 1   
    19    8   36 1   
    20    9   10 1   
    21    9   11 1   
    22    9   37 1   
    23   10   14 1   
    24   10   38 1   
    25   10   39 1   
    26   11   12 1   
    27   11   13 1   
    28   11   40 1   
    29   12   41 1   
    30   13   14 1   
    31   13   42 1   
    32   13   43 1   
    33   14   15 1   
    34   15   16 1   
    35   15   44 1   
    36   15   45 1   
    37   16   17 2   
    38   16   20 1   
    39   17   18 1   
    40   17   46 1   
    41   18   19 1   
    42   18   47 1   
    43   19   20 ar  
    44   19   24 ar  
    45   20   21 ar  
    46   21   22 ar  
    47   22   23 ar  
    48   22   48 1   
    49   23   24 ar  
    50   24   25 1   
    51   25   49 1   
    52   25   50 1   
@<TRIPOS>SUBSTRUCTURE
     1 2EL         1 TEMP              0 ****  ****    0 ROOT
