@<TRIPOS>MOLECULE
2EL
   50    52     1     0     0
SMALL
bcc


@<TRIPOS>ATOM
      1 OAY        -7.5710   -3.6110   -0.4310 oh        1 2EL     -0.598800
      2 CAX        -8.2540   -2.3830   -0.2970 c3        1 2EL      0.132400
      3 CAW        -7.4910   -1.4090    0.5950 c3        1 2EL      0.086400
      4 OAV        -6.3030   -1.0700   -0.1170 os        1 2EL     -0.436600
      5 CAU        -5.4620   -0.1870    0.6270 c3        1 2EL      0.144400
      6 CAI        -4.2660    0.1010   -0.2530 c3        1 2EL     -0.018300
      7 SAH        -3.2160    1.2130    0.6360 ss        1 2EL     -0.309200
      8 CAG        -1.9340    1.4930   -0.5570 c3        1 2EL      0.000700
      9 CAF        -0.9810    2.5180    0.0030 c3        1 2EL     -0.114700
     10 CAE        -0.1560    1.9700    1.1880 c3        1 2EL      0.148800
     11 CAB         0.0670    2.9320   -1.0530 c3        1 2EL      0.127100
     12 OAA         0.0900    4.3280   -1.2580 oh        1 2EL     -0.589800
     13 CAC         1.4240    2.4060   -0.5200 c3        1 2EL      0.115800
     14 NAD         1.2310    1.7460    0.7710 n3        1 2EL     -0.719600
     15 CAJ         1.5950    0.3300    0.7710 c3        1 2EL      0.231000
     16 CAK         3.0290    0.0870    0.5040 cc        1 2EL     -0.266000
     17 CAN         4.1210    0.7550    1.0630 cd        1 2EL     -0.063100
     18 NAO         5.3210    0.1800    0.6420 na        1 2EL     -0.165400
     19 C5          5.0140   -0.8420   -0.2550 ca        1 2EL     -0.325800
     20 C6          3.5660   -0.9490   -0.3610 ca        1 2EL      0.453100
     21 N1          2.9720   -1.8790   -1.1530 nb        1 2EL     -0.682000
     22 C2          3.8350   -2.6730   -1.8190 ca        1 2EL      0.638900
     23 N3          5.2020   -2.6810   -1.7910 nb        1 2EL     -0.750000
     24 C4          5.8210   -1.7560   -1.0060 ca        1 2EL      0.653200
     25 NAR         7.2210   -1.6280   -0.9800 nh        1 2EL     -0.916500
     26 H1         -6.6940   -3.4080   -0.7820 ho        1 2EL      0.413000
     27 H2         -8.4280   -1.9240   -1.3060 h1        1 2EL      0.053700
     28 H3         -9.2360   -2.6450    0.1810 h1        1 2EL      0.053700
     29 H4         -8.0990   -0.4860    0.7830 h1        1 2EL      0.040200
     30 H5         -7.2230   -1.8910    1.5720 h1        1 2EL      0.040200
     31 H6         -6.0250    0.7550    0.8650 h1        1 2EL      0.043200
     32 H7         -5.1500   -0.6850    1.5840 h1        1 2EL      0.043200
     33 H8         -3.7270   -0.8470   -0.4940 h1        1 2EL      0.074200
     34 H9         -4.5980    0.5540   -1.2180 h1        1 2EL      0.074200
     35 H10        -1.4000    0.5360   -0.7780 h1        1 2EL      0.067200
     36 H11        -2.3820    1.8650   -1.5120 h1        1 2EL      0.067200
     37 H12        -1.5620    3.4220    0.3310 hc        1 2EL      0.082700
     38 H13        -0.1230    2.7420    2.0060 h1        1 2EL      0.061200
     39 H14        -0.6360    1.0440    1.6060 h1        1 2EL      0.061200
     40 H15        -0.1650    2.5100   -2.0680 h1        1 2EL      0.085700
     41 H16         0.3150    4.7440   -0.4160 ho        1 2EL      0.403000
     42 H17         1.8930    1.7230   -1.2770 h1        1 2EL      0.061200
     43 H18         2.1220    3.2730   -0.3550 h1        1 2EL      0.061200
     44 H20         1.3560   -0.0690    1.8020 h1        1 2EL      0.052200
     45 H21         0.9820   -0.2630    0.0290 h1        1 2EL      0.052200
     46 H22         4.1170    1.6020    1.7550 h4        1 2EL      0.182000
     47 H23         6.2110    0.5990    0.7230 hn        1 2EL      0.301700
     48 H24         3.3830   -3.4410   -2.4810 h5        1 2EL      0.051100
     49 H25         7.7140   -2.3300   -1.4920 hn        1 2EL      0.399300
     50 H26         7.5800   -1.5000   -0.0590 hn        1 2EL      0.399300
@<TRIPOS>BOND
     1    1    2 1   
     2    1   26 1   
     3    2    3 1   
     4    2   27 1   
     5    2   28 1   
     6    3    4 1   
     7    3   29 1   
     8    3   30 1   
     9    4    5 1   
    10    5    6 1   
    11    5   31 1   
    12    5   32 1   
    13    6    7 1   
    14    6   33 1   
    15    6   34 1   
    16    7    8 1   
    17    8    9 1   
    18    8   35 1   
    19    8   36 1   
    20    9   10 1   
    21    9   11 1   
    22    9   37 1   
    23   10   14 1   
    24   10   38 1   
    25   10   39 1   
    26   11   12 1   
    27   11   13 1   
    28   11   40 1   
    29   12   41 1   
    30   13   14 1   
    31   13   42 1   
    32   13   43 1   
    33   14   15 1   
    34   15   16 1   
    35   15   44 1   
    36   15   45 1   
    37   16   17 2   
    38   16   20 1   
    39   17   18 1   
    40   17   46 1   
    41   18   19 1   
    42   18   47 1   
    43   19   20 ar  
    44   19   24 ar  
    45   20   21 ar  
    46   21   22 ar  
    47   22   23 ar  
    48   22   48 1   
    49   23   24 ar  
    50   24   25 1   
    51   25   49 1   
    52   25   50 1   
@<TRIPOS>SUBSTRUCTURE
     1 2EL         1 TEMP              0 ****  ****    0 ROOT
