@<TRIPOS>MOLECULE
2EL
   51    53     1     0     0
SMALL
bcc


@<TRIPOS>ATOM
      1 OAY         0.9200    0.4150    9.7750 oh        1 2EL     -0.668800
      2 CAX         1.6660    1.1140    8.7900 c3        1 2EL      0.114400
      3 CAW         2.6390    0.1710    8.0920 c3        1 2EL      0.088400
      4 OAV         1.8620   -0.8750    7.5070 os        1 2EL     -0.499600
      5 CAU         2.6060   -1.6070    6.5160 c3        1 2EL      0.144400
      6 CAI         1.8010   -2.8370    6.1600 c3        1 2EL     -0.029300
      7 SAH         2.6540   -4.2590    6.7810 ss        1 2EL     -0.286200
      8 CAG         1.3650   -5.4750    6.7040 c3        1 2EL     -0.004300
      9 CAF         1.8390   -6.7950    7.2630 c3        1 2EL     -0.075700
     10 CAE         2.3340   -6.7070    8.7230 c3        1 2EL      0.157800
     11 CAB         0.6530   -7.7850    7.3220 c3        1 2EL      0.131100
     12 OAA         1.1060   -8.9980    6.7540 oh        1 2EL     -0.585800
     13 CAC         0.3050   -7.9260    8.8260 c3        1 2EL      0.119800
     14 NAD         1.3040   -7.2200    9.6250 n3        1 2EL     -0.713600
     15 CAJ         0.7920   -6.2950   10.6130 c3        1 2EL      0.233000
     16 CAK         0.5370   -4.8910   10.1930 cc        1 2EL     -0.263000
     17 CAN         1.4460   -3.8370   10.2800 cd        1 2EL     -0.037100
     18 NAO         0.9010   -2.6460    9.7770 na        1 2EL     -0.166400
     19 C5         -0.3640   -2.9340    9.2980 ca        1 2EL     -0.255800
     20 C6         -0.6700   -4.3590    9.5800 ca        1 2EL      0.472100
     21 N1         -1.8620   -4.8940    9.2760 nb        1 2EL     -0.603000
     22 C2         -2.7500   -4.0500    8.6810 ca        1 2EL      0.635900
     23 N3         -2.5750   -2.7430    8.3480 nb        1 2EL     -0.671000
     24 C4         -1.3710   -2.1900    8.6570 ca        1 2EL      0.459200
     25 NAR        -1.1190   -0.7840    8.3060 n4        1 2EL     -0.822300
     26 H1          1.3890    0.4820   10.6160 ho        1 2EL      0.441000
     27 H2          2.2290    1.9760    9.2350 h1        1 2EL      0.071200
     28 H3          0.9010    1.5000    8.0630 h1        1 2EL      0.071200
     29 H4          3.3580   -0.2850    8.8240 h1        1 2EL      0.063700
     30 H5          3.2080    0.7290    7.3020 h1        1 2EL      0.063700
     31 H6          3.6130   -1.8830    6.9340 h1        1 2EL      0.064700
     32 H7          2.7460   -0.9400    5.6230 h1        1 2EL      0.064700
     33 H8          0.7730   -2.7750    6.5960 h1        1 2EL      0.069700
     34 H9          1.6940   -2.9110    5.0500 h1        1 2EL      0.069700
     35 H10         0.4830   -5.1060    7.2870 h1        1 2EL      0.061200
     36 H11         1.0440   -5.6140    5.6420 h1        1 2EL      0.061200
     37 H12         2.6530   -7.2170    6.6130 hc        1 2EL      0.108700
     38 H13         2.6450   -5.6570    8.9760 h1        1 2EL      0.063200
     39 H14         3.2290   -7.3790    8.8460 h1        1 2EL      0.063200
     40 H15        -0.2360   -7.4150    6.7440 h1        1 2EL      0.041700
     41 H16         0.4340   -9.6680    6.9350 ho        1 2EL      0.412000
     42 H17         0.3530   -9.0100    9.1280 h1        1 2EL      0.064200
     43 H18        -0.7380   -7.5530    9.0130 h1        1 2EL      0.064200
     44 H20        -0.1580   -6.7220   11.0470 h1        1 2EL      0.076700
     45 H21         1.5670   -6.2680   11.4380 h1        1 2EL      0.076700
     46 H22         2.4630   -3.8460   10.6890 h4        1 2EL      0.201000
     47 H23         1.4200   -1.8310    9.5380 hn        1 2EL      0.327700
     48 H24        -3.7480   -4.4760    8.4290 h5        1 2EL      0.091100
     49 H25        -0.2060   -0.7180    7.8240 hn        1 2EL      0.477800
     50 H26        -1.0650   -0.2290    9.1730 hn        1 2EL      0.477800
     51 HAR3       -1.8630   -0.4130    7.7050 hn        1 2EL      0.477800
@<TRIPOS>BOND
     1    1    2 1   
     2    1   26 1   
     3    2    3 1   
     4    2   27 1   
     5    2   28 1   
     6    3    4 1   
     7    3   29 1   
     8    3   30 1   
     9    4    5 1   
    10    5    6 1   
    11    5   31 1   
    12    5   32 1   
    13    6    7 1   
    14    6   33 1   
    15    6   34 1   
    16    7    8 1   
    17    8    9 1   
    18    8   35 1   
    19    8   36 1   
    20    9   10 1   
    21    9   11 1   
    22    9   37 1   
    23   10   14 1   
    24   10   38 1   
    25   10   39 1   
    26   11   12 1   
    27   11   13 1   
    28   11   40 1   
    29   12   41 1   
    30   13   14 1   
    31   13   42 1   
    32   13   43 1   
    33   14   15 1   
    34   15   16 1   
    35   15   44 1   
    36   15   45 1   
    37   16   17 2   
    38   16   20 1   
    39   17   18 1   
    40   17   46 1   
    41   18   19 1   
    42   18   47 1   
    43   19   20 ar  
    44   19   24 ar  
    45   20   21 ar  
    46   21   22 ar  
    47   22   23 ar  
    48   22   48 1   
    49   23   24 ar  
    50   24   25 1   
    51   25   49 1   
    52   25   50 1   
    53   25   51 1   
@<TRIPOS>SUBSTRUCTURE
     1 2EL         1 TEMP              0 ****  ****    0 ROOT
