@<TRIPOS>MOLECULE
2EL
   50    47     1     0     0
SMALL
bcc


@<TRIPOS>ATOM
      1 OAY        -3.6950   -1.2590   -8.9610 oh        1 2EL     -0.602800
      2 CAX        -3.4040   -0.5280   -7.7840 c3        1 2EL      0.127400
      3 CAW        -3.0460   -1.4820   -6.6790 c3        1 2EL      0.127400
      4 OAV        -2.6400   -0.7330   -5.5120 os        1 2EL     -0.429600
      5 CAU        -1.8430   -1.4870   -4.5720 c3        1 2EL      0.144400
      6 CAI        -1.5550   -0.6130   -3.3230 c3        1 2EL     -0.019300
      7 SAH        -0.8170   -1.6310   -2.0320 ss        1 2EL     -0.304200
      8 CAG        -0.5140   -0.6270   -0.5780 c3        1 2EL     -0.003300
      9 CAF        -1.2520   -1.2410    0.6300 c3        1 2EL     -0.077700
     10 CAE        -0.1540   -1.7250    1.7920 c3        1 2EL      0.149800
     11 CAB        -1.9920   -0.3690    1.1830 c3        1 2EL      0.120100
     12 OAA        -3.1890   -1.0060    1.7660 oh        1 2EL     -0.591800
     13 CAC        -1.0540    0.3000    2.3750 c3        1 2EL      0.114800
     14 NAD         0.1670   -0.6150    2.5020 n3        1 2EL     -0.709600
     15 CAJ         1.2930    0.0140    1.9150 c3        1 2EL      0.227000
     16 CAK         2.2570    0.4900    3.0240 ce        1 2EL     -0.185000
     17 CAN         3.2210   -0.4460    3.3130 c1        1 2EL      0.247500
     18 NAO         4.1010    0.1120    4.1990 ne        1 2EL     -0.461400
     19 C5          3.6830    1.4010    4.4630 cg        1 2EL     -0.098000
     20 C6          2.5470    1.6340    3.7400 cg        1 2EL      0.306500
     21 N1          1.9440    2.8440    3.8030 n1        1 2EL     -0.481800
     22 C2          2.4780    3.8440    4.5980 c1        1 2EL      0.358300
     23 N3          3.6180    3.6110    5.3250 n1        1 2EL     -0.550800
     24 C4          4.2190    2.4130    5.2660 c1        1 2EL      0.186800
     25 NAR         5.4080    2.6710    5.9770 n3        1 2EL     -0.779400
     26 H1         -4.1100   -0.7430   -9.5250 ho        1 2EL      0.405000
     27 H2         -2.6550    0.0710   -7.9510 h1        1 2EL      0.035700
     28 H3         -4.2040    0.0060   -7.5180 h1        1 2EL      0.035700
     29 H4         -3.8150   -2.0290   -6.4620 h1        1 2EL      0.042700
     30 H5         -2.3060   -2.0580   -6.9720 h1        1 2EL      0.042700
     31 H6         -2.3230   -2.2790   -4.3060 h1        1 2EL      0.043200
     32 H7         -0.9860   -1.7470   -4.9980 h1        1 2EL      0.043200
     33 H8         -0.9450    0.0970   -3.5620 h1        1 2EL      0.073200
     34 H9         -2.3870   -0.2300   -2.9980 h1        1 2EL      0.073200
     35 H10        -0.8370    0.2660   -0.7320 h1        1 2EL      0.065200
     36 H11         0.4190   -0.6010   -0.4000 h1        1 2EL      0.065200
     37 H12        -1.7930   -2.0040    0.3410 hc        1 2EL      0.097700
     38 H13         0.6580   -2.0990    1.3570 h1        1 2EL      0.064700
     39 H14        -0.5560   -2.3910    2.3750 h1        1 2EL      0.064700
     40 H15        -2.2510    0.3100    0.5400 h1        1 2EL      0.042700
     41 H16        -3.8750   -0.4060    1.7780 ho        1 2EL      0.401000
     42 H17        -1.5270    0.3230    3.1830 h1        1 2EL      0.059200
     43 H18        -0.7720    1.2140    2.1170 h1        1 2EL      0.059200
     44 H20         0.9990    0.7780    1.3910 h1        1 2EL      0.052200
     45 H21         1.7450   -0.6080    1.3450 h1        1 2EL      0.052200
     46 H22         3.2710   -1.3430    2.9490 DU        1 2EL      0.217500
     47 H23         4.8400   -0.2980    4.5550 DU        1 2EL      0.217500
     48 H24         2.0480    4.7060    4.6420 ha        1 2EL      0.130500
     49 H25         5.9720    1.9780    6.1960 hn        1 2EL      0.398800
     50 H26         5.6090    3.5150    6.2290 hn        1 2EL      0.398800
@<TRIPOS>BOND
     1    1    2 1   
     2    1   26 1   
     3    2    3 1   
     4    2   27 1   
     5    2   28 1   
     6    3    4 1   
     7    3   29 1   
     8    3   30 1   
     9    4    5 1   
    10    5    6 1   
    11    5   31 1   
    12    5   32 1   
    13    6    7 1   
    14    6   33 1   
    15    6   34 1   
    16    7    8 1   
    17    8    9 1   
    18    8   35 1   
    19    8   36 1   
    20    9   10 1   
    21    9   11 1   
    22    9   37 1   
    23   10   14 1   
    24   10   38 1   
    25   10   39 1   
    26   11   12 1   
    27   11   13 1   
    28   11   40 1   
    29   12   41 1   
    30   13   14 1   
    31   13   42 1   
    32   13   43 1   
    33   14   15 1   
    34   15   16 1   
    35   15   44 1   
    36   15   45 1   
    37   16   17 2   
    38   16   20 1   
    39   17   18 2   
    40   18   19 1   
    41   19   24 3   
    42   20   21 3   
    43   22   23 3   
    44   22   48 1   
    45   24   25 1   
    46   25   49 1   
    47   25   50 1   
@<TRIPOS>SUBSTRUCTURE
     1 2EL         1 TEMP              0 ****  ****    0 ROOT
