@<TRIPOS>MOLECULE
2EL
   50    52     1     0     0
SMALL
bcc


@<TRIPOS>ATOM
      1 OAY        -0.7170    0.5340    1.1080 oh        1 2EL     -0.598800
      2 CAX         0.5370    0.1130    0.6130 c3        1 2EL      0.132400
      3 CAW         1.5480   -0.0880    1.7380 c3        1 2EL      0.086400
      4 OAV         1.0730   -1.1950    2.5020 os        1 2EL     -0.438600
      5 CAU         1.9150   -1.4790    3.6200 c3        1 2EL      0.144400
      6 CAI         1.3030   -2.6740    4.3180 c3        1 2EL     -0.021300
      7 SAH         2.3480   -3.0720    5.6880 ss        1 2EL     -0.296200
      8 CAG         1.5090   -4.4870    6.3480 c3        1 2EL     -0.003300
      9 CAF         2.3730   -5.0950    7.4250 c3        1 2EL     -0.079700
     10 CAE         2.4980   -4.1910    8.6720 c3        1 2EL      0.152800
     11 CAB         1.7560   -6.4090    7.9470 c3        1 2EL      0.119100
     12 OAA         2.6830   -7.4480    7.6840 oh        1 2EL     -0.590800
     13 CAC         1.5330   -6.1910    9.4660 c3        1 2EL      0.119800
     14 NAD         1.7890   -4.7940    9.8050 n3        1 2EL     -0.696600
     15 CAJ         0.6070   -4.0340   10.2000 c3        1 2EL      0.234000
     16 CAK        -0.0470   -4.5270   11.4330 cc        1 2EL     -0.248000
     17 CAN        -1.0900   -5.4500   11.5270 cd        1 2EL     -0.092100
     18 NAO        -1.4250   -5.6890   12.8630 na        1 2EL     -0.163400
     19 C5         -0.6390   -4.8490   13.6530 ca        1 2EL     -0.325800
     20 C6          0.2660   -4.1060   12.7890 ca        1 2EL      0.466100
     21 N1          1.1610   -3.2160   13.2860 nb        1 2EL     -0.665000
     22 C2          1.1360   -3.0960   14.6300 ca        1 2EL      0.636900
     23 N3          0.3560   -3.7490   15.5430 nb        1 2EL     -0.748000
     24 C4         -0.5570   -4.6410   15.0670 ca        1 2EL      0.648200
     25 NAR        -1.4670   -5.2950   15.9170 nh        1 2EL     -0.915500
     26 H1         -1.0040   -0.1310    1.7470 ho        1 2EL      0.412000
     27 H2          0.8790    0.9420   -0.0610 h1        1 2EL      0.053700
     28 H3          0.4220   -0.8370    0.0260 h1        1 2EL      0.053700
     29 H4          1.6050    0.8240    2.3890 h1        1 2EL      0.040700
     30 H5          2.5620   -0.3190    1.3210 h1        1 2EL      0.040700
     31 H6          1.9480   -0.5860    4.3000 h1        1 2EL      0.044700
     32 H7          2.9530   -1.7100    3.2590 h1        1 2EL      0.044700
     33 H8          0.2700   -2.4300    4.6630 h1        1 2EL      0.072200
     34 H9          1.2280   -3.5350    3.6110 h1        1 2EL      0.072200
     35 H10         0.5170   -4.1830    6.7610 h1        1 2EL      0.061700
     36 H11         1.3290   -5.2340    5.5350 h1        1 2EL      0.061700
     37 H12         3.3960   -5.3080    7.0090 hc        1 2EL      0.099700
     38 H13         3.5800   -4.1260    8.9750 h1        1 2EL      0.066700
     39 H14         2.1370   -3.1510    8.4440 h1        1 2EL      0.066700
     40 H15         0.7860   -6.6470    7.4330 h1        1 2EL      0.035700
     41 H16         2.3940   -8.2170    8.1890 ho        1 2EL      0.402000
     42 H17         0.4980   -6.5120    9.7590 h1        1 2EL      0.053700
     43 H18         2.2730   -6.8110   10.0440 h1        1 2EL      0.053700
     44 H20        -0.1670   -4.0050    9.3740 h1        1 2EL      0.045700
     45 H21         0.9510   -2.9740   10.3870 h1        1 2EL      0.045700
     46 H22        -1.6130   -5.9770   10.7260 h4        1 2EL      0.168000
     47 H23        -2.2720   -6.0950   13.1660 hn        1 2EL      0.299700
     48 H24         1.8550   -2.3730   15.0700 h5        1 2EL      0.053100
     49 H25        -1.5550   -6.2660   15.7100 hn        1 2EL      0.397300
     50 H26        -1.3210   -5.1240   16.8910 hn        1 2EL      0.397300
@<TRIPOS>BOND
     1    1    2 1   
     2    1   26 1   
     3    2    3 1   
     4    2   27 1   
     5    2   28 1   
     6    3    4 1   
     7    3   29 1   
     8    3   30 1   
     9    4    5 1   
    10    5    6 1   
    11    5   31 1   
    12    5   32 1   
    13    6    7 1   
    14    6   33 1   
    15    6   34 1   
    16    7    8 1   
    17    8    9 1   
    18    8   35 1   
    19    8   36 1   
    20    9   10 1   
    21    9   11 1   
    22    9   37 1   
    23   10   14 1   
    24   10   38 1   
    25   10   39 1   
    26   11   12 1   
    27   11   13 1   
    28   11   40 1   
    29   12   41 1   
    30   13   14 1   
    31   13   42 1   
    32   13   43 1   
    33   14   15 1   
    34   15   16 1   
    35   15   44 1   
    36   15   45 1   
    37   16   17 2   
    38   16   20 1   
    39   17   18 1   
    40   17   46 1   
    41   18   19 1   
    42   18   47 1   
    43   19   20 ar  
    44   19   24 ar  
    45   20   21 ar  
    46   21   22 ar  
    47   22   23 ar  
    48   22   48 1   
    49   23   24 ar  
    50   24   25 1   
    51   25   49 1   
    52   25   50 1   
@<TRIPOS>SUBSTRUCTURE
     1 2EL         1 TEMP              0 ****  ****    0 ROOT
