@<TRIPOS>MOLECULE
2EM
   48    50     1     0     0
SMALL
bcc


@<TRIPOS>ATOM
      1 O          -1.2840    0.7900   -0.3530 o         1 2EM     -0.288100
      2 C7         -0.1420    0.5810    0.0170 c         1 2EM      0.471100
      3 N2          0.2530    0.7500    1.4580 n4        1 2EM     -0.436200
      4 C8          1.4270    0.0290    1.8550 cc        1 2EM     -0.250400
      5 C11         2.7640    0.5560    1.7570 cc        1 2EM     -0.137000
      6 C10         3.6410   -0.2910    2.4030 cd        1 2EM     -0.203100
      7 S           2.8890   -1.5950    3.0870 ss        1 2EM      0.529200
      8 C9          1.4100   -1.1860    2.5780 cd        1 2EM     -0.220100
      9 N1          0.9010    0.1240   -0.9630 n4        1 2EM     -0.641800
     10 C6          0.6540    0.7100   -2.3350 c3        1 2EM      0.111800
     11 C5          1.5010    0.0510   -3.4220 c3        1 2EM     -0.136400
     12 C4          1.1180    0.6860   -4.7660 c3        1 2EM      0.101800
     13 N           1.8530    0.1350   -5.9280 n4        1 2EM     -0.789000
     14 C3          1.4410    0.8130   -7.2490 c3        1 2EM      0.240000
     15 C2          2.2410    0.2610   -8.3340 cc        1 2EM     -0.283400
     16 C12         3.6150    0.6360   -8.5600 ca        1 2EM     -0.050800
     17 C17         4.4400    1.4920   -7.8150 ca        1 2EM     -0.168000
     18 C16         5.7390    1.7180   -8.2400 ca        1 2EM     -0.068000
     19 C15         6.2380    1.0930   -9.3990 ca        1 2EM     -0.111000
     20 C14         5.4370    0.2470  -10.1490 ca        1 2EM     -0.041000
     21 C13         4.1170    0.0120   -9.7360 ca        1 2EM     -0.143100
     22 S1          2.9320   -0.9310  -10.4630 ss        1 2EM      0.310500
     23 C1          1.7780   -0.6050   -9.3270 cd        1 2EM     -0.058600
     24 C           0.4170   -1.1500   -9.4230 c3        1 2EM     -0.063900
     25 H1         -0.5610    0.4360    2.0330 hn        1 2EM      0.523800
     26 H2          3.0380    1.5130    1.3010 ha        1 2EM      0.185000
     27 H3          4.7230   -0.1020    2.4870 h4        1 2EM      0.244000
     28 H4          0.5070   -1.7660    2.8110 h4        1 2EM      0.224000
     29 H5          1.8490    0.3740   -0.6320 hn        1 2EM      0.495800
     30 H6          0.8800    1.8150   -2.2740 hx        1 2EM      0.139200
     31 H7         -0.4470    0.5740   -2.5720 hx        1 2EM      0.139200
     32 H8          2.5950    0.2110   -3.2210 hc        1 2EM      0.094700
     33 H9          1.3110   -1.0560   -3.4550 hc        1 2EM      0.094700
     34 H10         0.0140    0.5340   -4.9580 hx        1 2EM      0.117700
     35 H11         1.3170    1.7980   -4.7310 hx        1 2EM      0.117700
     36 H12         2.8670    0.2730   -5.8180 hn        1 2EM      0.453800
     37 H14         0.3400    0.6200   -7.3900 hx        1 2EM      0.105200
     38 H15         1.6330    1.9150   -7.1050 hx        1 2EM      0.105200
     39 H16         4.0460    2.0090   -6.9300 ha        1 2EM      0.098000
     40 H17         6.3950    2.4020   -7.6780 ha        1 2EM      0.155000
     41 H18         7.2760    1.2930   -9.7160 ha        1 2EM      0.173000
     42 H19         5.8270   -0.2310  -11.0630 ha        1 2EM      0.172000
     43 H20         0.3460   -1.9300  -10.2240 hc        1 2EM      0.071033
     44 H21        -0.3120   -0.3350   -9.6750 hc        1 2EM      0.071033
     45 H22         0.1030   -1.6170   -8.4560 hc        1 2EM      0.071033
     46 H221        0.3980    1.7670    1.6280 hn        1 2EM      0.523800
     47 H121        0.8470   -0.9090   -1.0170 hn        1 2EM      0.495800
     48 HN3         1.6850   -0.8730   -6.0180 hn        1 2EM      0.453800
@<TRIPOS>BOND
     1    1    2 2   
     2    2    3 1   
     3    2    9 1   
     4    3    4 1   
     5    3   25 1   
     6    3   46 1   
     7    4    5 1   
     8    4    8 2   
     9    5    6 2   
    10    5   26 1   
    11    6    7 1   
    12    6   27 1   
    13    7    8 1   
    14    8   28 1   
    15    9   10 1   
    16    9   29 1   
    17    9   47 1   
    18   10   11 1   
    19   10   30 1   
    20   10   31 1   
    21   11   12 1   
    22   11   32 1   
    23   11   33 1   
    24   12   13 1   
    25   12   34 1   
    26   12   35 1   
    27   13   14 1   
    28   13   36 1   
    29   13   48 1   
    30   14   15 1   
    31   14   37 1   
    32   14   38 1   
    33   15   16 1   
    34   15   23 2   
    35   16   17 ar  
    36   16   21 ar  
    37   17   18 ar  
    38   17   39 1   
    39   18   19 ar  
    40   18   40 1   
    41   19   20 ar  
    42   19   41 1   
    43   20   21 ar  
    44   20   42 1   
    45   21   22 1   
    46   22   23 1   
    47   23   24 1   
    48   24   43 1   
    49   24   44 1   
    50   24   45 1   
@<TRIPOS>SUBSTRUCTURE
     1 2EM         1 TEMP              0 ****  ****    0 ROOT
