@<TRIPOS>MOLECULE
2EM
   47    49     1     0     0
SMALL
bcc


@<TRIPOS>ATOM
      1 O           0.6640    1.4900   -0.1440 o         1 2EM     -0.468100
      2 C7          1.4500    0.5840    0.1300 c         1 2EM      0.629100
      3 N2          1.4400   -0.3530    1.1270 ns        1 2EM     -0.326100
      4 C8          0.6990   -0.1130    2.3060 cc        1 2EM     -0.095400
      5 C11        -0.6020    0.4970    2.3510 cc        1 2EM     -0.122000
      6 C10        -1.0770    0.5060    3.6470 cd        1 2EM     -0.192100
      7 S          -0.0130   -0.1750    4.7170 ss        1 2EM      0.290200
      8 C9          1.1240   -0.5070    3.5830 cd        1 2EM     -0.231100
      9 N1          2.5300    0.4040   -1.0050 ny        1 2EM     -0.686800
     10 C6          1.8610    0.0150   -2.2750 c3        1 2EM      0.104800
     11 C5          2.7640    0.1280   -3.5020 c3        1 2EM     -0.134400
     12 C4          1.9320   -0.2090   -4.7390 c3        1 2EM      0.101800
     13 N           2.6900   -0.0950   -6.0100 ny        1 2EM     -0.779000
     14 C3          1.8300   -0.4270   -7.2230 c3        1 2EM      0.226000
     15 C2          2.6110   -0.2300   -8.4450 cc        1 2EM     -0.265400
     16 C12         2.9290    1.0770   -8.9630 ca        1 2EM     -0.056800
     17 C17         2.6200    2.3420   -8.4380 ca        1 2EM     -0.160000
     18 C16         3.0290    3.4740   -9.1210 ca        1 2EM     -0.075000
     19 C15         3.7510    3.3690  -10.3260 ca        1 2EM     -0.112000
     20 C14         4.0590    2.1300  -10.8620 ca        1 2EM     -0.052000
     21 C13         3.6480    0.9720  -10.1850 ca        1 2EM     -0.128100
     22 S1          3.8600   -0.6390  -10.6160 ss        1 2EM      0.253500
     23 C1          3.0800   -1.2400   -9.2790 cd        1 2EM     -0.052600
     24 C           2.9010   -2.6830   -9.0710 c3        1 2EM     -0.060900
     25 H1          2.2260   -0.9610    1.2510 hn        1 2EM      0.341500
     26 H2         -1.1210    0.9010    1.4790 ha        1 2EM      0.179000
     27 H3         -2.0480    0.9150    3.9430 h4        1 2EM      0.208000
     28 H4          2.0770   -0.9880    3.8140 h4        1 2EM      0.189000
     29 H5          2.9730    1.3240   -1.1170 hn        1 2EM      0.454300
     30 H6          0.9610    0.6920   -2.4000 hx        1 2EM      0.125200
     31 H7          1.4930   -1.0460   -2.1590 hx        1 2EM      0.125200
     32 H8          3.6320   -0.5790   -3.4130 hc        1 2EM      0.085200
     33 H9          3.1760    1.1710   -3.5870 hc        1 2EM      0.085200
     34 H10         1.0440    0.4880   -4.8040 hx        1 2EM      0.114700
     35 H11         1.5420   -1.2660   -4.6620 hx        1 2EM      0.114700
     36 H12         3.5000   -0.7250   -5.9990 hn        1 2EM      0.453800
     37 H14         1.4870   -1.4960   -7.1130 hx        1 2EM      0.105700
     38 H15         0.9410    0.2670   -7.1880 hx        1 2EM      0.105700
     39 H16         2.0270    2.4320   -7.5180 ha        1 2EM      0.105000
     40 H17         2.7820    4.4760   -8.7310 ha        1 2EM      0.154000
     41 H18         4.0630    4.2880  -10.8490 ha        1 2EM      0.167000
     42 H19         4.6130    2.0500  -11.8110 ha        1 2EM      0.165000
     43 H20         3.2600   -2.9890   -8.0560 hc        1 2EM      0.068700
     44 H21         1.8180   -2.9590   -9.1610 hc        1 2EM      0.068700
     45 H22         3.4700   -3.2770   -9.8330 hc        1 2EM      0.068700
     46 H121        3.2510   -0.2760   -0.7620 hn        1 2EM      0.454300
     47 HN3         3.0450    0.8640   -6.1310 hn        1 2EM      0.453800
@<TRIPOS>BOND
     1    1    2 2   
     2    2    3 1   
     3    2    9 1   
     4    3    4 1   
     5    3   25 1   
     6    4    5 1   
     7    4    8 2   
     8    5    6 2   
     9    5   26 1   
    10    6    7 1   
    11    6   27 1   
    12    7    8 1   
    13    8   28 1   
    14    9   10 1   
    15    9   29 1   
    16    9   46 1   
    17   10   11 1   
    18   10   30 1   
    19   10   31 1   
    20   11   12 1   
    21   11   32 1   
    22   11   33 1   
    23   12   13 1   
    24   12   34 1   
    25   12   35 1   
    26   13   14 1   
    27   13   36 1   
    28   13   47 1   
    29   14   15 1   
    30   14   37 1   
    31   14   38 1   
    32   15   16 1   
    33   15   23 2   
    34   16   17 ar  
    35   16   21 ar  
    36   17   18 ar  
    37   17   39 1   
    38   18   19 ar  
    39   18   40 1   
    40   19   20 ar  
    41   19   41 1   
    42   20   21 ar  
    43   20   42 1   
    44   21   22 1   
    45   22   23 1   
    46   23   24 1   
    47   24   43 1   
    48   24   44 1   
    49   24   45 1   
@<TRIPOS>SUBSTRUCTURE
     1 2EM         1 TEMP              0 ****  ****    0 ROOT
