@<TRIPOS>MOLECULE
2EM
   47    49     1     0     0
SMALL
bcc


@<TRIPOS>ATOM
      1 O           0.6620    1.4940   -0.1440 o         1 2EM     -0.468100
      2 C7          1.4480    0.5870    0.1300 c         1 2EM      0.629100
      3 N2          1.4360   -0.3500    1.1270 n         1 2EM     -0.326100
      4 C8          0.6950   -0.1090    2.3050 cc        1 2EM     -0.095400
      5 C11        -0.6050    0.5000    2.3500 cc        1 2EM     -0.122000
      6 C10        -1.0820    0.5100    3.6460 cd        1 2EM     -0.192100
      7 S          -0.0180   -0.1710    4.7150 ss        1 2EM      0.290200
      8 C9          1.1190   -0.5040    3.5830 cd        1 2EM     -0.231100
      9 N1          2.5280    0.4070   -1.0050 n4        1 2EM     -0.686800
     10 C6          1.8600    0.0180   -2.2740 c3        1 2EM      0.104800
     11 C5          2.7640    0.1290   -3.5010 c3        1 2EM     -0.134400
     12 C4          1.9310   -0.2070   -4.7390 c3        1 2EM      0.101800
     13 N           2.6900   -0.0960   -6.0090 n4        1 2EM     -0.779000
     14 C3          1.8300   -0.4280   -7.2230 c3        1 2EM      0.226000
     15 C2          2.6130   -0.2330   -8.4440 cc        1 2EM     -0.265400
     16 C12         2.9330    1.0730   -8.9630 ca        1 2EM     -0.056800
     17 C17         2.6250    2.3390   -8.4400 ca        1 2EM     -0.160000
     18 C16         3.0360    3.4700   -9.1240 ca        1 2EM     -0.075000
     19 C15         3.7590    3.3630  -10.3290 ca        1 2EM     -0.112000
     20 C14         4.0650    2.1220  -10.8630 ca        1 2EM     -0.052000
     21 C13         3.6530    0.9660  -10.1850 ca        1 2EM     -0.128100
     22 S1          3.8620   -0.6460  -10.6140 ss        1 2EM      0.253500
     23 C1          3.0810   -1.2450   -9.2770 cd        1 2EM     -0.052600
     24 C           2.9000   -2.6870   -9.0680 c3        1 2EM     -0.060900
     25 H1          2.2220   -0.9590    1.2510 hn        1 2EM      0.341500
     26 H2         -1.1250    0.9050    1.4770 ha        1 2EM      0.179000
     27 H3         -2.0520    0.9190    3.9410 h4        1 2EM      0.208000
     28 H4          2.0720   -0.9850    3.8140 h4        1 2EM      0.189000
     29 H5          2.9710    1.3270   -1.1160 hn        1 2EM      0.454300
     30 H6          0.9600    0.6950   -2.4010 hx        1 2EM      0.125200
     31 H7          1.4910   -1.0430   -2.1580 hx        1 2EM      0.125200
     32 H8          3.6310   -0.5790   -3.4120 hc        1 2EM      0.085200
     33 H9          3.1760    1.1710   -3.5860 hc        1 2EM      0.085200
     34 H10         1.0450    0.4900   -4.8040 hx        1 2EM      0.114700
     35 H11         1.5400   -1.2640   -4.6620 hx        1 2EM      0.114700
     36 H12         3.4990   -0.7260   -5.9980 hn        1 2EM      0.453800
     37 H14         1.4860   -1.4950   -7.1110 hx        1 2EM      0.105700
     38 H15         0.9420    0.2680   -7.1890 hx        1 2EM      0.105700
     39 H16         2.0320    2.4300   -7.5210 ha        1 2EM      0.105000
     40 H17         2.7910    4.4720   -8.7360 ha        1 2EM      0.154000
     41 H18         4.0720    4.2810  -10.8530 ha        1 2EM      0.167000
     42 H19         4.6200    2.0410  -11.8120 ha        1 2EM      0.165000
     43 H20         3.2570   -2.9930   -8.0520 hc        1 2EM      0.068700
     44 H21         1.8160   -2.9620   -9.1570 hc        1 2EM      0.068700
     45 H22         3.4680   -3.2830   -9.8280 hc        1 2EM      0.068700
     46 H121        3.2490   -0.2730   -0.7610 hn        1 2EM      0.454300
     47 HN3         3.0470    0.8630   -6.1310 hn        1 2EM      0.453800
@<TRIPOS>BOND
     1    1    2 2   
     2    2    3 1   
     3    2    9 1   
     4    3    4 1   
     5    3   25 1   
     6    4    5 1   
     7    4    8 2   
     8    5    6 2   
     9    5   26 1   
    10    6    7 1   
    11    6   27 1   
    12    7    8 1   
    13    8   28 1   
    14    9   10 1   
    15    9   29 1   
    16    9   46 1   
    17   10   11 1   
    18   10   30 1   
    19   10   31 1   
    20   11   12 1   
    21   11   32 1   
    22   11   33 1   
    23   12   13 1   
    24   12   34 1   
    25   12   35 1   
    26   13   14 1   
    27   13   36 1   
    28   13   47 1   
    29   14   15 1   
    30   14   37 1   
    31   14   38 1   
    32   15   16 1   
    33   15   23 2   
    34   16   17 ar  
    35   16   21 ar  
    36   17   18 ar  
    37   17   39 1   
    38   18   19 ar  
    39   18   40 1   
    40   19   20 ar  
    41   19   41 1   
    42   20   21 ar  
    43   20   42 1   
    44   21   22 1   
    45   22   23 1   
    46   23   24 1   
    47   24   43 1   
    48   24   44 1   
    49   24   45 1   
@<TRIPOS>SUBSTRUCTURE
     1 2EM         1 TEMP              0 ****  ****    0 ROOT
