@<TRIPOS>MOLECULE
2EN
   56    57     1     0     0
SMALL
bcc


@<TRIPOS>ATOM
      1 Cl          0.2080    0.7530    0.0730 cl        1 2EN     -0.018400
      2 C15         1.8630    0.4380   -0.0440 ca        1 2EN      0.004400
      3 C16         2.6950    0.6350    1.0630 ca        1 2EN     -0.051000
      4 C17         4.0680    0.3580    0.9990 ca        1 2EN     -0.078300
      5 C18         4.9150    0.6660    2.1880 c3        1 2EN     -0.014900
      6 C19         4.4760    1.9010    2.8910 c2        1 2EN     -0.206200
      7 C20         4.3390    1.9840    4.2120 c2        1 2EN     -0.175000
      8 C3          4.5880   -0.1620   -0.1980 ca        1 2EN      0.128100
      9 O           5.9130   -0.5110   -0.4130 os        1 2EN     -0.397900
     10 C2          6.5540   -1.3190    0.5960 c3        1 2EN      0.172600
     11 C1          7.8070   -0.6420    1.0250 c2        1 2EN     -0.232200
     12 C           8.6110   -1.1420    1.9600 c2        1 2EN     -0.165000
     13 C14         2.4020    0.0060   -1.2590 ca        1 2EN     -0.077000
     14 C4          3.7670   -0.2790   -1.3450 ca        1 2EN     -0.215300
     15 C5          4.3680   -0.5480   -2.6780 c3        1 2EN      0.199100
     16 N           5.0150   -1.9130   -2.7300 ny        1 2EN     -0.772000
     17 C6          5.6030   -2.1860   -4.0670 c3        1 2EN      0.103800
     18 C7          6.2830   -3.5520   -4.1640 c3        1 2EN     -0.134400
     19 C8          6.8770   -3.6870   -5.5650 c3        1 2EN      0.104800
     20 N1          7.6380   -4.9470   -5.7720 ny        1 2EN     -0.687800
     21 C9          8.4800   -4.8430   -7.1020 c         1 2EN      0.629100
     22 O1          9.3430   -3.9700   -7.0130 o         1 2EN     -0.467100
     23 N2          8.0450   -5.5830   -8.1680 ns        1 2EN     -0.326100
     24 C10         8.8870   -5.7550   -9.2890 cc        1 2EN     -0.096400
     25 C13         9.7200   -4.7310   -9.8590 cc        1 2EN     -0.122000
     26 C12        10.3460   -5.2050  -10.9940 cd        1 2EN     -0.192100
     27 S           9.9460   -6.7760  -11.3280 ss        1 2EN      0.290200
     28 C11         8.9590   -6.9440  -10.0310 cd        1 2EN     -0.231100
     29 H1          2.2740    1.0320    2.0070 ha        1 2EN      0.189000
     30 H2          5.9840    0.8120    1.8620 hc        1 2EN      0.069700
     31 H3          4.8890   -0.2120    2.8930 hc        1 2EN      0.069700
     32 H4          4.3040    2.7730    2.2390 ha        1 2EN      0.135000
     33 H5          4.5080    1.1350    4.8890 ha        1 2EN      0.128500
     34 H6          4.0500    2.9210    4.7090 ha        1 2EN      0.128500
     35 H7          5.8690   -1.5290    1.4570 h1        1 2EN      0.049200
     36 H8          6.7850   -2.2890    0.0700 h1        1 2EN      0.049200
     37 H9          8.0230    0.3120    0.5160 ha        1 2EN      0.153000
     38 H10         8.4080   -2.0850    2.4870 ha        1 2EN      0.133500
     39 H11         9.5340   -0.6290    2.2670 ha        1 2EN      0.133500
     40 H12         1.7550   -0.0850   -2.1470 ha        1 2EN      0.158000
     41 H13         5.1820    0.2080   -2.8870 hx        1 2EN      0.111200
     42 H14         3.5920   -0.5030   -3.4950 hx        1 2EN      0.111200
     43 H15         5.7500   -1.9350   -2.0030 hn        1 2EN      0.462300
     44 H17         6.3540   -1.3690   -4.2840 hx        1 2EN      0.116700
     45 H18         4.7750   -2.1160   -4.8320 hx        1 2EN      0.116700
     46 H19         5.5380   -4.3720   -3.9750 hc        1 2EN      0.085700
     47 H20         7.0930   -3.6350   -3.3890 hc        1 2EN      0.085700
     48 H21         7.5900   -2.8290   -5.7610 hx        1 2EN      0.125200
     49 H22         6.0560   -3.6490   -6.3400 hx        1 2EN      0.125200
     50 H23         8.3240   -5.0620   -5.0170 hn        1 2EN      0.454800
     51 H24         7.3900   -6.3280   -8.0260 hn        1 2EN      0.341500
     52 H25         9.8380   -3.7300   -9.4350 ha        1 2EN      0.179000
     53 H26        11.0320   -4.6150  -11.6090 h4        1 2EN      0.208000
     54 H27         8.4250   -7.8670   -9.8000 h4        1 2EN      0.189000
     55 HN3         4.3150   -2.6240   -2.4960 hn        1 2EN      0.462300
     56 H121        7.0070   -5.7480   -5.7640 hn        1 2EN      0.454800
@<TRIPOS>BOND
     1    1    2 1   
     2    2    3 ar  
     3    2   13 ar  
     4    3    4 ar  
     5    3   29 1   
     6    4    5 1   
     7    4    8 ar  
     8    5    6 1   
     9    5   30 1   
    10    5   31 1   
    11    6    7 2   
    12    6   32 1   
    13    7   33 1   
    14    7   34 1   
    15    8    9 1   
    16    8   14 ar  
    17    9   10 1   
    18   10   11 1   
    19   10   35 1   
    20   10   36 1   
    21   11   12 2   
    22   11   37 1   
    23   12   38 1   
    24   12   39 1   
    25   13   14 ar  
    26   13   40 1   
    27   14   15 1   
    28   15   16 1   
    29   15   41 1   
    30   15   42 1   
    31   16   17 1   
    32   16   43 1   
    33   16   55 1   
    34   17   18 1   
    35   17   44 1   
    36   17   45 1   
    37   18   19 1   
    38   18   46 1   
    39   18   47 1   
    40   19   20 1   
    41   19   48 1   
    42   19   49 1   
    43   20   21 1   
    44   20   50 1   
    45   20   56 1   
    46   21   22 2   
    47   21   23 1   
    48   23   24 1   
    49   23   51 1   
    50   24   25 1   
    51   24   28 2   
    52   25   26 2   
    53   25   52 1   
    54   26   27 1   
    55   26   53 1   
    56   27   28 1   
    57   28   54 1   
@<TRIPOS>SUBSTRUCTURE
     1 2EN         1 TEMP              0 ****  ****    0 ROOT
