@<TRIPOS>MOLECULE
2EN
   56    57     1     0     0
SMALL
bcc


@<TRIPOS>ATOM
      1 CL          0.2060    0.7300    0.0860 cl        1 2EN     -0.018400
      2 C15         1.8620    0.4240   -0.0350 ca        1 2EN      0.004400
      3 C16         2.6960    0.6280    1.0690 ca        1 2EN     -0.051000
      4 C17         4.0700    0.3580    1.0000 ca        1 2EN     -0.078300
      5 C18         4.9190    0.6720    2.1870 c3        1 2EN     -0.014900
      6 C19         4.4760    1.9070    2.8880 c2        1 2EN     -0.206200
      7 C20         4.3410    1.9920    4.2090 c2        1 2EN     -0.175000
      8 C3          4.5890   -0.1630   -0.1960 ca        1 2EN      0.128100
      9 O           5.9150   -0.5060   -0.4150 os        1 2EN     -0.397900
     10 C2          6.5640   -1.3080    0.5950 c3        1 2EN      0.172600
     11 C1          7.8140   -0.6240    1.0180 c2        1 2EN     -0.232200
     12 C           8.6240   -1.1190    1.9520 c2        1 2EN     -0.165000
     13 C14         2.3990   -0.0090   -1.2510 ca        1 2EN     -0.077000
     14 C4          3.7650   -0.2860   -1.3410 ca        1 2EN     -0.215300
     15 C5          4.3640   -0.5560   -2.6750 c3        1 2EN      0.199100
     16 N           5.0180   -1.9170   -2.7260 n4        1 2EN     -0.772000
     17 C6          5.6020   -2.1910   -4.0640 c3        1 2EN      0.103800
     18 C7          6.2890   -3.5530   -4.1600 c3        1 2EN     -0.134400
     19 C8          6.8770   -3.6900   -5.5640 c3        1 2EN      0.104800
     20 N1          7.6450   -4.9450   -5.7690 n4        1 2EN     -0.687800
     21 C9          8.4780   -4.8420   -7.1050 c         1 2EN      0.629100
     22 O1          9.3350   -3.9630   -7.0260 o         1 2EN     -0.467100
     23 N2          8.0420   -5.5900   -8.1650 n         1 2EN     -0.326100
     24 C10         8.8780   -5.7610   -9.2910 cc        1 2EN     -0.096400
     25 C13         9.7000   -4.7340   -9.8700 cc        1 2EN     -0.122000
     26 C12        10.3230   -5.2090  -11.0070 cd        1 2EN     -0.192100
     27 S           9.9320   -6.7840  -11.3320 ss        1 2EN      0.290200
     28 C11         8.9540   -6.9530  -10.0270 cd        1 2EN     -0.231100
     29 H1          2.2760    1.0240    2.0130 ha        1 2EN      0.189000
     30 H2          4.8990   -0.2040    2.8940 hc        1 2EN      0.069700
     31 H3          5.9860    0.8230    1.8570 hc        1 2EN      0.069700
     32 H4          4.2990    2.7770    2.2340 ha        1 2EN      0.135000
     33 H5          4.5160    1.1450    4.8870 ha        1 2EN      0.128500
     34 H6          4.0500    2.9290    4.7050 ha        1 2EN      0.128500
     35 H7          5.8810   -1.5200    1.4580 h1        1 2EN      0.049200
     36 H8          6.7970   -2.2780    0.0690 h1        1 2EN      0.049200
     37 H9          8.0240    0.3300    0.5060 ha        1 2EN      0.153000
     38 H10         8.4270   -2.0610    2.4820 ha        1 2EN      0.133500
     39 H11         9.5450   -0.6000    2.2540 ha        1 2EN      0.133500
     40 H12         1.7500   -0.1050   -2.1360 ha        1 2EN      0.158000
     41 H13         3.5850   -0.5170   -3.4890 hx        1 2EN      0.111200
     42 H14         5.1730    0.2040   -2.8880 hx        1 2EN      0.111200
     43 H15         4.3220   -2.6320   -2.4870 hn        1 2EN      0.462300
     44 H17         6.3470   -1.3700   -4.2870 hx        1 2EN      0.116700
     45 H18         4.7700   -2.1280   -4.8260 hx        1 2EN      0.116700
     46 H19         7.1040   -3.6290   -3.3890 hc        1 2EN      0.085700
     47 H20         5.5510   -4.3770   -3.9640 hc        1 2EN      0.085700
     48 H21         6.0520   -3.6600   -6.3340 hx        1 2EN      0.125200
     49 H22         7.5840   -2.8280   -5.7660 hx        1 2EN      0.125200
     50 H23         7.0190   -5.7510   -5.7540 hn        1 2EN      0.454800
     51 H24         7.3940   -6.3390   -8.0160 hn        1 2EN      0.341500
     52 H25         9.8140   -3.7300   -9.4520 ha        1 2EN      0.179000
     53 H26        11.0000   -4.6160  -11.6290 h4        1 2EN      0.208000
     54 H27         8.4280   -7.8790   -9.7890 h4        1 2EN      0.189000
     55 HN3         5.7560   -1.9330   -2.0010 hn        1 2EN      0.462300
     56 H121        8.3370   -5.0530   -5.0180 hn        1 2EN      0.454800
@<TRIPOS>BOND
     1    1    2 1   
     2    2    3 ar  
     3    2   13 ar  
     4    3    4 ar  
     5    3   29 1   
     6    4    5 1   
     7    4    8 ar  
     8    5    6 1   
     9    5   30 1   
    10    5   31 1   
    11    6    7 2   
    12    6   32 1   
    13    7   33 1   
    14    7   34 1   
    15    8    9 1   
    16    8   14 ar  
    17    9   10 1   
    18   10   11 1   
    19   10   35 1   
    20   10   36 1   
    21   11   12 2   
    22   11   37 1   
    23   12   38 1   
    24   12   39 1   
    25   13   14 ar  
    26   13   40 1   
    27   14   15 1   
    28   15   16 1   
    29   15   41 1   
    30   15   42 1   
    31   16   17 1   
    32   16   43 1   
    33   16   55 1   
    34   17   18 1   
    35   17   44 1   
    36   17   45 1   
    37   18   19 1   
    38   18   46 1   
    39   18   47 1   
    40   19   20 1   
    41   19   48 1   
    42   19   49 1   
    43   20   21 1   
    44   20   50 1   
    45   20   56 1   
    46   21   22 2   
    47   21   23 1   
    48   23   24 1   
    49   23   51 1   
    50   24   25 1   
    51   24   28 2   
    52   25   26 2   
    53   25   52 1   
    54   26   27 1   
    55   26   53 1   
    56   27   28 1   
    57   28   54 1   
@<TRIPOS>SUBSTRUCTURE
     1 2EN         1 TEMP              0 ****  ****    0 ROOT
