@<TRIPOS>MOLECULE
2EN
   57    58     1     0     0
SMALL
bcc


@<TRIPOS>ATOM
      1 CL          2.8120    3.7190   -0.5090 cl        1 2EN     -0.002400
      2 C15         3.6320    2.2530   -0.3640 ca        1 2EN      0.014400
      3 C16         3.2830    1.3520    0.6490 ca        1 2EN     -0.052000
      4 C17         3.9500    0.1280    0.7930 ca        1 2EN     -0.051300
      5 C18         3.5330   -0.8370    1.8510 c3        1 2EN     -0.016900
      6 C19         2.0590   -0.9150    2.0260 c2        1 2EN     -0.197200
      7 C20         1.3460   -2.0120    1.7830 c2        1 2EN     -0.178000
      8 C3          5.0120   -0.1560   -0.0830 ca        1 2EN      0.104100
      9 O           5.7010   -1.3630   -0.0620 os        1 2EN     -0.417900
     10 C2          6.5630   -1.5650    1.0790 c3        1 2EN      0.164600
     11 C1          7.7960   -0.7420    0.9950 c2        1 2EN     -0.262200
     12 C           9.0030   -1.2050    1.3130 c2        1 2EN     -0.162000
     13 C14         4.6550    1.9400   -1.2660 ca        1 2EN     -0.084000
     14 C4          5.3520    0.7390   -1.1220 ca        1 2EN     -0.215300
     15 C5          6.4730    0.4110   -2.0380 c3        1 2EN      0.203100
     16 N           6.1210   -0.8380   -2.8340 n4        1 2EN     -0.777000
     17 C6          7.1490   -1.1590   -3.8520 c3        1 2EN      0.105800
     18 C7          6.8070   -2.3880   -4.7060 c3        1 2EN     -0.136400
     19 C8          7.9320   -2.5830   -5.7210 c3        1 2EN      0.111800
     20 N1          7.6630   -3.7200   -6.6810 n4        1 2EN     -0.640800
     21 C9          8.6530   -3.7190   -7.8110 c         1 2EN      0.471100
     22 O1          9.1570   -2.6750   -8.1890 o         1 2EN     -0.287100
     23 N2          8.9870   -5.0290   -8.4710 n4        1 2EN     -0.435200
     24 C10         8.0280   -6.0750   -8.2660 cc        1 2EN     -0.250400
     25 C13         8.0570   -6.9830   -7.1490 cc        1 2EN     -0.137000
     26 C12         7.1340   -7.9890   -7.3490 cd        1 2EN     -0.203100
     27 S           6.3280   -7.8450   -8.7860 ss        1 2EN      0.530200
     28 C11         7.0740   -6.4800   -9.2270 cd        1 2EN     -0.221100
     29 H1          2.4630    1.6080    1.3470 ha        1 2EN      0.191000
     30 H2          3.9930   -0.5140    2.8300 hc        1 2EN      0.072200
     31 H3          3.9420   -1.8570    1.6060 hc        1 2EN      0.072200
     32 H4          1.5800   -0.0050    2.4260 ha        1 2EN      0.139000
     33 H5          1.7890   -2.9450    1.4080 ha        1 2EN      0.124500
     34 H6          0.2620   -2.0530    1.9610 ha        1 2EN      0.124500
     35 H7          6.0060   -1.3230    2.0250 h1        1 2EN      0.084200
     36 H8          6.7700   -2.6690    1.0350 h1        1 2EN      0.084200
     37 H9          7.6330    0.3190    0.7390 ha        1 2EN      0.133000
     38 H10         9.1850   -2.2470    1.6150 ha        1 2EN      0.135000
     39 H11         9.8930   -0.5590    1.3270 ha        1 2EN      0.135000
     40 H12         4.9190    2.6510   -2.0660 ha        1 2EN      0.160000
     41 H13         6.6780    1.2450   -2.7660 hx        1 2EN      0.112700
     42 H14         7.4060    0.1660   -1.4490 hx        1 2EN      0.112700
     43 H15         6.0220   -1.6110   -2.1510 hn        1 2EN      0.469800
     44 H17         7.2690   -0.2540   -4.5190 hx        1 2EN      0.119700
     45 H18         8.1260   -1.3290   -3.3100 hx        1 2EN      0.119700
     46 H19         6.7060   -3.2950   -4.0500 hc        1 2EN      0.096200
     47 H20         5.8250   -2.2260   -5.2300 hc        1 2EN      0.096200
     48 H21         8.9040   -2.8120   -5.1920 hx        1 2EN      0.140200
     49 H22         8.0650   -1.6400   -6.3350 hx        1 2EN      0.140200
     50 H23         7.6830   -4.6250   -6.1810 hn        1 2EN      0.495800
     51 H24         9.9150   -5.3350   -8.1100 hn        1 2EN      0.524300
     52 H25         8.7480   -6.9260   -6.3020 ha        1 2EN      0.185000
     53 H26         6.9740   -8.8210   -6.6450 h4        1 2EN      0.244000
     54 H27         6.8840   -5.9670  -10.1810 h4        1 2EN      0.224000
     55 HN3         5.2060   -0.6930   -3.2780 hn        1 2EN      0.469800
     56 H121        6.7190   -3.6060   -7.0910 hn        1 2EN      0.495800
     57 H221        9.0820   -4.8370   -9.4930 hn        1 2EN      0.524300
@<TRIPOS>BOND
     1    1    2 1   
     2    2    3 ar  
     3    2   13 ar  
     4    3    4 ar  
     5    3   29 1   
     6    4    5 1   
     7    4    8 ar  
     8    5    6 1   
     9    5   30 1   
    10    5   31 1   
    11    6    7 2   
    12    6   32 1   
    13    7   33 1   
    14    7   34 1   
    15    8    9 1   
    16    8   14 ar  
    17    9   10 1   
    18   10   11 1   
    19   10   35 1   
    20   10   36 1   
    21   11   12 2   
    22   11   37 1   
    23   12   38 1   
    24   12   39 1   
    25   13   14 ar  
    26   13   40 1   
    27   14   15 1   
    28   15   16 1   
    29   15   41 1   
    30   15   42 1   
    31   16   17 1   
    32   16   43 1   
    33   16   55 1   
    34   17   18 1   
    35   17   44 1   
    36   17   45 1   
    37   18   19 1   
    38   18   46 1   
    39   18   47 1   
    40   19   20 1   
    41   19   48 1   
    42   19   49 1   
    43   20   21 1   
    44   20   50 1   
    45   20   56 1   
    46   21   22 2   
    47   21   23 1   
    48   23   24 1   
    49   23   51 1   
    50   23   57 1   
    51   24   25 1   
    52   24   28 2   
    53   25   26 2   
    54   25   52 1   
    55   26   27 1   
    56   26   53 1   
    57   27   28 1   
    58   28   54 1   
@<TRIPOS>SUBSTRUCTURE
     1 2EN         1 TEMP              0 ****  ****    0 ROOT
