@<TRIPOS>MOLECULE
2EO
   51    55     1     0     0
SMALL
bcc


@<TRIPOS>ATOM
      1 O1         -2.4540    1.9520    0.8060 o         1 2EO     -0.409100
      2 C1         -1.5750    1.1420    0.5660 c         1 2EO      0.575100
      3 C5         -0.1280    1.1970    0.9640 c3        1 2EO     -0.162700
      4 C6          0.2390    0.1990    2.0210 cc        1 2EO      0.329900
      5 N11        -0.6270   -0.7480    2.3550 nd        1 2EO     -0.484300
      6 N10        -0.3370   -1.6430    3.2800 n         1 2EO     -0.200800
      7 C17        -1.3740   -2.5940    3.6760 c3        1 2EO      0.084300
      8 C7          1.5500    0.3420    2.6490 ca        1 2EO     -0.116900
      9 C8          1.8650   -0.5870    3.6640 ca        1 2EO     -0.133600
     10 C15         3.0970   -0.5200    4.3280 ca        1 2EO     -0.056000
     11 C14         4.0140    0.4660    3.9770 ca        1 2EO     -0.115000
     12 C13         3.7070    1.3840    2.9670 ca        1 2EO     -0.082000
     13 C12         2.4840    1.3260    2.3040 ca        1 2EO     -0.131000
     14 C9          0.8890   -1.6300    4.0320 c         1 2EO      0.691100
     15 O16         1.0630   -2.4820    4.9130 o         1 2EO     -0.565500
     16 N1         -2.0110   -0.0670   -0.2460 n4        1 2EO     -0.538200
     17 C18        -1.6360    0.0760   -1.6560 ca        1 2EO     -0.072400
     18 C19        -0.5290   -0.6450   -2.1430 ca        1 2EO     -0.091000
     19 C20        -0.2480   -0.4740   -3.4880 ca        1 2EO      0.056100
     20 C21        -1.0160    0.3730   -4.3620 ca        1 2EO     -0.024800
     21 C22        -2.1020    1.0680   -3.8350 ca        1 2EO     -0.067000
     22 C23        -2.4100    0.9180   -2.4870 ca        1 2EO     -0.118000
     23 O24         0.7950   -1.0860   -4.1850 os        1 2EO     -0.173200
     24 C25         0.6760   -0.6190   -5.5040 cc        1 2EO      0.090900
     25 C26        -0.3890    0.2550   -5.6570 cd        1 2EO     -0.139400
     26 C27         1.6250   -1.0550   -6.5390 c3        1 2EO     -0.032200
     27 C28         1.0700   -0.6660   -7.9040 c3        1 2EO     -0.080400
     28 C29         0.4580    0.7230   -7.9170 c3        1 2EO     -0.083400
     29 C30        -0.7170    0.8650   -6.9560 c3        1 2EO     -0.015200
     30 H1          0.0600    2.2350    1.3670 hc        1 2EO      0.122200
     31 H2          0.5240    1.0420    0.0590 hc        1 2EO      0.122200
     32 H3         -0.8670   -3.4840    4.1400 h1        1 2EO      0.070367
     33 H4         -1.9690   -2.9270    2.7870 h1        1 2EO      0.070367
     34 H5         -2.0580   -2.1210    4.4300 h1        1 2EO      0.070367
     35 H6          3.3230   -1.2520    5.1220 ha        1 2EO      0.176000
     36 H7          4.9840    0.5240    4.4960 ha        1 2EO      0.161000
     37 H8          4.4390    2.1610    2.6950 ha        1 2EO      0.155000
     38 H9          2.2620    2.0550    1.5120 ha        1 2EO      0.135000
     39 H10        -3.0360   -0.1560   -0.1870 hn        1 2EO      0.469800
     40 H11         0.0820   -1.3120   -1.5180 ha        1 2EO      0.170000
     41 H12        -2.7120    1.7260   -4.4750 ha        1 2EO      0.175000
     42 H13        -3.2700    1.4710   -2.0720 ha        1 2EO      0.160000
     43 H14         2.6170   -0.5570   -6.3610 hc        1 2EO      0.084200
     44 H15         1.7900   -2.1640   -6.4830 hc        1 2EO      0.084200
     45 H16         1.9030   -0.7110   -8.6540 hc        1 2EO      0.062200
     46 H17         0.2950   -1.4160   -8.2140 hc        1 2EO      0.062200
     47 H18         1.2450    1.4760   -7.6510 hc        1 2EO      0.058700
     48 H19         0.1040    0.9580   -8.9550 hc        1 2EO      0.058700
     49 H20        -0.9680    1.9520   -6.8270 hc        1 2EO      0.064200
     50 H21        -1.6240    0.3590   -7.3850 hc        1 2EO      0.064200
     51 H121       -1.5810   -0.9180    0.1360 hn        1 2EO      0.469800
@<TRIPOS>BOND
     1    1    2 2   
     2    2    3 1   
     3    2   16 1   
     4    3    4 1   
     5    3   30 1   
     6    3   31 1   
     7    4    5 2   
     8    4    8 1   
     9    5    6 1   
    10    6    7 1   
    11    6   14 1   
    12    7   32 1   
    13    7   33 1   
    14    7   34 1   
    15    8    9 ar  
    16    8   13 ar  
    17    9   10 ar  
    18    9   14 1   
    19   10   11 ar  
    20   10   35 1   
    21   11   12 ar  
    22   11   36 1   
    23   12   13 ar  
    24   12   37 1   
    25   13   38 1   
    26   14   15 2   
    27   16   17 1   
    28   16   39 1   
    29   16   51 1   
    30   17   18 ar  
    31   17   22 ar  
    32   18   19 ar  
    33   18   40 1   
    34   19   20 ar  
    35   19   23 1   
    36   20   21 ar  
    37   20   25 1   
    38   21   22 ar  
    39   21   41 1   
    40   22   42 1   
    41   23   24 1   
    42   24   25 2   
    43   24   26 1   
    44   25   29 1   
    45   26   27 1   
    46   26   43 1   
    47   26   44 1   
    48   27   28 1   
    49   27   45 1   
    50   27   46 1   
    51   28   29 1   
    52   28   47 1   
    53   28   48 1   
    54   29   49 1   
    55   29   50 1   
@<TRIPOS>SUBSTRUCTURE
     1 2EO         1 TEMP              0 ****  ****    0 ROOT
