@<TRIPOS>MOLECULE
2EO
   50    54     1     0     0
SMALL
bcc


@<TRIPOS>ATOM
      1 O1          2.2300    1.6800   -0.7590 o         1 2EO     -0.582100
      2 C1          1.9240    0.6340   -0.1600 c         1 2EO      0.678100
      3 C5          2.3660    0.4350    1.2850 c3        1 2EO     -0.178700
      4 C6          1.2580    0.2900    2.2810 cc        1 2EO      0.343900
      5 N11        -0.0050    0.3450    1.8860 nd        1 2EO     -0.425300
      6 N10        -0.9950    0.2320    2.7610 n         1 2EO     -0.207800
      7 C17        -2.3710    0.3320    2.2840 c3        1 2EO      0.097300
      8 C7          1.6410    0.1170    3.6830 ca        1 2EO     -0.106900
      9 C8          0.5960    0.0000    4.6240 ca        1 2EO     -0.139600
     10 C15         0.8800   -0.1680    5.9860 ca        1 2EO     -0.066000
     11 C14         2.2030   -0.2190    6.4100 ca        1 2EO     -0.135000
     12 C13         3.2430   -0.1020    5.4810 ca        1 2EO     -0.096000
     13 C12         2.9700    0.0650    4.1290 ca        1 2EO     -0.129000
     14 C9         -0.8040    0.0630    4.1620 c         1 2EO      0.683100
     15 O16        -1.7960   -0.0270    4.9060 o         1 2EO     -0.609500
     16 N1          1.2600   -0.4290   -0.7520 ns        1 2EO     -0.455100
     17 C18         0.7090   -0.4650   -2.0460 ca        1 2EO      0.080600
     18 C19         1.0380    0.4890   -3.0310 ca        1 2EO     -0.147000
     19 C20         0.4530    0.3170   -4.2790 ca        1 2EO      0.082100
     20 C21        -0.4400   -0.7520   -4.6050 ca        1 2EO     -0.112800
     21 C22        -0.7490   -1.6790   -3.6150 ca        1 2EO     -0.062000
     22 C23        -0.1830   -1.5330   -2.3560 ca        1 2EO     -0.198000
     23 O24         0.6500    1.1530   -5.3850 os        1 2EO     -0.188200
     24 C25        -0.1320    0.5910   -6.4080 cc        1 2EO      0.025900
     25 C26        -0.8010   -0.5440   -5.9930 cd        1 2EO     -0.124400
     26 C27        -0.1820    1.2160   -7.7370 c3        1 2EO     -0.016200
     27 C28        -0.8200    0.2350   -8.7140 c3        1 2EO     -0.075400
     28 C29        -2.0210   -0.4820   -8.1250 c3        1 2EO     -0.079400
     29 C30        -1.6740   -1.3110   -6.8940 c3        1 2EO     -0.007200
     30 H1          3.0280   -0.4710    1.3450 hc        1 2EO      0.089200
     31 H2          2.9760    1.3380    1.5680 hc        1 2EO      0.089200
     32 H3         -2.9010   -0.6250    2.5350 h1        1 2EO      0.062700
     33 H4         -2.4110    0.5110    1.1790 h1        1 2EO      0.062700
     34 H5         -2.8730    1.1790    2.8250 h1        1 2EO      0.062700
     35 H6          0.0460   -0.2550    6.7010 ha        1 2EO      0.164000
     36 H7          2.4330   -0.3510    7.4780 ha        1 2EO      0.144000
     37 H8          4.2880   -0.1410    5.8270 ha        1 2EO      0.141000
     38 H9          3.7970    0.1600    3.4100 ha        1 2EO      0.142000
     39 H10         0.9670   -1.1660   -0.1490 hn        1 2EO      0.320500
     40 H11         1.7140    1.3350   -2.8380 ha        1 2EO      0.189000
     41 H12        -1.4330   -2.5130   -3.8240 ha        1 2EO      0.138000
     42 H13        -0.4370   -2.2720   -1.5800 ha        1 2EO      0.129000
     43 H14         0.8480    1.4950   -8.0820 hc        1 2EO      0.065200
     44 H15        -0.7870    2.1610   -7.6800 hc        1 2EO      0.065200
     45 H16        -1.1360    0.7950   -9.6330 hc        1 2EO      0.046700
     46 H17        -0.0550   -0.5230   -9.0250 hc        1 2EO      0.046700
     47 H18        -2.4650   -1.1560   -8.9030 hc        1 2EO      0.044700
     48 H19        -2.8010    0.2750   -7.8480 hc        1 2EO      0.044700
     49 H20        -2.6160   -1.6110   -6.3640 hc        1 2EO      0.051200
     50 H21        -1.1500   -2.2550   -7.2070 hc        1 2EO      0.051200
@<TRIPOS>BOND
     1    1    2 2   
     2    2    3 1   
     3    2   16 1   
     4    3    4 1   
     5    3   30 1   
     6    3   31 1   
     7    4    5 2   
     8    4    8 1   
     9    5    6 1   
    10    6    7 1   
    11    6   14 1   
    12    7   32 1   
    13    7   33 1   
    14    7   34 1   
    15    8    9 ar  
    16    8   13 ar  
    17    9   10 ar  
    18    9   14 1   
    19   10   11 ar  
    20   10   35 1   
    21   11   12 ar  
    22   11   36 1   
    23   12   13 ar  
    24   12   37 1   
    25   13   38 1   
    26   14   15 2   
    27   16   17 1   
    28   16   39 1   
    29   17   18 ar  
    30   17   22 ar  
    31   18   19 ar  
    32   18   40 1   
    33   19   20 ar  
    34   19   23 1   
    35   20   21 ar  
    36   20   25 1   
    37   21   22 ar  
    38   21   41 1   
    39   22   42 1   
    40   23   24 1   
    41   24   25 2   
    42   24   26 1   
    43   25   29 1   
    44   26   27 1   
    45   26   43 1   
    46   26   44 1   
    47   27   28 1   
    48   27   45 1   
    49   27   46 1   
    50   28   29 1   
    51   28   47 1   
    52   28   48 1   
    53   29   49 1   
    54   29   50 1   
@<TRIPOS>SUBSTRUCTURE
     1 2EO         1 TEMP              0 ****  ****    0 ROOT
