@<TRIPOS>MOLECULE
2EP
   23    23     1     0     0
SMALL
bcc


@<TRIPOS>ATOM
      1 N1          1.0750    0.2680    0.1070 n3        1 2EP     -0.817200
      2 C2         -0.2270   -0.2300    0.5450 c3        1 2EP      0.175500
      3 C3         -1.3370    0.1480   -0.4490 c3        1 2EP     -0.074400
      4 C4         -0.9940   -0.3190   -1.8480 c3        1 2EP     -0.077400
      5 C5          0.3640    0.1980   -2.2710 c3        1 2EP     -0.077400
      6 C6          1.4290   -0.1540   -1.2340 c3        1 2EP      0.166800
      7 C1'        -0.6060    0.3000    1.9350 c3        1 2EP     -0.078400
      8 C2'         0.3020   -0.2180    3.0190 c3        1 2EP     -0.096100
      9 HN1         1.7800   -0.0240    0.7580 hn        1 2EP      0.360800
     10 H2         -0.2140   -1.3650    0.6080 h1        1 2EP      0.010700
     11 H31        -2.2940   -0.3270   -0.1120 hc        1 2EP      0.046200
     12 H32        -1.4840    1.2590   -0.4440 hc        1 2EP      0.046200
     13 H41        -0.9950   -1.4400   -1.8790 hc        1 2EP      0.038200
     14 H42        -1.7770    0.0380   -2.5670 hc        1 2EP      0.038200
     15 H51         0.6590   -0.2510   -3.2530 hc        1 2EP      0.045700
     16 H52         0.3190    1.3110   -2.4020 hc        1 2EP      0.045700
     17 H61         1.6180   -1.2680   -1.2910 h1        1 2EP      0.025200
     18 H62         2.3900    0.3670   -1.5020 h1        1 2EP      0.025200
     19 H1'1       -1.6600   -0.0240    2.1450 hc        1 2EP      0.047700
     20 H1'2       -0.5930    1.4210    1.9310 hc        1 2EP      0.047700
     21 H2'1       -0.1150    0.0370    4.0230 hc        1 2EP      0.033033
     22 H2'2        0.4060   -1.3290    2.9540 hc        1 2EP      0.033033
     23 H2'3        1.3200    0.2350    2.9440 hc        1 2EP      0.033033
@<TRIPOS>BOND
     1    1    2 1   
     2    1    6 1   
     3    1    9 1   
     4    2    3 1   
     5    2    7 1   
     6    2   10 1   
     7    3    4 1   
     8    3   11 1   
     9    3   12 1   
    10    4    5 1   
    11    4   13 1   
    12    4   14 1   
    13    5    6 1   
    14    5   15 1   
    15    5   16 1   
    16    6   17 1   
    17    6   18 1   
    18    7    8 1   
    19    7   19 1   
    20    7   20 1   
    21    8   21 1   
    22    8   22 1   
    23    8   23 1   
@<TRIPOS>SUBSTRUCTURE
     1 2EP         1 TEMP              0 ****  ****    0 ROOT
