@<TRIPOS>MOLECULE
2EP
   23    23     1     0     0
SMALL
bcc


@<TRIPOS>ATOM
      1 N1         -1.2300    0.1500   -0.4100 n3        1 2EP     -0.817200
      2 C2          0.2290    0.1500   -0.4100 c3        1 2EP      0.175500
      3 C3          0.8070    0.1500    0.9860 c3        1 2EP     -0.074400
      4 C4          0.2410   -0.9210    1.8290 c3        1 2EP     -0.077400
      5 C5         -1.2280   -0.9160    1.8240 c3        1 2EP     -0.077400
      6 C6         -1.7990   -0.9120    0.4250 c3        1 2EP      0.166800
      7 C1'         0.7190    1.3830   -1.1430 c3        1 2EP     -0.078400
      8 C2'         1.3670    0.9680   -2.4610 c3        1 2EP     -0.096100
      9 HN1        -1.5340    0.0610   -1.2650 hn        1 2EP      0.360800
     10 H2          0.5440   -0.6440   -0.8820 h1        1 2EP      0.010700
     11 H31         1.7740    0.0290    0.9280 hc        1 2EP      0.046200
     12 H32         0.6210    1.0130    1.4050 hc        1 2EP      0.046200
     13 H41         0.5550   -0.8010    2.7450 hc        1 2EP      0.038200
     14 H42         0.5550   -1.7830    1.4970 hc        1 2EP      0.038200
     15 H51        -1.5480   -1.7090    2.2940 hc        1 2EP      0.045700
     16 H52        -1.5430   -0.1210    2.2960 hc        1 2EP      0.045700
     17 H61        -1.6150   -1.7750    0.0070 h1        1 2EP      0.025200
     18 H62        -2.7660   -0.7870    0.4790 h1        1 2EP      0.025200
     19 H1'1        1.3740    1.8510   -0.5920 hc        1 2EP      0.047700
     20 H1'2       -0.0360    1.9750   -1.3250 hc        1 2EP      0.047700
     21 H2'1        2.1680    0.4410   -2.2780 hc        1 2EP      0.033033
     22 H2'2        0.7360    0.4320   -2.9800 hc        1 2EP      0.033033
     23 H2'3        1.6110    1.7650   -2.9690 hc        1 2EP      0.033033
@<TRIPOS>BOND
     1    1    2 1   
     2    1    6 1   
     3    1    9 1   
     4    2    3 1   
     5    2    7 1   
     6    2   10 1   
     7    3    4 1   
     8    3   11 1   
     9    3   12 1   
    10    4    5 1   
    11    4   13 1   
    12    4   14 1   
    13    5    6 1   
    14    5   15 1   
    15    5   16 1   
    16    6   17 1   
    17    6   18 1   
    18    7    8 1   
    19    7   19 1   
    20    7   20 1   
    21    8   21 1   
    22    8   22 1   
    23    8   23 1   
@<TRIPOS>SUBSTRUCTURE
     1 2EP         1 TEMP              0 ****  ****    0 ROOT
