@<TRIPOS>MOLECULE
2EP
   23    23     1     0     0
SMALL
bcc


@<TRIPOS>ATOM
      1 N1         -0.0400   -0.0960   -0.0390 n7        1 2EP     -0.817200
      2 C2          1.4180    0.0010   -0.0430 c3        1 2EP      0.175500
      3 C3          1.9890   -0.0400    1.3830 c3        1 2EP     -0.074400
      4 C4          1.5050   -1.2680    2.1260 c3        1 2EP     -0.077400
      5 C5         -0.0060   -1.3510    2.1040 c3        1 2EP     -0.077400
      6 C6         -0.5360   -1.2570    0.6740 c3        1 2EP      0.166800
      7 C1'         1.9060    1.2800   -0.7360 c3        1 2EP     -0.078400
      8 C2'         1.5900    1.2980   -2.2080 c3        1 2EP     -0.096100
      9 HN1        -0.3780   -0.1010   -0.9830 hn        1 2EP      0.360800
     10 H2          1.8680   -0.8800   -0.6040 h1        1 2EP      0.010700
     11 H31         3.1070   -0.0490    1.3190 hc        1 2EP      0.046200
     12 H32         1.6830    0.8850    1.9370 hc        1 2EP      0.046200
     13 H41         1.8680   -1.2340    3.1860 hc        1 2EP      0.038200
     14 H42         1.9390   -2.1880    1.6520 hc        1 2EP      0.038200
     15 H51        -0.4380   -0.5210    2.7210 hc        1 2EP      0.045700
     16 H52        -0.3460   -2.3210    2.5480 hc        1 2EP      0.045700
     17 H61        -0.2800   -2.2220    0.1420 h1        1 2EP      0.025200
     18 H62        -1.6590   -1.1730    0.7030 h1        1 2EP      0.025200
     19 H1'1        1.4530    2.1780   -0.2380 hc        1 2EP      0.047700
     20 H1'2        3.0170    1.3400   -0.5920 hc        1 2EP      0.047700
     21 H2'1        1.9180    0.3480   -2.6970 hc        1 2EP      0.033033
     22 H2'2        0.4950    1.4250   -2.3860 hc        1 2EP      0.033033
     23 H2'3        2.1200    2.1470   -2.7040 hc        1 2EP      0.033033
@<TRIPOS>BOND
     1    1    2 1   
     2    1    6 1   
     3    1    9 1   
     4    2    3 1   
     5    2    7 1   
     6    2   10 1   
     7    3    4 1   
     8    3   11 1   
     9    3   12 1   
    10    4    5 1   
    11    4   13 1   
    12    4   14 1   
    13    5    6 1   
    14    5   15 1   
    15    5   16 1   
    16    6   17 1   
    17    6   18 1   
    18    7    8 1   
    19    7   19 1   
    20    7   20 1   
    21    8   21 1   
    22    8   22 1   
    23    8   23 1   
@<TRIPOS>SUBSTRUCTURE
     1 2EP         1 TEMP              0 ****  ****    0 ROOT
