@<TRIPOS>MOLECULE
2EP
   23    23     1     0     0
SMALL
bcc


@<TRIPOS>ATOM
      1 N1         -0.0400   -0.1000   -0.0410 n3        1 2EP     -0.817200
      2 C2          1.4180    0.0020   -0.0420 c3        1 2EP      0.175500
      3 C3          1.9860   -0.0380    1.3860 c3        1 2EP     -0.074400
      4 C4          1.5050   -1.2680    2.1260 c3        1 2EP     -0.077400
      5 C5         -0.0060   -1.3560    2.1000 c3        1 2EP     -0.077400
      6 C6         -0.5330   -1.2620    0.6690 c3        1 2EP      0.166800
      7 C1'         1.9030    1.2840   -0.7320 c3        1 2EP     -0.078400
      8 C2'         1.5920    1.3010   -2.2060 c3        1 2EP     -0.096100
      9 HN1        -0.3750   -0.1050   -0.9870 hn        1 2EP      0.360800
     10 H2          1.8730   -0.8760   -0.6030 h1        1 2EP      0.010700
     11 H31         3.1040   -0.0430    1.3250 hc        1 2EP      0.046200
     12 H32         1.6760    0.8860    1.9390 hc        1 2EP      0.046200
     13 H41         1.8640   -1.2340    3.1870 hc        1 2EP      0.038200
     14 H42         1.9420   -2.1860    1.6520 hc        1 2EP      0.038200
     15 H51        -0.4430   -0.5280    2.7170 hc        1 2EP      0.045700
     16 H52        -0.3440   -2.3280    2.5430 hc        1 2EP      0.045700
     17 H61        -0.2730   -2.2260    0.1370 h1        1 2EP      0.025200
     18 H62        -1.6560   -1.1830    0.6960 h1        1 2EP      0.025200
     19 H1'1        1.4460    2.1800   -0.2360 hc        1 2EP      0.047700
     20 H1'2        3.0140    1.3480   -0.5850 hc        1 2EP      0.047700
     21 H2'1        1.9250    0.3530   -2.6940 hc        1 2EP      0.033033
     22 H2'2        0.4970    1.4250   -2.3860 hc        1 2EP      0.033033
     23 H2'3        2.1200    2.1540   -2.6990 hc        1 2EP      0.033033
@<TRIPOS>BOND
     1    1    2 1   
     2    1    6 1   
     3    1    9 1   
     4    2    3 1   
     5    2    7 1   
     6    2   10 1   
     7    3    4 1   
     8    3   11 1   
     9    3   12 1   
    10    4    5 1   
    11    4   13 1   
    12    4   14 1   
    13    5    6 1   
    14    5   15 1   
    15    5   16 1   
    16    6   17 1   
    17    6   18 1   
    18    7    8 1   
    19    7   19 1   
    20    7   20 1   
    21    8   21 1   
    22    8   22 1   
    23    8   23 1   
@<TRIPOS>SUBSTRUCTURE
     1 2EP         1 TEMP              0 ****  ****    0 ROOT
