@<TRIPOS>MOLECULE
2EP
   23    23     1     0     0
SMALL
bcc


@<TRIPOS>ATOM
      1 N1         -0.0410   -0.0900   -0.0370 n3        1 2EP     -0.817200
      2 C2          1.4180    0.0000   -0.0430 c3        1 2EP      0.175500
      3 C3          1.9910   -0.0480    1.3830 c3        1 2EP     -0.074400
      4 C4          1.5020   -1.2750    2.1220 c3        1 2EP     -0.077400
      5 C5         -0.0090   -1.3520    2.1020 c3        1 2EP     -0.077400
      6 C6         -0.5400   -1.2510    0.6720 c3        1 2EP      0.166800
      7 C1'         1.9110    1.2800   -0.7320 c3        1 2EP     -0.078400
      8 C2'         1.5950    1.3020   -2.2040 c3        1 2EP     -0.096100
      9 HN1        -0.3790   -0.0900   -0.9810 hn        1 2EP      0.360800
     10 H2          1.8640   -0.8800   -0.6070 h1        1 2EP      0.010700
     11 H31         1.6900    0.8770    1.9400 hc        1 2EP      0.046200
     12 H32         3.1090   -0.0610    1.3170 hc        1 2EP      0.046200
     13 H41         1.9310   -2.1960    1.6450 hc        1 2EP      0.038200
     14 H42         1.8660   -1.2470    3.1820 hc        1 2EP      0.038200
     15 H51        -0.3530   -2.3220    2.5430 hc        1 2EP      0.045700
     16 H52        -0.4370   -0.5220    2.7220 hc        1 2EP      0.045700
     17 H61        -1.6630   -1.1620    0.7030 h1        1 2EP      0.025200
     18 H62        -0.2900   -2.2150    0.1370 h1        1 2EP      0.025200
     19 H1'1        1.4630    2.1780   -0.2320 hc        1 2EP      0.047700
     20 H1'2        3.0230    1.3350   -0.5890 hc        1 2EP      0.047700
     21 H2'1        0.5000    1.4350   -2.3810 hc        1 2EP      0.033033
     22 H2'2        1.9190    0.3530   -2.6960 hc        1 2EP      0.033033
     23 H2'3        2.1280    2.1520   -2.6980 hc        1 2EP      0.033033
@<TRIPOS>BOND
     1    1    2 1   
     2    1    6 1   
     3    1    9 1   
     4    2    3 1   
     5    2    7 1   
     6    2   10 1   
     7    3    4 1   
     8    3   11 1   
     9    3   12 1   
    10    4    5 1   
    11    4   13 1   
    12    4   14 1   
    13    5    6 1   
    14    5   15 1   
    15    5   16 1   
    16    6   17 1   
    17    6   18 1   
    18    7    8 1   
    19    7   19 1   
    20    7   20 1   
    21    8   21 1   
    22    8   22 1   
    23    8   23 1   
@<TRIPOS>SUBSTRUCTURE
     1 2EP         1 TEMP              0 ****  ****    0 ROOT
