@<TRIPOS>MOLECULE
2EQ
   56    52     1     0     0
SMALL
bcc


@<TRIPOS>ATOM
      1 C20         2.7130   -4.2870    1.1000 c3        1 2EQ     -0.107500
      2 C21         2.1320   -4.8180    2.4860 c3        1 2EQ     -0.049500
      3 O4          1.1210   -5.8140    2.3220 os        1 2EQ     -0.274000
      4 C22         0.6160   -5.7980    1.1240 c3        1 2EQ     -0.049500
      5 C23         0.3520   -4.6700    0.3920 c3        1 2EQ     -0.107500
      6 N4          1.3680   -3.6950    0.5570 n3        1 2EQ     -0.240000
      7 C19         1.6080   -3.0340   -0.7040 c3        1 2EQ     -0.038000
      8 C16         0.9570   -1.6000   -0.6740 c2        1 2EQ     -0.071000
      9 C17         1.5810   -0.5690    0.0200 c2        1 2EQ     -0.113000
     10 C18         1.0090    0.7010    0.0450 c1        1 2EQ     -0.103000
     11 C15        -0.2290   -1.3650   -1.3360 c1        1 2EQ     -0.138000
     12 C14        -0.8000   -0.0940   -1.3100 c1        1 2EQ     -0.112000
     13 C13        -0.1740    0.9370   -0.6160 c1        1 2EQ     -0.034000
     14 C9         -0.7690    2.2070   -0.5560 c1        1 2EQ     -0.061000
     15 C8         -0.5230    3.2640   -1.4210 c1        1 2EQ     -0.143000
     16 C10         0.5060    3.2870   -2.5320 c1        1 2EQ      0.382000
     17 O3          1.2040    2.3250   -2.7260 o         1 2EQ     -0.351000
     18 N3          0.6400    4.4510   -3.3640 n3        1 2EQ     -0.360000
     19 C11         1.8310    4.6160   -4.2060 c3        1 2EQ     -0.033000
     20 C12         2.6010    5.8830   -3.7670 c3        1 2EQ     -0.239000
     21 N2         -1.3660    4.2740   -1.0980 n2        1 2EQ     -0.002000
     22 O5         -2.1520    3.8530   -0.0190 os        1 2EQ     -0.042000
     23 C7         -1.7800    2.5880    0.3050 c2        1 2EQ      0.026000
     24 C5         -2.2900    1.8190    1.3830 c1        1 2EQ     -0.094000
     25 C6         -1.6000    1.7680    2.5780 c1        1 2EQ     -0.012000
     26 C4         -2.1600    1.1190    3.6770 c1        1 2EQ     -0.192000
     27 CL1        -1.3330    1.1350    5.2150 cl        1 2EQ     -0.003000
     28 C3         -3.4130    0.5220    3.5690 c2        1 2EQ      0.152000
     29 O2         -3.9810   -0.1380    4.6870 oh        1 2EQ     -0.237000
     30 C2         -4.1050    0.5730    2.3690 c1        1 2EQ     -0.252000
     31 C1         -3.5510    1.2170    1.2760 c1        1 2EQ      0.152000
     32 O1         -4.2970    1.3620    0.1010 oh        1 2EQ     -0.238000
     33 H201        3.3880   -3.5910    1.2320 h1        1 2EQ      0.097250
     34 H202        3.0450   -5.0250    0.5330 h1        1 2EQ      0.097250
     35 H211        2.8540   -5.1940    3.0000 h1        1 2EQ      0.089250
     36 H212        1.7560   -4.0690    2.9770 h1        1 2EQ      0.089250
     37 H221        1.2110   -6.3440    0.5730 h1        1 2EQ      0.089250
     38 H222       -0.2490   -6.2900    1.1870 h1        1 2EQ      0.089250
     39 H231        0.2890   -4.9130   -0.5680 h1        1 2EQ      0.097250
     40 H232       -0.5010   -4.2950    0.6820 h1        1 2EQ      0.097250
     41 H191        2.5770   -2.9520   -0.8510 h1        1 2EQ      0.083500
     42 H192        1.2100   -3.5610   -1.4320 h1        1 2EQ      0.083500
     43 H17         2.4170   -0.7340    0.4880 ha        1 2EQ      0.151000
     44 H15        -0.6580   -2.0740   -1.8130 ha        1 2EQ      0.131000
     45 H18         1.4460    1.4190    0.5280 ha        1 2EQ      0.167000
     46 H14        -1.6260    0.0700   -1.7710 ha        1 2EQ      0.142000
     47 H3         -0.0440    5.0510   -3.4190 hn        1 2EQ      0.232000
     48 H111        1.5600    4.7060   -5.1450 h1        1 2EQ      0.102000
     49 H112        2.4080    3.8360   -4.1080 h1        1 2EQ      0.102000
     50 H121        2.1300    6.6810   -4.0880 hc        1 2EQ      0.083000
     51 H122        2.6570    5.9080   -2.7840 hc        1 2EQ      0.083000
     52 H123        3.5180    5.8640   -4.1500 hc        1 2EQ      0.083000
     53 H6         -0.7650    2.2680    2.6800 ha        1 2EQ      0.166000
     54 H2         -4.5510    0.4110    5.0990 ho        1 2EQ      0.237000
     55 HA         -4.9990    0.1470    2.2930 ha        1 2EQ      0.163000
     56 H1         -4.7910    0.6590   -0.0170 ho        1 2EQ      0.230000
@<TRIPOS>BOND
     1    1    2 1   
     2    1    6 1   
     3    1   33 1   
     4    1   34 1   
     5    2    3 1   
     6    2   35 1   
     7    2   36 1   
     8    3    4 1   
     9    4    5 1   
    10    4   37 1   
    11    4   38 1   
    12    5    6 1   
    13    5   39 1   
    14    5   40 1   
    15    6    7 1   
    16    7    8 1   
    17    7   41 1   
    18    7   42 1   
    19    8    9 1   
    20    8   11 1   
    21    9   10 1   
    22    9   43 1   
    23   10   45 1   
    24   11   44 1   
    25   12   13 1   
    26   12   46 1   
    27   14   15 1   
    28   14   23 1   
    29   15   21 1   
    30   16   17 1   
    31   16   18 1   
    32   18   19 1   
    33   18   47 1   
    34   19   20 1   
    35   19   48 1   
    36   19   49 1   
    37   20   50 1   
    38   20   51 1   
    39   20   52 1   
    40   21   22 1   
    41   22   23 1   
    42   23   24 1   
    43   24   31 1   
    44   25   26 1   
    45   25   53 1   
    46   26   28 1   
    47   28   29 1   
    48   28   30 1   
    49   29   54 1   
    50   30   55 1   
    51   31   32 1   
    52   32   56 1   
@<TRIPOS>SUBSTRUCTURE
     1 2EQ         1 TEMP              0 ****  ****    0 ROOT
