@<TRIPOS>MOLECULE
2EQ
   56    59     1     0     0
SMALL
bcc


@<TRIPOS>ATOM
      1 C20        35.6080    4.1040   23.7550 c3        1 2EQ      0.126800
      2 C21        37.0980    4.0190   24.1070 c3        1 2EQ      0.098900
      3 O4         37.9460    3.9330   22.9640 os        1 2EQ     -0.416600
      4 C22        37.3010    3.3840   21.8230 c3        1 2EQ      0.098900
      5 C23        36.0790    4.2090   21.3970 c3        1 2EQ      0.126800
      6 N4         35.2920    4.7610   22.4970 n3        1 2EQ     -0.710600
      7 C19        35.3670    6.2190   22.5620 c3        1 2EQ      0.203100
      8 C16        34.4160    6.8430   23.5410 ca        1 2EQ     -0.073300
      9 C17        34.8690    7.8650   24.3830 ca        1 2EQ     -0.122000
     10 C18        33.9910    8.4960   25.2600 ca        1 2EQ     -0.104500
     11 C15        33.0740    6.4550   23.5930 ca        1 2EQ     -0.122000
     12 C14        32.1930    7.0780   24.4750 ca        1 2EQ     -0.104500
     13 C13        32.6440    8.1090   25.3110 ca        1 2EQ     -0.035000
     14 C9         31.7320    8.7590   26.2260 cc        1 2EQ     -0.219600
     15 C8         31.3230    8.2630   27.5450 cc        1 2EQ      0.287800
     16 C10        31.7400    6.9710   28.1650 c         1 2EQ      0.598600
     17 O3         31.5570    5.8880   27.5800 o         1 2EQ     -0.580100
     18 N3         32.3070    7.0620   29.4150 n         1 2EQ     -0.558900
     19 C11        32.8100    5.9150   30.1230 c3        1 2EQ      0.087000
     20 C12        34.2850    6.0040   30.4840 c3        1 2EQ     -0.118100
     21 N2         30.4680    9.1400   28.1040 nd        1 2EQ     -0.332300
     22 O5         30.2850   10.1480   27.2790 os        1 2EQ     -0.135100
     23 C7         31.0420    9.9570   26.0870 cd        1 2EQ      0.336200
     24 C5         30.9460   10.9780   25.0790 ca        1 2EQ     -0.261500
     25 C6         32.0790   11.2520   24.2950 ca        1 2EQ     -0.017000
     26 C4         32.0530   12.2320   23.3110 ca        1 2EQ     -0.113600
     27 CL1        33.4510   12.5310   22.3900 cl        1 2EQ     -0.085400
     28 C3         30.8680   12.9690   23.0850 ca        1 2EQ      0.193100
     29 O2         30.7480   13.9540   22.1430 oh        1 2EQ     -0.480100
     30 C2         29.7230   12.7080   23.8450 ca        1 2EQ     -0.201000
     31 C1         29.7630   11.7140   24.8370 ca        1 2EQ      0.214100
     32 O1         28.5850   11.5410   25.5100 oh        1 2EQ     -0.483100
     33 H201       35.1970    3.0570   23.6760 h1        1 2EQ      0.060200
     34 H202       35.0660    4.6280   24.5890 h1        1 2EQ      0.060200
     35 H211       37.4460    4.9420   24.6430 h1        1 2EQ      0.050450
     36 H212       37.2860    3.1180   24.7490 h1        1 2EQ      0.050450
     37 H221       38.0890    3.4050   21.0260 h1        1 2EQ      0.050450
     38 H222       37.0020    2.3230   22.0350 h1        1 2EQ      0.050450
     39 H231       36.4220    5.0250   20.7010 h1        1 2EQ      0.060200
     40 H232       35.3830    3.5380   20.8180 h1        1 2EQ      0.060200
     41 H191       36.4180    6.5660   22.7960 h1        1 2EQ      0.046700
     42 H192       35.0990    6.6120   21.5370 h1        1 2EQ      0.046700
     43 H17        35.9250    8.1750   24.3550 ha        1 2EQ      0.144500
     44 H15        32.7110    5.6470   22.9390 ha        1 2EQ      0.144500
     45 H18        34.3580    9.2950   25.9210 ha        1 2EQ      0.141500
     46 H14        31.1430    6.7520   24.5260 ha        1 2EQ      0.141500
     47 H3         32.4490    7.9540   29.8250 hn        1 2EQ      0.320500
     48 H111       32.2110    5.8020   31.0730 h1        1 2EQ      0.062200
     49 H112       32.6360    4.9950   29.4930 h1        1 2EQ      0.062200
     50 H121       34.9220    6.0640   29.5700 hc        1 2EQ      0.043033
     51 H122       34.4950    6.8970   31.1210 hc        1 2EQ      0.043033
     52 H123       34.5680    5.0880   31.0560 hc        1 2EQ      0.043033
     53 H6         33.0010   10.6690   24.4690 ha        1 2EQ      0.164000
     54 H2         31.5960   14.0420   21.6780 ho        1 2EQ      0.436000
     55 HA         28.7970   13.2740   23.6690 ha        1 2EQ      0.179000
     56 H1         28.6620   10.7930   26.1220 ho        1 2EQ      0.444000
@<TRIPOS>BOND
     1    1    2 1   
     2    1    6 1   
     3    1   33 1   
     4    1   34 1   
     5    2    3 1   
     6    2   35 1   
     7    2   36 1   
     8    3    4 1   
     9    4    5 1   
    10    4   37 1   
    11    4   38 1   
    12    5    6 1   
    13    5   39 1   
    14    5   40 1   
    15    6    7 1   
    16    7    8 1   
    17    7   41 1   
    18    7   42 1   
    19    8    9 ar  
    20    8   11 ar  
    21    9   10 ar  
    22    9   43 1   
    23   10   13 ar  
    24   10   45 1   
    25   11   12 ar  
    26   11   44 1   
    27   12   13 ar  
    28   12   46 1   
    29   13   14 1   
    30   14   15 1   
    31   14   23 2   
    32   15   16 1   
    33   15   21 2   
    34   16   17 2   
    35   16   18 1   
    36   18   19 1   
    37   18   47 1   
    38   19   20 1   
    39   19   48 1   
    40   19   49 1   
    41   20   50 1   
    42   20   51 1   
    43   20   52 1   
    44   21   22 1   
    45   22   23 1   
    46   23   24 1   
    47   24   25 ar  
    48   24   31 ar  
    49   25   26 ar  
    50   25   53 1   
    51   26   27 1   
    52   26   28 ar  
    53   28   29 1   
    54   28   30 ar  
    55   29   54 1   
    56   30   31 ar  
    57   30   55 1   
    58   31   32 1   
    59   32   56 1   
@<TRIPOS>SUBSTRUCTURE
     1 2EQ         1 TEMP              0 ****  ****    0 ROOT
