@<TRIPOS>MOLECULE
2EQ
   57    60     1     0     0
SMALL
bcc


@<TRIPOS>ATOM
      1 C20         0.4990   -0.1010    0.1040 c3        1 2EQ      0.128800
      2 C21         1.7480    0.6910   -0.2970 c3        1 2EQ      0.126400
      3 O4          2.7110    0.7110    0.7490 os        1 2EQ     -0.407600
      4 C22         2.1780    1.2380    1.9580 c3        1 2EQ      0.126400
      5 C23         0.9350    0.4640    2.4140 c3        1 2EQ      0.128800
      6 N4         -0.0730    0.3630    1.3630 n3        1 2EQ     -0.728600
      7 C19        -1.2160   -0.4360    1.7860 c3        1 2EQ      0.204100
      8 C16        -2.4330   -0.2460    0.9260 ca        1 2EQ     -0.049300
      9 C17        -3.1670   -1.3610    0.5080 ca        1 2EQ     -0.117000
     10 C18        -4.3300   -1.2000   -0.2410 ca        1 2EQ     -0.106000
     11 C15        -2.8770    1.0370    0.5850 ca        1 2EQ     -0.117000
     12 C14        -4.0370    1.2040   -0.1670 ca        1 2EQ     -0.106000
     13 C13        -4.7720    0.0850   -0.5870 ca        1 2EQ     -0.077000
     14 C9         -5.9790    0.2570   -1.3640 cc        1 2EQ     -0.199600
     15 C8         -6.0830    0.3590   -2.8140 cc        1 2EQ      0.209800
     16 C10        -4.9780    0.2990   -3.7630 c         1 2EQ      0.496600
     17 O3         -3.7910    0.1250   -3.5500 o         1 2EQ     -0.386100
     18 N3         -5.3960    0.4890   -5.2170 n4        1 2EQ     -0.677800
     19 C11        -4.2730    0.3890   -6.1990 c3        1 2EQ      0.111800
     20 C12        -3.8650   -1.0380   -6.5000 c3        1 2EQ     -0.133100
     21 N2         -7.3940    0.5220   -3.1590 nd        1 2EQ     -0.352300
     22 O5         -8.1180    0.5310   -2.0870 os        1 2EQ     -0.025100
     23 C7         -7.3050    0.3710   -0.9260 cd        1 2EQ      0.401200
     24 C5         -7.9760    0.3630    0.3370 ca        1 2EQ     -0.252500
     25 C6         -7.2430    0.1680    1.5220 ca        1 2EQ     -0.019000
     26 C4         -7.8620    0.1560    2.7660 ca        1 2EQ     -0.055600
     27 CL1        -6.9220   -0.0830    4.1520 cl        1 2EQ     -0.032400
     28 C3         -9.2660    0.3440    2.8440 ca        1 2EQ      0.228100
     29 O2         -9.8420    0.3270    4.0790 oh        1 2EQ     -0.455100
     30 C2        -10.0180    0.5390    1.6780 ca        1 2EQ     -0.314000
     31 C1         -9.3760    0.5480    0.4340 ca        1 2EQ      0.224100
     32 O1        -10.0570    0.7340   -0.7360 oh        1 2EQ     -0.480100
     33 H201        0.7720   -1.1960    0.1510 h1        1 2EQ      0.043200
     34 H202       -0.2850    0.0280   -0.6920 h1        1 2EQ      0.043200
     35 H211        1.4780    1.7420   -0.5820 h1        1 2EQ      0.057450
     36 H212        2.2710    0.1820   -1.1490 h1        1 2EQ      0.057450
     37 H221        3.0050    1.1130    2.7060 h1        1 2EQ      0.057450
     38 H222        1.9400    2.3260    1.8220 h1        1 2EQ      0.057450
     39 H231        0.4740    1.0120    3.2830 h1        1 2EQ      0.043200
     40 H232        1.2610   -0.5550    2.7750 h1        1 2EQ      0.043200
     41 H191       -1.4930   -0.1180    2.8340 h1        1 2EQ      0.051700
     42 H192       -0.9620   -1.5380    1.8250 h1        1 2EQ      0.051700
     43 H17        -2.8290   -2.3760    0.7730 ha        1 2EQ      0.156000
     44 H15        -2.3040    1.9200    0.9130 ha        1 2EQ      0.156000
     45 H18        -4.9040   -2.0840   -0.5580 ha        1 2EQ      0.138500
     46 H14        -4.3810    2.2170   -0.4230 ha        1 2EQ      0.138500
     47 H3         -5.8350    1.4130   -5.2990 hn        1 2EQ      0.467300
     48 H111       -3.3940    0.9590   -5.7790 hx        1 2EQ      0.109700
     49 H112       -4.6180    0.8990   -7.1460 hx        1 2EQ      0.109700
     50 H121       -4.7120   -1.6340   -6.9190 hc        1 2EQ      0.080367
     51 H122       -3.4730   -1.5490   -5.5860 hc        1 2EQ      0.080367
     52 H123       -3.0450   -1.0090   -7.2630 hc        1 2EQ      0.080367
     53 H6         -6.1490    0.0220    1.4540 ha        1 2EQ      0.173000
     54 H2        -10.7980    0.4670    3.9820 ho        1 2EQ      0.441000
     55 HA        -11.1060    0.6850    1.7400 ha        1 2EQ      0.158000
     56 H1        -11.0000    0.8490   -0.5350 ho        1 2EQ      0.442000
     57 H32        -6.1040   -0.2220   -5.4410 hn        1 2EQ      0.467300
@<TRIPOS>BOND
     1    1    2 1   
     2    1    6 1   
     3    1   33 1   
     4    1   34 1   
     5    2    3 1   
     6    2   35 1   
     7    2   36 1   
     8    3    4 1   
     9    4    5 1   
    10    4   37 1   
    11    4   38 1   
    12    5    6 1   
    13    5   39 1   
    14    5   40 1   
    15    6    7 1   
    16    7    8 1   
    17    7   41 1   
    18    7   42 1   
    19    8    9 ar  
    20    8   11 ar  
    21    9   10 ar  
    22    9   43 1   
    23   10   13 ar  
    24   10   45 1   
    25   11   12 ar  
    26   11   44 1   
    27   12   13 ar  
    28   12   46 1   
    29   13   14 1   
    30   14   15 1   
    31   14   23 2   
    32   15   16 1   
    33   15   21 2   
    34   16   17 2   
    35   16   18 1   
    36   18   19 1   
    37   18   47 1   
    38   18   57 1   
    39   19   20 1   
    40   19   48 1   
    41   19   49 1   
    42   20   50 1   
    43   20   51 1   
    44   20   52 1   
    45   21   22 1   
    46   22   23 1   
    47   23   24 1   
    48   24   25 ar  
    49   24   31 ar  
    50   25   26 ar  
    51   25   53 1   
    52   26   27 1   
    53   26   28 ar  
    54   28   29 1   
    55   28   30 ar  
    56   29   54 1   
    57   30   31 ar  
    58   30   55 1   
    59   31   32 1   
    60   32   56 1   
@<TRIPOS>SUBSTRUCTURE
     1 2EQ         1 TEMP              0 ****  ****    0 ROOT
