@<TRIPOS>MOLECULE
2EQ
   57    60     1     0     0
SMALL
bcc


@<TRIPOS>ATOM
      1 C20         0.4490   -0.0740    0.1400 c3        1 2EQ      0.128800
      2 C21         1.6950    0.7400   -0.2310 c3        1 2EQ      0.126400
      3 O4          2.6440    0.7500    0.8270 os        1 2EQ     -0.407600
      4 C22         2.0910    1.2460    2.0400 c3        1 2EQ      0.126400
      5 C23         0.8520    0.4500    2.4660 c3        1 2EQ      0.128800
      6 N4         -0.1420    0.3580    1.4010 n3        1 2EQ     -0.728600
      7 C19        -1.2800   -0.4630    1.7940 c3        1 2EQ      0.204100
      8 C16        -2.4890   -0.2720    0.9220 ca        1 2EQ     -0.049300
      9 C17        -3.2050   -1.3890    0.4760 ca        1 2EQ     -0.117500
     10 C18        -4.3590   -1.2290   -0.2860 ca        1 2EQ     -0.106500
     11 C15        -2.9420    1.0110    0.5930 ca        1 2EQ     -0.117500
     12 C14        -4.0940    1.1750   -0.1720 ca        1 2EQ     -0.106500
     13 C13        -4.8100    0.0560   -0.6200 ca        1 2EQ     -0.077000
     14 C9         -6.0060    0.2260   -1.4130 cc        1 2EQ     -0.201600
     15 C8         -6.0890    0.3400   -2.8640 cc        1 2EQ      0.208800
     16 C10        -4.9700    0.2970   -3.7970 c         1 2EQ      0.496600
     17 O3         -3.7840    0.1320   -3.5680 o         1 2EQ     -0.387100
     18 N3         -5.3680    0.4950   -5.2560 ny        1 2EQ     -0.677800
     19 C11        -4.2300    0.4120   -6.2220 c3        1 2EQ      0.111800
     20 C12        -3.8060   -1.0080   -6.5280 c3        1 2EQ     -0.133100
     21 N2         -7.3950    0.4950   -3.2270 nd        1 2EQ     -0.351300
     22 O5         -8.1360    0.4890   -2.1670 os        1 2EQ     -0.023100
     23 C7         -7.3390    0.3260   -0.9950 cd        1 2EQ      0.401200
     24 C5         -8.0290    0.3020    0.2570 ca        1 2EQ     -0.254500
     25 C6         -7.3140    0.1190    1.4540 ca        1 2EQ     -0.004000
     26 C4         -7.9630    0.0940    2.6810 ca        1 2EQ     -0.117600
     27 Cl1        -7.0590   -0.1300    4.1000 cl        1 2EQ     -0.057400
     28 C3         -9.3690    0.2550    2.7390 ca        1 2EQ      0.231100
     29 O2        -10.0930    0.2450    3.8920 oh        1 2EQ     -0.465100
     30 C2        -10.1050    0.4390    1.5590 ca        1 2EQ     -0.257000
     31 C1         -9.4370    0.4610    0.3310 ca        1 2EQ      0.220100
     32 O1        -10.0980    0.6370   -0.8520 oh        1 2EQ     -0.481100
     33 H201       -0.3260    0.0620   -0.6630 h1        1 2EQ      0.043200
     34 H202        0.7350   -1.1660    0.1680 h1        1 2EQ      0.043200
     35 H211        1.4160    1.7930   -0.4970 h1        1 2EQ      0.057450
     36 H212        2.2330    0.2540   -1.0860 h1        1 2EQ      0.057450
     37 H221        1.8430    2.3340    1.9230 h1        1 2EQ      0.057450
     38 H222        2.9110    1.1160    2.7950 h1        1 2EQ      0.057450
     39 H231        1.1850   -0.5720    2.8100 h1        1 2EQ      0.043200
     40 H232        0.3750    0.9750    3.3400 h1        1 2EQ      0.043200
     41 H191       -1.5750   -0.1660    2.8440 h1        1 2EQ      0.051700
     42 H192       -1.0130   -1.5620    1.8170 h1        1 2EQ      0.051700
     43 H17        -2.8590   -2.4040    0.7310 ha        1 2EQ      0.156000
     44 H15        -2.3840    1.8950    0.9420 ha        1 2EQ      0.156000
     45 H18        -4.9180   -2.1150   -0.6250 ha        1 2EQ      0.139000
     46 H14        -4.4450    2.1890   -0.4200 ha        1 2EQ      0.139000
     47 H3         -5.8140    1.4160   -5.3370 hn        1 2EQ      0.467300
     48 H111       -3.3620    0.9870   -5.7840 hx        1 2EQ      0.110200
     49 H112       -4.5660    0.9270   -7.1690 hx        1 2EQ      0.110200
     50 H121       -3.4230   -1.5240   -5.6130 hc        1 2EQ      0.080367
     51 H122       -4.6410   -1.6080   -6.9650 hc        1 2EQ      0.080367
     52 H123       -2.9760   -0.9670   -7.2790 hc        1 2EQ      0.080367
     53 H6         -6.2160   -0.0070    1.4080 ha        1 2EQ      0.172000
     54 H2         -9.4920    0.1130    4.6470 ho        1 2EQ      0.450000
     55 HA        -11.1960    0.5620    1.6180 ha        1 2EQ      0.177000
     56 H1        -11.0470    0.7340   -0.6680 ho        1 2EQ      0.445000
     57 H32        -6.0660   -0.2200   -5.4950 hn        1 2EQ      0.467300
@<TRIPOS>BOND
     1    1    2 1   
     2    1    6 1   
     3    1   33 1   
     4    1   34 1   
     5    2    3 1   
     6    2   35 1   
     7    2   36 1   
     8    3    4 1   
     9    4    5 1   
    10    4   37 1   
    11    4   38 1   
    12    5    6 1   
    13    5   39 1   
    14    5   40 1   
    15    6    7 1   
    16    7    8 1   
    17    7   41 1   
    18    7   42 1   
    19    8    9 ar  
    20    8   11 ar  
    21    9   10 ar  
    22    9   43 1   
    23   10   13 ar  
    24   10   45 1   
    25   11   12 ar  
    26   11   44 1   
    27   12   13 ar  
    28   12   46 1   
    29   13   14 1   
    30   14   15 1   
    31   14   23 2   
    32   15   16 1   
    33   15   21 2   
    34   16   17 2   
    35   16   18 1   
    36   18   19 1   
    37   18   47 1   
    38   18   57 1   
    39   19   20 1   
    40   19   48 1   
    41   19   49 1   
    42   20   50 1   
    43   20   51 1   
    44   20   52 1   
    45   21   22 1   
    46   22   23 1   
    47   23   24 1   
    48   24   25 ar  
    49   24   31 ar  
    50   25   26 ar  
    51   25   53 1   
    52   26   27 1   
    53   26   28 ar  
    54   28   29 1   
    55   28   30 ar  
    56   29   54 1   
    57   30   31 ar  
    58   30   55 1   
    59   31   32 1   
    60   32   56 1   
@<TRIPOS>SUBSTRUCTURE
     1 2EQ         1 TEMP              0 ****  ****    0 ROOT
