@<TRIPOS>MOLECULE
2ER
   58    59     1     0     0
SMALL
bcc


@<TRIPOS>ATOM
      1 N1          0.1790    0.1300   -0.5760 na        1 2ER     -0.227900
      2 C2          1.4820    0.2120   -1.1160 cc        1 2ER      0.426400
      3 N3          2.4040    0.5000   -0.1880 nd        1 2ER     -0.681000
      4 C4          1.7040    0.6150    1.0240 cd        1 2ER      0.141800
      5 C5          0.3030    0.3740    0.8020 cc        1 2ER      0.119000
      6 N6         -0.6850    0.3140    1.7800 nh        1 2ER     -0.722600
      7 C7         -1.9540    0.9150    1.6120 c2        1 2ER      0.601100
      8 N8         -2.8330    1.2560    2.4910 n2        1 2ER     -0.631900
      9 C9          2.3150    0.9090    2.3180 c         1 2ER      0.617600
     10 N9          3.6440    1.2700    2.3540 n         1 2ER     -0.678000
     11 O9          1.6800    0.8450    3.4000 o         1 2ER     -0.668100
     12 O'1         1.8370    0.2140   -6.6750 o         1 2ER     -0.933167
     13 O'L        -7.4440    1.0230   10.1550 o         1 2ER     -0.930500
     14 C1'        -0.9990   -0.2730   -1.3320 c3        1 2ER      0.209800
     15 C1B        -2.6660    1.1480    3.9110 c3        1 2ER      0.002800
     16 C2''       -3.3610    2.2920    4.6500 c         1 2ER      0.577100
     17 C2'        -1.6390    0.8990   -2.1530 c3        1 2ER      0.097100
     18 O2'        -3.0070    0.9690   -1.8190 oh        1 2ER     -0.611800
     19 O2B        -2.8610    3.4200    4.6830 o         1 2ER     -0.561100
     20 C3''       -4.6620    1.9470    5.3510 c3        1 2ER      0.052100
     21 C3'        -1.3310    0.5550   -3.6270 c3        1 2ER      0.131100
     22 O3'        -2.5210    0.6430   -4.3750 oh        1 2ER     -0.680800
     23 O3B        -5.4750    3.1060    5.4190 oh        1 2ER     -0.601800
     24 C4'        -0.7880   -0.8860   -3.6170 c3        1 2ER      0.054100
     25 O4'        -0.6460   -1.3080   -2.2380 os        1 2ER     -0.430600
     26 C4B        -4.4090    1.3520    6.7510 c3        1 2ER      0.077100
     27 O4B        -3.8120    0.0770    6.5690 oh        1 2ER     -0.660800
     28 C5'         0.5560   -1.0500   -4.3670 c3        1 2ER      0.228400
     29 C5B        -5.7320    1.2400    7.5590 c3        1 2ER      0.207400
     30 O6'         0.3480   -1.5350   -5.6300 os        1 2ER     -0.559200
     31 O6B        -5.5570    0.3600    8.5910 os        1 2ER     -0.567200
     32 P7'         0.4520   -0.3280   -6.8820 p5        1 2ER      1.334900
     33 P7B        -5.9400    1.0180   10.1720 p5        1 2ER      1.313900
     34 O8'        -0.6570    0.5820   -6.3920 o         1 2ER     -0.933167
     35 O8B        -5.2960    2.3760   10.0730 o         1 2ER     -0.930500
     36 O9'         0.1850   -1.0980   -8.1390 o         1 2ER     -0.933167
     37 O9B        -5.2830    0.0190   11.0830 o         1 2ER     -0.930500
     38 H2          1.6530    0.0310   -2.1910 h5        1 2ER      0.102100
     39 HN6        -0.2880    0.3400    2.7060 hn        1 2ER      0.458800
     40 H7         -2.2570    1.0620    0.5440 h5        1 2ER      0.058800
     41 HN9         4.0570    1.4920    3.2220 hn        1 2ER      0.305500
     42 HN9A        4.1770    1.3430    1.5280 hn        1 2ER      0.305500
     43 H1'        -1.7440   -0.7160   -0.6070 h2        1 2ER      0.086700
     44 H1B        -3.1250    0.1760    4.2650 h1        1 2ER      0.073700
     45 H1BA       -1.5890    1.1540    4.2550 h1        1 2ER      0.073700
     46 H2'        -1.2110    1.8970   -1.8700 h1        1 2ER      0.070700
     47 HO2'       -3.5080    0.5190   -2.5130 ho        1 2ER      0.432000
     48 H3''       -5.2410    1.2190    4.7170 h1        1 2ER      0.084700
     49 H3'        -0.5670    1.2660   -4.0480 h1        1 2ER      0.104700
     50 HO3'       -2.2330    0.6300   -5.3210 ho        1 2ER      0.513000
     51 HO3B       -5.2270    3.5820    6.2230 ho        1 2ER      0.419000
     52 H4'        -1.5440   -1.5890   -4.0620 h1        1 2ER      0.079700
     53 H4B        -3.6840    2.0040    7.3130 h1        1 2ER      0.053700
     54 HO4B       -4.1060   -0.4610    7.3260 ho        1 2ER      0.453000
     55 H5'         1.1750   -1.7870   -3.7740 h1        1 2ER     -0.000800
     56 H5'A        1.1000   -0.0620   -4.4000 h1        1 2ER     -0.000800
     57 H5B        -6.0190    2.2640    7.9270 h1        1 2ER      0.005200
     58 H5BA       -6.5200    0.8600    6.8410 h1        1 2ER      0.005200
@<TRIPOS>BOND
     1    1    2 1   
     2    1    5 1   
     3    1   14 1   
     4    2    3 2   
     5    2   38 1   
     6    3    4 1   
     7    4    5 2   
     8    4    9 1   
     9    5    6 1   
    10    6    7 1   
    11    6   39 1   
    12    7    8 2   
    13    7   40 1   
    14    8   15 1   
    15    9   10 1   
    16    9   11 2   
    17   10   41 1   
    18   10   42 1   
    19   12   32 1   
    20   13   33 1   
    21   14   17 1   
    22   14   25 1   
    23   14   43 1   
    24   15   16 1   
    25   15   44 1   
    26   15   45 1   
    27   16   19 2   
    28   16   20 1   
    29   17   18 1   
    30   17   21 1   
    31   17   46 1   
    32   18   47 1   
    33   20   23 1   
    34   20   26 1   
    35   20   48 1   
    36   21   22 1   
    37   21   24 1   
    38   21   49 1   
    39   22   50 1   
    40   23   51 1   
    41   24   25 1   
    42   24   28 1   
    43   24   52 1   
    44   26   27 1   
    45   26   29 1   
    46   26   53 1   
    47   27   54 1   
    48   28   30 1   
    49   28   55 1   
    50   28   56 1   
    51   29   31 1   
    52   29   57 1   
    53   29   58 1   
    54   30   32 1   
    55   31   33 1   
    56   32   34 1   
    57   32   36 1   
    58   33   35 1   
    59   33   37 1   
@<TRIPOS>SUBSTRUCTURE
     1 2ER         1 TEMP              0 ****  ****    0 ROOT
