@<TRIPOS>MOLECULE
2ER
   59    60     1     0     0
SMALL
bcc


@<TRIPOS>ATOM
      1 N1          0.3120    0.6480   -0.6480 na        1 2ER     -0.218900
      2 C2          1.5120    1.0530   -1.2710 cc        1 2ER      0.437400
      3 N3          2.3240    1.7160   -0.4350 nd        1 2ER     -0.679000
      4 C4          1.6510    1.7630    0.7960 cd        1 2ER      0.154800
      5 C5          0.3880    1.0880    0.6820 cc        1 2ER      0.096000
      6 N6         -0.5150    0.8520    1.7180 nu        1 2ER     -0.717600
      7 C7         -1.9000    1.0540    1.5660 c2        1 2ER      0.618100
      8 N8         -2.8020    1.2630    2.4680 n2        1 2ER     -0.654900
      9 C9          2.1650    2.3910    2.0120 c         1 2ER      0.618600
     10 N9          3.3440    3.0950    1.9460 nt        1 2ER     -0.671000
     11 O9          1.5690    2.3120    3.1180 o         1 2ER     -0.685100
     12 O'1         1.4560    0.9140   -6.7440 o         1 2ER     -0.931167
     13 O'L        -6.1240   -1.6110    9.4970 o         1 2ER     -0.835000
     14 C1'        -0.7300   -0.1570   -1.2760 c3        1 2ER      0.209800
     15 C1B        -2.4990    1.4200    3.8630 c3        1 2ER      0.012800
     16 C2''       -3.6020    2.1850    4.5740 c         1 2ER      0.580100
     17 C2'        -1.7560    0.6940   -2.1010 c3        1 2ER      0.095100
     18 O2'        -3.0500    0.3710   -1.6430 oh        1 2ER     -0.620800
     19 O2B        -3.6130    3.4180    4.6400 o         1 2ER     -0.556100
     20 C3''       -4.6910    1.3650    5.2460 c3        1 2ER      0.049100
     21 C3'        -1.4560    0.3410   -3.5740 c3        1 2ER      0.132100
     22 O3'        -2.6590   -0.0210   -4.2110 oh        1 2ER     -0.682800
     23 O3B        -5.9150    2.0770    5.2220 oh        1 2ER     -0.588800
     24 C4'        -0.4760   -0.8450   -3.5320 c3        1 2ER      0.053100
     25 O4'        -0.1340   -1.1030   -2.1460 os        1 2ER     -0.428600
     26 C4B        -4.2850    1.0320    6.6980 c3        1 2ER      0.094100
     27 O4B        -3.1660    0.1620    6.6070 oh        1 2ER     -0.635800
     28 C5'         0.8100   -0.6180   -4.3660 c3        1 2ER      0.228400
     29 C5B        -5.4480    0.3810    7.4720 c3        1 2ER      0.163400
     30 O6'         0.6910   -1.1950   -5.5990 os        1 2ER     -0.555200
     31 O6B        -5.3560    0.7150    8.8210 os        1 2ER     -0.576200
     32 P7'         0.3240   -0.0630   -6.8760 p5        1 2ER      1.334900
     33 P7B        -5.2010   -0.5280    9.8990 p5        1 2ER      1.429800
     34 O8'        -0.9960    0.4430   -6.3240 o         1 2ER     -0.931167
     35 O8B        -5.0510    0.0510   11.2440 o         1 2ER     -0.835000
     36 O9'         0.2610   -0.9170   -8.1020 o         1 2ER     -0.931167
     37 O9B        -3.7710   -1.0810    9.3090 oh        1 2ER     -0.797400
     38 H2          1.7020    0.8110   -2.3320 h5        1 2ER      0.110100
     39 HN6        -0.1130    1.0890    2.6120 hn        1 2ER      0.454800
     40 H7         -2.2800    0.9560    0.5160 h5        1 2ER      0.074800
     41 HN9        -3.8730   -1.9130    8.8610 ho        1 2ER      0.428000
     42 HN9A        3.6920    3.5280    2.7610 hn        1 2ER      0.309000
     43 H1'        -1.2480   -0.7450   -0.4620 h2        1 2ER      0.081700
     44 H1B        -1.5350    1.9800    4.0540 h1        1 2ER      0.072200
     45 H1BA       -2.4080    0.4070    4.3590 h1        1 2ER      0.072200
     46 H2'        -1.6380    1.7940   -1.9170 h1        1 2ER      0.068700
     47 HO2'       -3.4540   -0.2310   -2.2830 ho        1 2ER      0.437000
     48 H3''       -4.8880    0.4230    4.6650 h1        1 2ER      0.107700
     49 H3'        -0.9980    1.2220   -4.1060 h1        1 2ER      0.115700
     50 HO3'       -2.4570    0.0110   -5.1790 ho        1 2ER      0.515000
     51 HO3B       -5.7530    2.9330    5.6410 ho        1 2ER      0.409000
     52 H4'        -0.9820   -1.7840   -3.8860 h1        1 2ER      0.082700
     53 H4B        -3.9810    1.9790    7.2270 h1        1 2ER      0.050700
     54 HO4B       -2.9650   -0.1320    7.5080 ho        1 2ER      0.441000
     55 H5'         1.0180    0.4870   -4.4550 h1        1 2ER     -0.001800
     56 H5'A        1.6570   -1.1050   -3.7970 h1        1 2ER     -0.001800
     57 H5B        -6.4180    0.7870    7.0690 h1        1 2ER      0.043700
     58 H5BA       -5.4230   -0.7360    7.3390 h1        1 2ER      0.043700
     59 H93         3.8410    3.1820    1.0970 hn        1 2ER      0.309000
@<TRIPOS>BOND
     1    1    2 1   
     2    1    5 1   
     3    1   14 1   
     4    2    3 2   
     5    2   38 1   
     6    3    4 1   
     7    4    5 2   
     8    4    9 1   
     9    5    6 1   
    10    6    7 1   
    11    6   39 1   
    12    7    8 2   
    13    7   40 1   
    14    8   15 1   
    15    9   10 1   
    16    9   11 2   
    17   10   42 1   
    18   10   59 1   
    19   12   32 1   
    20   13   33 1   
    21   14   17 1   
    22   14   25 1   
    23   14   43 1   
    24   15   16 1   
    25   15   44 1   
    26   15   45 1   
    27   16   19 2   
    28   16   20 1   
    29   17   18 1   
    30   17   21 1   
    31   17   46 1   
    32   18   47 1   
    33   20   23 1   
    34   20   26 1   
    35   20   48 1   
    36   21   22 1   
    37   21   24 1   
    38   21   49 1   
    39   22   50 1   
    40   23   51 1   
    41   24   25 1   
    42   24   28 1   
    43   24   52 1   
    44   26   27 1   
    45   26   29 1   
    46   26   53 1   
    47   27   54 1   
    48   28   30 1   
    49   28   55 1   
    50   28   56 1   
    51   29   31 1   
    52   29   57 1   
    53   29   58 1   
    54   30   32 1   
    55   31   33 1   
    56   32   34 1   
    57   32   36 1   
    58   33   35 1   
    59   33   37 1   
    60   37   41 1   
@<TRIPOS>SUBSTRUCTURE
     1 2ER         1 TEMP              0 ****  ****    0 ROOT
