@<TRIPOS>MOLECULE
2ER
   58    54     1     0     0
SMALL
bcc


@<TRIPOS>ATOM
      1 N1          1.9750    0.9540   -1.3560 n2        1 2ER     -0.150000
      2 C2          3.3510    0.9460   -1.3920 c1        1 2ER     -0.077000
      3 N3          3.8100    0.7490   -0.1100 n2        1 2ER     -0.150000
      4 C4          2.7270    0.6340    0.7170 c1        1 2ER     -0.072000
      5 C5          1.5840    0.7610   -0.0550 c1        1 2ER     -0.072000
      6 N6          0.1920    0.5950    0.4200 n2        1 2ER     -0.315000
      7 C7         -0.1660    1.0060    1.7690 c2        1 2ER      0.064000
      8 N8         -1.2710    0.5390    2.3360 n1        1 2ER     -0.250000
      9 C9          2.7740    0.3660    2.2290 c1        1 2ER      0.396000
     10 N9          4.0260    0.2140    2.8780 n3        1 2ER     -0.416000
     11 O9          1.7550    0.1940    2.8420 o         1 2ER     -0.403000
     12 O'1         6.3410    3.3870   -5.7000 o         1 2ER     -0.934167
     13 O'L        -3.9520   -8.0070    2.5610 o         1 2ER     -0.932167
     14 C1'         1.0960    1.0590   -2.5070 c2        1 2ER      0.116000
     15 C1B        -2.1020   -0.3580    1.6340 c2        1 2ER     -0.148000
     16 C2''       -3.2910   -0.7500    2.5200 c2        1 2ER      0.249000
     17 C2'         0.4650    2.4960   -2.5900 c3        1 2ER     -0.016000
     18 O2'        -0.8770    2.4110   -2.8250 oh        1 2ER     -0.340000
     19 O2B        -4.1810    0.0110    2.6820 o         1 2ER     -0.364000
     20 C3''       -3.2560   -2.0660    3.3110 c3        1 2ER      0.020000
     21 C3'         1.1610    3.1780   -3.7460 c3        1 2ER      0.020000
     22 O3'         0.2320    3.2870   -4.9230 oh        1 2ER     -0.411000
     23 O3B        -1.9680   -2.6070    3.2530 oh        1 2ER     -0.393000
     24 C4'         2.1870    2.3890   -4.0380 c3        1 2ER     -0.053000
     25 O4'         1.7650    0.9220   -3.5870 os        1 2ER     -0.287000
     26 C4B        -4.2520   -3.0510    2.7080 c3        1 2ER     -0.050000
     27 O4B        -5.4980   -2.4400    2.5990 oh        1 2ER     -0.384000
     28 C5'         3.4060    2.8370   -3.2780 c3        1 2ER      0.080000
     29 C5B        -4.3640   -4.2820    3.6110 c3        1 2ER      0.061000
     30 O6'         4.5700    2.6050   -4.0670 os        1 2ER     -0.724000
     31 O6B        -4.2660   -5.4750    2.8130 os        1 2ER     -0.727000
     32 P7'         4.9630    3.6860   -5.1710 p5        1 2ER      1.569500
     33 P7B        -4.3060   -6.9060    3.5560 p5        1 2ER      1.563500
     34 O8'         3.9980    3.6320   -6.2690 o         1 2ER     -0.934167
     35 O8B        -3.2870   -6.9130    4.7110 o         1 2ER     -0.932167
     36 O9'         4.9480    5.0610   -4.5560 o         1 2ER     -0.934167
     37 O9B        -5.6680   -7.1450    4.0920 o         1 2ER     -0.932167
     38 H2          3.9220    1.0650   -2.2120 DU        1 2ER      0.228000
     39 HN6        -0.4180    0.1760   -0.1040 hn        1 2ER      0.250000
     40 H7          0.4030    1.6210    2.2540 h5        1 2ER      0.182000
     41 HN9         4.1080    0.4070    3.7960 hn        1 2ER      0.216500
     42 HN9A        4.7590   -0.0970    2.4020 hn        1 2ER      0.216500
     43 H1'         0.3830    0.3770   -2.4590 h4        1 2ER      0.121000
     44 H1B        -1.5970   -1.1490    1.4010 ha        1 2ER      0.134500
     45 H1BA       -2.4290    0.0700    0.8200 ha        1 2ER      0.134500
     46 H2'         0.6370    2.9940   -1.7470 h1        1 2ER      0.111000
     47 HO2'       -1.2860    3.1720   -2.5340 ho        1 2ER      0.230000
     48 H3''       -3.5000   -1.8890    4.2680 h1        1 2ER      0.083000
     49 H3'         1.4790    4.0620   -3.4790 h1        1 2ER      0.141000
     50 HO3'        0.2210    4.1440   -5.2260 ho        1 2ER      0.311000
     51 HO3B       -1.6240   -2.6040    4.0310 ho        1 2ER      0.314000
     52 H4'         2.3700    2.4070   -5.0440 h1        1 2ER      0.116000
     53 H4B        -3.9490   -3.3190    1.8420 h1        1 2ER      0.112000
     54 HO4B       -6.0220   -2.9300    2.0870 ho        1 2ER      0.206000
     55 H5'         3.3320    3.7820   -3.0830 h1        1 2ER      0.039500
     56 H5'A        3.4730    2.3300   -2.4320 h1        1 2ER      0.039500
     57 H5B        -5.2380   -4.2700    4.0790 h1        1 2ER      0.037500
     58 H5BA       -3.6430   -4.2680    4.2660 h1        1 2ER      0.037500
@<TRIPOS>BOND
     1    1    2 1   
     2    1    5 1   
     3    2    3 1   
     4    3    4 1   
     5    4    5 1   
     6    6    7 1   
     7    6   39 1   
     8    7    8 1   
     9    7   40 1   
    10    9   10 1   
    11    9   11 1   
    12   10   41 1   
    13   10   42 1   
    14   12   32 1   
    15   13   33 1   
    16   14   17 1   
    17   14   25 1   
    18   14   43 1   
    19   15   16 1   
    20   15   44 1   
    21   15   45 1   
    22   16   19 1   
    23   16   20 1   
    24   17   18 1   
    25   17   21 1   
    26   17   46 1   
    27   18   47 1   
    28   20   23 1   
    29   20   26 1   
    30   20   48 1   
    31   21   22 1   
    32   21   24 1   
    33   21   49 1   
    34   22   50 1   
    35   23   51 1   
    36   24   25 1   
    37   24   28 1   
    38   24   52 1   
    39   26   27 1   
    40   26   29 1   
    41   26   53 1   
    42   27   54 1   
    43   28   30 1   
    44   28   55 1   
    45   28   56 1   
    46   29   31 1   
    47   29   57 1   
    48   29   58 1   
    49   30   32 1   
    50   31   33 1   
    51   32   34 1   
    52   32   36 1   
    53   33   35 1   
    54   33   37 1   
@<TRIPOS>SUBSTRUCTURE
     1 2ER         1 TEMP              0 ****  ****    0 ROOT
