@<TRIPOS>MOLECULE
2ER
   58    59     1     0     0
SMALL
bcc


@<TRIPOS>ATOM
      1 N1          2.6080    0.6510   -0.5940 na        1 2ER     -0.227900
      2 C2          3.5560    1.7010   -0.6690 cc        1 2ER      0.434400
      3 N3          2.9660    2.8970   -0.8000 nd        1 2ER     -0.706000
      4 C4          1.5800    2.6560   -0.7820 cd        1 2ER      0.145800
      5 C5          1.3350    1.2530   -0.6360 cc        1 2ER      0.088000
      6 N6          0.0900    0.6210   -0.6580 nh        1 2ER     -0.717600
      7 C7         -0.2750   -0.3020    0.3450 c2        1 2ER      0.617100
      8 N8         -1.4330   -0.7020    0.7480 n2        1 2ER     -0.654900
      9 C9          0.5520    3.6850   -0.9030 c         1 2ER      0.612600
     10 N9          0.9410    5.0100   -0.9220 n         1 2ER     -0.674000
     11 O9         -0.6720    3.4200   -1.0060 o         1 2ER     -0.679100
     12 O'1         6.3870    0.6030   -0.6300 o         1 2ER     -0.930500
     13 O'L       -10.1170   -2.4350    1.8280 o         1 2ER     -0.931167
     14 C1'         2.9060   -0.7610   -0.4470 c3        1 2ER      0.215800
     15 C1B        -2.6970   -0.1850    0.3130 c3        1 2ER      0.008800
     16 C2''       -3.5620   -1.2250   -0.3970 c         1 2ER      0.571100
     17 C2'         4.1380   -1.2370   -1.2880 c3        1 2ER      0.052100
     18 O2'         3.6940   -2.0320   -2.3710 oh        1 2ER     -0.609800
     19 O2B        -3.3890   -1.4870   -1.5910 o         1 2ER     -0.564100
     20 C3''       -4.6460   -1.8820    0.4380 c3        1 2ER      0.049100
     21 C3'         4.9620   -2.0980   -0.3080 c3        1 2ER      0.118100
     22 O3'         4.6770   -3.4830   -0.4250 oh        1 2ER     -0.615800
     23 O3B        -4.8970   -3.1830   -0.0650 oh        1 2ER     -0.600800
     24 C4'         4.5070   -1.6130    1.0760 c3        1 2ER      0.106100
     25 O4'         3.1630   -1.0940    0.9200 os        1 2ER     -0.441600
     26 C4B        -5.9330   -1.0300    0.4680 c3        1 2ER      0.081100
     27 O4B        -5.6550    0.1320    1.2310 oh        1 2ER     -0.657800
     28 C5'         5.4360   -0.5090    1.6410 c3        1 2ER      0.220400
     29 C5B        -7.1200   -1.8330    1.0730 c3        1 2ER      0.202400
     30 O6'         6.7570   -0.7850    1.4180 os        1 2ER     -0.570200
     31 O6B        -8.0690   -0.9610    1.5300 os        1 2ER     -0.568200
     32 P7'         7.5720    0.1750    0.2230 p5        1 2ER      1.336900
     33 P7B        -9.6970   -1.2800    0.9590 p5        1 2ER      1.315900
     34 O8'         8.4360   -0.8620   -0.4290 o         1 2ER     -0.930500
     35 O8B        -9.4370   -1.6280   -0.4830 o         1 2ER     -0.931167
     36 O9'         8.2290    1.2610    1.0170 o         1 2ER     -0.930500
     37 O9B       -10.3710    0.0360    1.2280 o         1 2ER     -0.931167
     38 H2          4.6700    1.4970   -0.6250 h5        1 2ER      0.192100
     39 HN6        -0.6300    1.2380   -0.9960 hn        1 2ER      0.451800
     40 H7          0.6010   -0.7960    0.8380 h5        1 2ER      0.054800
     41 HN9         1.8790    5.2580   -0.7410 hn        1 2ER      0.300500
     42 HN9A        0.2430    5.7070   -0.8770 hn        1 2ER      0.300500
     43 H1'         1.9840   -1.3450   -0.7460 h2        1 2ER      0.078700
     44 H1B        -3.2550    0.1410    1.2430 h1        1 2ER      0.071200
     45 H1BA       -2.6360    0.7110   -0.3710 h1        1 2ER      0.071200
     46 H2'         4.7940   -0.3780   -1.6280 h1        1 2ER      0.163700
     47 HO2'        3.5050   -1.4200   -3.0900 ho        1 2ER      0.393000
     48 H3''       -4.2610   -2.0400    1.4840 h1        1 2ER      0.088700
     49 H3'         6.0700   -1.8950   -0.4490 h1        1 2ER      0.149700
     50 HO3'        4.8480   -3.7080   -1.3470 ho        1 2ER      0.396000
     51 HO3B       -5.5390   -3.0920   -0.7810 ho        1 2ER      0.416000
     52 H4'         4.3970   -2.4680    1.7910 h1        1 2ER      0.057700
     53 H4B        -6.1930   -0.7080   -0.5780 h1        1 2ER      0.045700
     54 HO4B       -6.4870    0.3620    1.6820 ho        1 2ER      0.453000
     55 H5'         5.1340    0.4750    1.1860 h1        1 2ER      0.000200
     56 H5'A        5.2400   -0.4700    2.7540 h1        1 2ER      0.000200
     57 H5B        -7.5330   -2.5200    0.2820 h1        1 2ER      0.007700
     58 H5BA       -6.6970   -2.4460    1.9250 h1        1 2ER      0.007700
@<TRIPOS>BOND
     1    1    2 1   
     2    1    5 1   
     3    1   14 1   
     4    2    3 2   
     5    2   38 1   
     6    3    4 1   
     7    4    5 2   
     8    4    9 1   
     9    5    6 1   
    10    6    7 1   
    11    6   39 1   
    12    7    8 2   
    13    7   40 1   
    14    8   15 1   
    15    9   10 1   
    16    9   11 2   
    17   10   41 1   
    18   10   42 1   
    19   12   32 1   
    20   13   33 1   
    21   14   17 1   
    22   14   25 1   
    23   14   43 1   
    24   15   16 1   
    25   15   44 1   
    26   15   45 1   
    27   16   19 2   
    28   16   20 1   
    29   17   18 1   
    30   17   21 1   
    31   17   46 1   
    32   18   47 1   
    33   20   23 1   
    34   20   26 1   
    35   20   48 1   
    36   21   22 1   
    37   21   24 1   
    38   21   49 1   
    39   22   50 1   
    40   23   51 1   
    41   24   25 1   
    42   24   28 1   
    43   24   52 1   
    44   26   27 1   
    45   26   29 1   
    46   26   53 1   
    47   27   54 1   
    48   28   30 1   
    49   28   55 1   
    50   28   56 1   
    51   29   31 1   
    52   29   57 1   
    53   29   58 1   
    54   30   32 1   
    55   31   33 1   
    56   32   34 1   
    57   32   36 1   
    58   33   35 1   
    59   33   37 1   
@<TRIPOS>SUBSTRUCTURE
     1 2ER         1 TEMP              0 ****  ****    0 ROOT
