@<TRIPOS>MOLECULE
2ET
   44    43     1     0     0
SMALL
bcc


@<TRIPOS>ATOM
      1 C10         1.4110   -0.2280    2.6460 c2        1 2ET      0.152000
      2 C15        -2.4090   -1.9780    1.7450 c3        1 2ET      0.045000
      3 C17        -0.1240   -2.1300    2.7060 ce        1 2ET      0.179100
      4 C21        -0.8990   -5.1160    2.5850 cf        1 2ET     -0.409100
      5 C22        -1.7220   -4.0070    3.0330 cf        1 2ET      0.024000
      6 C02         0.7490    1.8100   -2.2910 c         1 2ET      0.631100
      7 O03         0.3590    2.7660   -2.9610 o         1 2ET     -0.494000
      8 C04         2.1110    1.5560   -1.7200 c3        1 2ET     -0.139200
      9 C05         3.0300    2.7020   -1.8910 c2        1 2ET     -0.182200
     10 C06         4.2610    2.7370   -1.3540 c2        1 2ET     -0.110400
     11 C07         5.1620    3.8980   -1.5510 c3        1 2ET     -0.062900
     12 C08         4.8010    1.6230   -0.5380 c3        1 2ET     -0.062900
     13 N09         1.9620    0.9540    2.2500 nh        1 2ET     -0.846600
     14 C11         0.2590   -0.8140    2.1910 ce        1 2ET     -0.197000
     15 C12        -0.7000   -0.2460    1.2540 ce        1 2ET      0.141100
     16 O13        -0.2550    0.8650    0.5530 oh        1 2ET     -0.555100
     17 C14        -1.9280   -0.7670    1.0460 c2        1 2ET     -0.278200
     18 C16        -1.3470   -2.6890    2.5110 cf        1 2ET     -0.213200
     19 O18         0.8880   -2.7370    3.4240 oh        1 2ET     -0.523100
     20 C19        -1.1070   -6.3740    2.9270 c1        1 2ET      0.569600
     21 O20        -1.2560   -7.5140    3.2310 o         1 2ET     -0.378500
     22 H1          0.5500   -3.5720    3.7830 ho        1 2ET      0.432000
     23 H2          2.0190   -0.7850    3.3960 h4        1 2ET      0.159000
     24 H3         -2.8510   -2.6860    0.9880 hc        1 2ET      0.050700
     25 H4         -0.0810   -4.8950    1.8790 ha        1 2ET      0.189000
     26 H6          2.6320    1.3720    2.8490 hn        1 2ET      0.423800
     27 H7          2.5390    0.6430   -2.2220 hc        1 2ET      0.083700
     28 H8          1.9890    1.3080   -0.6250 hc        1 2ET      0.083700
     29 H9          2.6450    3.5390   -2.4980 ha        1 2ET      0.153000
     30 H10         4.6800    4.6950   -2.1680 hc        1 2ET      0.043867
     31 H11         6.1000    3.5700   -2.0650 hc        1 2ET      0.043867
     32 H12         5.4410    4.3370   -0.5610 hc        1 2ET      0.043867
     33 H13         4.8230    0.6770   -1.1370 hc        1 2ET      0.043867
     34 H14         5.8380    1.8410   -0.1870 hc        1 2ET      0.043867
     35 H15         4.1530    1.4460    0.3580 hc        1 2ET      0.043867
     36 H16         0.1320    0.1480   -1.5300 ho        1 2ET      0.438000
     37 H18        -1.0140    1.2560    0.0920 ho        1 2ET      0.439000
     38 H19        -2.6320   -0.3090    0.3360 ha        1 2ET      0.133000
     39 H20        -3.2420   -1.6960    2.4500 hc        1 2ET      0.050700
     40 H21        -3.3850   -3.3140    4.1830 ha        1 2ET      0.118000
     41 H22        -3.0830   -5.1440    4.2340 ha        1 2ET      0.118000
     42 H092        1.4300    1.5710    1.6800 hn        1 2ET      0.423800
     43 C23        -2.7750   -4.1630    3.8530 c2        1 2ET     -0.245000
     44 O01        -0.2290    0.8820   -2.0500 oh        1 2ET     -0.602100
@<TRIPOS>BOND
     1    1   13 1   
     2    1   14 2   
     3    1   23 1   
     4    2   17 1   
     5    2   18 1   
     6    2   24 1   
     7    2   39 1   
     8    3   14 1   
     9    3   18 2   
    10    3   19 1   
    11    4    5 1   
    12    4   20 2   
    13    4   25 1   
    14    5   18 1   
    15    5   43 2   
    16    6    7 2   
    17    6    8 1   
    18    6   44 1   
    19    8    9 1   
    20    8   27 1   
    21    8   28 1   
    22    9   10 2   
    23    9   29 1   
    24   10   11 1   
    25   10   12 1   
    26   11   30 1   
    27   11   31 1   
    28   11   32 1   
    29   12   33 1   
    30   12   34 1   
    31   12   35 1   
    32   13   26 1   
    33   13   42 1   
    34   14   15 1   
    35   15   16 1   
    36   15   17 2   
    37   16   37 1   
    38   17   38 1   
    39   19   22 1   
    40   20   21 2   
    41   36   44 1   
    42   40   43 1   
    43   41   43 1   
@<TRIPOS>SUBSTRUCTURE
     1 2ET         1 TEMP              0 ****  ****    0 ROOT
