@<TRIPOS>MOLECULE
2ET
   44    44     1     0     0
SMALL
bcc


@<TRIPOS>ATOM
      1 C10        -0.5200   -0.1390    0.7060 c3        1 2ET      0.217000
      2 C15        -1.8180   -2.3410    4.2720 cx        1 2ET     -0.064400
      3 C17        -1.8690   -2.1070    1.7340 c         1 2ET      0.625300
      4 C21        -3.4280   -4.6910    2.3350 ce        1 2ET     -0.392100
      5 C22        -2.0700   -4.4500    2.7760 ce        1 2ET      0.030800
      6 C02         2.6430    1.1240   -0.0220 c         1 2ET      0.724600
      7 O03         3.2650    0.1200   -0.7190 os        1 2ET     -0.437900
      8 C04         2.8360    1.3490   -1.4450 cx        1 2ET      0.053100
      9 C05         3.9580    2.1860   -1.9780 c3        1 2ET     -0.054200
     10 C06         3.4490    3.4630   -2.5400 c2        1 2ET     -0.180200
     11 C07         5.6570    4.6570    0.2750 c3        1 2ET     -0.112800
     12 C08         3.7160    3.8830   -3.7740 c2        1 2ET     -0.199000
     13 N09         0.2900   -0.5100   -0.4300 n3        1 2ET     -0.922800
     14 C11        -0.7140   -1.1790    1.7490 ce        1 2ET     -0.390400
     15 C12         0.0730   -1.4230    2.8400 c2        1 2ET      0.193900
     16 O13         1.2150   -0.8260    3.2410 oh        1 2ET     -0.467100
     17 C14        -0.4520   -2.5460    3.6740 cx        1 2ET     -0.096500
     18 C16        -1.7100   -3.0330    2.9310 cx        1 2ET     -0.176800
     19 O18        -2.7970   -2.1120    0.9280 o         1 2ET     -0.529100
     20 C19        -4.0210   -5.8680    2.3760 c1        1 2ET      0.566600
     21 O20        -4.5980   -6.9080    2.4160 o         1 2ET     -0.384500
     22 H1         -1.5350    0.1780    0.3280 h1        1 2ET      0.064200
     23 H2         -0.0290    0.7640    1.1800 h1        1 2ET      0.064200
     24 H3         -2.2480   -1.3240    4.3170 hc        1 2ET      0.088200
     25 H4         -3.9840   -3.8370    1.9030 ha        1 2ET      0.209000
     26 H6         -0.2090   -1.1340   -1.0340 hn        1 2ET      0.352800
     27 H7          4.7000    2.4140   -1.1630 hc        1 2ET      0.073200
     28 H8          1.9900    1.1700   -2.1420 h1        1 2ET      0.130700
     29 H9          4.5000    1.5840   -2.7590 hc        1 2ET      0.073200
     30 H10         6.1290    3.6550    0.3730 hc        1 2ET      0.028200
     31 H11         5.1670    4.9310    1.2350 hc        1 2ET      0.028200
     32 H12         6.4350    5.4100    0.0280 hc        1 2ET      0.028200
     33 H13         4.3200    3.3040   -4.4850 ha        1 2ET      0.117500
     34 H14         4.8950    4.6300   -0.5360 hc        1 2ET      0.028200
     35 H15         3.3450    4.8440   -4.1560 ha        1 2ET      0.117500
     36 H16         2.8380    4.0670   -1.8470 ha        1 2ET      0.129000
     37 H18         1.4440   -0.1230    2.6030 ho        1 2ET      0.458000
     38 H19         0.2890   -3.2050    4.1480 hc        1 2ET      0.121700
     39 H20        -2.0950   -2.9520    5.1510 hc        1 2ET      0.088200
     40 H21        -0.1650   -5.2470    3.3500 ha        1 2ET      0.119000
     41 H22        -1.4600   -6.4960    2.9070 ha        1 2ET      0.119000
     42 H092        1.1360   -0.9620   -0.1360 hn        1 2ET      0.352800
     43 C23        -1.1940   -5.4380    3.0250 c2        1 2ET     -0.251000
     44 O01         2.3330    1.2300    1.1430 o         1 2ET     -0.547500
@<TRIPOS>BOND
     1    1   13 1   
     2    1   14 1   
     3    1   22 1   
     4    1   23 1   
     5    2   17 1   
     6    2   18 1   
     7    2   24 1   
     8    2   39 1   
     9    3   14 1   
    10    3   18 1   
    11    3   19 2   
    12    4    5 1   
    13    4   20 2   
    14    4   25 1   
    15    5   18 1   
    16    5   43 2   
    17    6    7 1   
    18    6    8 1   
    19    6   44 2   
    20    7    8 1   
    21    8    9 1   
    22    8   28 1   
    23    9   10 1   
    24    9   27 1   
    25    9   29 1   
    26   10   12 2   
    27   10   36 1   
    28   11   30 1   
    29   11   31 1   
    30   11   32 1   
    31   11   34 1   
    32   12   33 1   
    33   12   35 1   
    34   13   26 1   
    35   13   42 1   
    36   14   15 2   
    37   15   16 1   
    38   15   17 1   
    39   16   37 1   
    40   17   18 1   
    41   17   38 1   
    42   20   21 2   
    43   40   43 1   
    44   41   43 1   
@<TRIPOS>SUBSTRUCTURE
     1 2ET         1 TEMP              0 ****  ****    0 ROOT
