@<TRIPOS>MOLECULE
2ET
   44    43     1     0     0
SMALL
bcc


@<TRIPOS>ATOM
      1 C10        -0.4650   -0.3100    0.6810 c3        1 2ET      0.211000
      2 C15        -1.7640   -1.9680    4.1130 cc        1 2ET     -0.078000
      3 C17        -1.3380   -2.3610    1.8670 c         1 2ET      0.611500
      4 C21        -2.5330   -5.2460    2.2040 cf        1 2ET     -0.450100
      5 C22        -2.3760   -4.2690    3.2370 cf        1 2ET      0.120800
      6 C02         2.4920    1.2660   -0.1210 c         1 2ET      0.726600
      7 O03         3.3710    0.2330   -0.3310 os        1 2ET     -0.438900
      8 C04         2.8750    1.0120   -1.5000 cx        1 2ET      0.052100
      9 C05         3.9200    1.8240   -2.2010 c3        1 2ET     -0.055200
     10 C06         3.3210    2.6570   -3.2740 c2        1 2ET     -0.176200
     11 C07         5.9010    4.4400   -0.4340 c3        1 2ET     -0.114800
     12 C08         3.5980    3.9480   -3.4400 c2        1 2ET     -0.203000
     13 N09         0.5160   -0.8660   -0.2190 n8        1 2ET     -0.923800
     14 C11        -0.6620   -1.0320    1.9800 cc        1 2ET     -0.370400
     15 C12        -0.1970   -0.5550    3.1890 cd        1 2ET      0.234100
     16 O13         0.5370    0.5480    3.4440 oh        1 2ET     -0.470100
     17 C14        -0.4670   -1.5250    4.2540 cd        1 2ET     -0.203000
     18 C16        -1.8650   -3.0230    3.1110 cc        1 2ET     -0.249200
     19 O18        -1.4860   -2.8910    0.7500 o         1 2ET     -0.600100
     20 C19        -2.3160   -5.0990    0.8990 c1        1 2ET      0.660600
     21 O20        -2.1760   -5.1130   -0.2760 o         1 2ET     -0.345500
     22 H1         -1.4580   -0.2940    0.1440 h1        1 2ET      0.058700
     23 H2         -0.1720    0.7610    0.8830 h1        1 2ET      0.058700
     24 H3         -2.6230   -1.2820    4.1920 ha        1 2ET      0.134000
     25 H4         -2.8840   -6.2480    2.5130 ha        1 2ET      0.178000
     26 H6          0.1780   -1.7270   -0.6100 hn        1 2ET      0.358300
     27 H7          4.4850    2.4610   -1.4640 hc        1 2ET      0.074200
     28 H8          2.1910    0.4300   -2.1540 h1        1 2ET      0.129700
     29 H9          4.6640    1.1110   -2.6570 hc        1 2ET      0.074200
     30 H10         6.2620    4.2580   -1.4700 hc        1 2ET      0.028950
     31 H11         5.9950    3.5060    0.1620 hc        1 2ET      0.028950
     32 H12         6.5120    5.2410    0.0360 hc        1 2ET      0.028950
     33 H13         4.2780    4.5000   -2.7750 ha        1 2ET      0.118000
     34 H14         4.8350    4.7560   -0.4620 hc        1 2ET      0.028950
     35 H15         3.1610    4.5390   -4.2550 ha        1 2ET      0.118000
     36 H16         2.6320    2.1250   -3.9510 ha        1 2ET      0.127000
     37 H18         0.7780    0.9890    2.6080 ho        1 2ET      0.452000
     38 H19         0.3730   -2.1300    4.6130 ha        1 2ET      0.159000
     39 H20        -2.8010   -3.9050    5.3290 hc        1 2ET      0.056033
     40 H21        -2.1540   -5.5570    4.9390 hc        1 2ET      0.056033
     41 H22        -3.8690   -5.1340    4.5220 hc        1 2ET      0.056033
     42 H092        1.3770   -1.0520    0.2610 hn        1 2ET      0.358300
     43 C23        -2.8260   -4.7370    4.5820 c3        1 2ET     -0.074900
     44 O01         1.9860    1.7070    0.8850 o         1 2ET     -0.544500
@<TRIPOS>BOND
     1    1   13 1   
     2    1   14 1   
     3    1   22 1   
     4    1   23 1   
     5    2   17 2   
     6    2   18 1   
     7    2   24 1   
     8    3   14 1   
     9    3   18 1   
    10    3   19 2   
    11    4    5 1   
    12    4   20 2   
    13    4   25 1   
    14    5   18 2   
    15    5   43 1   
    16    6    7 1   
    17    6    8 1   
    18    6   44 2   
    19    7    8 1   
    20    8    9 1   
    21    8   28 1   
    22    9   10 1   
    23    9   27 1   
    24    9   29 1   
    25   10   12 2   
    26   10   36 1   
    27   11   30 1   
    28   11   31 1   
    29   11   32 1   
    30   11   34 1   
    31   12   33 1   
    32   12   35 1   
    33   13   26 1   
    34   13   42 1   
    35   14   15 2   
    36   15   16 1   
    37   15   17 1   
    38   16   37 1   
    39   17   38 1   
    40   20   21 2   
    41   39   43 1   
    42   40   43 1   
    43   41   43 1   
@<TRIPOS>SUBSTRUCTURE
     1 2ET         1 TEMP              0 ****  ****    0 ROOT
