@<TRIPOS>MOLECULE
2EU
   46    46     1     0     0
SMALL
bcc


@<TRIPOS>ATOM
      1 N1          0.0430   -0.2340    0.1880 n3        1 2EU     -0.768000
      2 C4          5.0140    2.8660    6.7490 c3        1 2EU      0.424000
      3 C5          0.9870   -1.2730    0.1400 c2        1 2EU     -0.037000
      4 C6          0.2420    0.7620    1.2090 c3        1 2EU     -0.037000
      5 C7          2.8560    1.6120    6.2610 c2        1 2EU     -0.320000
      6 C8          0.6740    1.4830    4.4230 c2        1 2EU      0.155000
      7 C10         0.7820   -2.5150   -0.3220 c2        1 2EU     -0.274000
      8 C13        -0.1300   -0.0580   -6.9890 c1        1 2EU      0.330000
      9 C15         1.8790    2.6090    6.2200 c2        1 2EU      0.102000
     10 C17         0.8080    2.5520    5.3240 c2        1 2EU     -0.344000
     11 C9         -0.2730    0.1430   -3.3420 c2        1 2EU     -0.198000
     12 C12         0.5100   -0.1130   -5.8410 c2        1 2EU     -0.747000
     13 S2          0.3730    1.0090   -4.5940 ss        1 2EU      0.538000
     14 C2         -0.5470    0.7120   -2.1540 c2        1 2EU     -0.980000
     15 S1         -1.2300   -0.0540   -0.8600 s6        1 2EU      2.856000
     16 O1         -1.7280   -1.3090   -1.2650 o         1 2EU     -0.934000
     17 O2         -2.1570    0.8160   -0.2400 o         1 2EU     -0.934000
     18 C11        -0.5130    0.4310    2.5280 c3        1 2EU     -0.065000
     19 N2         -0.3570    1.4400    3.5390 n3        1 2EU     -0.283000
     20 C16         1.6880    0.3670    4.4800 c3        1 2EU     -0.173000
     21 C14         2.7800    0.5020    5.4300 c1        1 2EU     -0.138000
     22 C3          4.7710    0.3750    7.4280 c3        1 2EU      0.424000
     23 F2          5.4520   -0.1040    6.3490 f         1 2EU     -0.153167
     24 F3          5.7210    0.4690    8.4180 f         1 2EU     -0.153167
     25 F1          3.9540   -0.6360    7.8630 f         1 2EU     -0.153167
     26 F5          4.4490    4.1130    6.6960 f         1 2EU     -0.153167
     27 F6          6.0980    3.0080    7.5730 f         1 2EU     -0.153167
     28 F4          5.5400    2.6630    5.5030 f         1 2EU     -0.153167
     29 O3          3.5740    2.1890    8.4940 oh        1 2EU     -0.302000
     30 H1         -0.1730   -2.8880   -0.7170 ha        1 2EU      0.143500
     31 H2          1.9830   -0.9880    0.5400 h4        1 2EU      0.134000
     32 H3          1.3410    0.8800    1.4330 h1        1 2EU      0.101000
     33 H4         -0.1360    1.7530    0.8190 h1        1 2EU      0.101000
     34 H5         -0.9820    2.2160    3.4950 hn        1 2EU      0.242000
     35 H6          1.6100   -3.2360   -0.3280 ha        1 2EU      0.143500
     36 H7         -0.4940   -0.9360   -3.4800 h4        1 2EU      0.172000
     37 H8          0.0750    3.3730    5.3310 ha        1 2EU      0.141000
     38 H9          1.9530    3.4760    6.9040 ha        1 2EU      0.150000
     39 H10        -0.3450    1.7920   -2.0290 h4        1 2EU      0.181000
     40 H11         1.2610   -0.9240   -5.7200 h4        1 2EU      0.221000
     41 H12        -1.6160    0.3470    2.2980 h1        1 2EU      0.120500
     42 H13        -0.1540   -0.5610    2.9220 h1        1 2EU      0.120500
     43 H14         1.1590   -0.6000    4.7390 hc        1 2EU      0.161000
     44 H15         2.1520    0.2240    3.4600 hc        1 2EU      0.161000
     45 H16         2.9240    1.5470    8.8140 ho        1 2EU      0.232000
     46 C1          3.9950    1.7430    7.2170 c3        1 2EU      0.105000
@<TRIPOS>BOND
     1    1    3 1   
     2    1    4 1   
     3    1   15 1   
     4    2   26 1   
     5    2   27 1   
     6    2   28 1   
     7    2   46 1   
     8    3    7 1   
     9    3   31 1   
    10    4   18 1   
    11    4   32 1   
    12    4   33 1   
    13    5    9 1   
    14    5   21 1   
    15    5   46 1   
    16    6   10 1   
    17    6   19 1   
    18    6   20 1   
    19    7   30 1   
    20    7   35 1   
    21    8   12 1   
    22    9   10 1   
    23    9   38 1   
    24   10   37 1   
    25   11   13 1   
    26   11   14 1   
    27   11   36 1   
    28   12   13 1   
    29   12   40 1   
    30   14   15 1   
    31   14   39 1   
    32   15   16 1   
    33   15   17 1   
    34   18   19 1   
    35   18   41 1   
    36   18   42 1   
    37   19   34 1   
    38   20   21 1   
    39   20   43 1   
    40   20   44 1   
    41   22   23 1   
    42   22   24 1   
    43   22   25 1   
    44   22   46 1   
    45   29   45 1   
    46   29   46 1   
@<TRIPOS>SUBSTRUCTURE
     1 2EU         1 TEMP              0 ****  ****    0 ROOT
