@<TRIPOS>MOLECULE
2EU
   46    45     1     0     0
SMALL
bcc


@<TRIPOS>ATOM
      1 N1         -1.4600   -0.9820   -0.6230 n3        1 2EU     -0.590000
      2 C4          5.6250    2.8570    7.0470 c3        1 2EU      0.426000
      3 C5         -0.3080   -1.3540   -0.1190 c1        1 2EU     -0.129000
      4 C6         -2.4230   -0.3160    0.2320 c3        1 2EU     -0.113000
      5 C7          3.5090    1.6130    6.3780 c2        1 2EU     -0.282000
      6 C8          2.0310    0.6410    4.1500 c2        1 2EU      0.095000
      7 C10         1.3380   -1.2930    2.8200 c3        1 2EU     -0.184000
      8 C13         1.3890    2.5920   -5.7780 c1        1 2EU     -0.059000
      9 C15         2.8210    2.4730    5.5450 c2        1 2EU      0.073000
     10 C17         2.0790    1.9880    4.4340 c2        1 2EU     -0.224000
     11 C9         -0.8940    0.7410   -3.6570 c2        1 2EU     -0.209000
     12 C12         0.3930    2.4090   -5.1240 c1        1 2EU     -0.499000
     13 S2         -0.9530    2.2700   -4.2870 ss        1 2EU      0.694000
     14 C2         -1.8890    0.2670   -2.8810 c2        1 2EU     -0.989000
     15 S1         -1.9700   -1.2460   -2.2430 s6        1 2EU      2.727000
     16 O1         -1.0050   -2.0880   -2.8430 o         1 2EU     -0.912000
     17 O2         -3.3060   -1.6960   -2.2270 o         1 2EU     -0.912000
     18 C11         0.6390    0.9920    2.2700 c1        1 2EU     -0.144000
     19 N2          1.3020    0.1440    3.0380 n3        1 2EU     -0.123000
     20 C16         2.7650   -0.3240    5.0340 c3        1 2EU     -0.196000
     21 C14         3.4940    0.2230    6.1650 c1        1 2EU     -0.097000
     22 C3          4.6220    1.0500    8.6180 c3        1 2EU      0.426000
     23 F2          5.5100    0.0880    8.2380 f         1 2EU     -0.150167
     24 F3          5.1690    1.5960    9.7550 f         1 2EU     -0.150167
     25 F1          3.5050    0.4030    9.0770 f         1 2EU     -0.150167
     26 F5          5.3970    3.9300    6.2270 f         1 2EU     -0.150167
     27 F6          6.3920    3.3480    8.0670 f         1 2EU     -0.150167
     28 F4          6.4570    2.0360    6.3360 f         1 2EU     -0.150167
     29 O3          3.5910    3.2010    8.1950 oh        1 2EU     -0.298000
     30 H1          0.7320   -1.5380    1.8980 h1        1 2EU      0.109667
     31 H2          0.3900   -1.8580   -0.8230 ha        1 2EU      0.080000
     32 H3         -2.0790   -0.3290    1.2990 h1        1 2EU      0.108000
     33 H4         -2.5370    0.7520   -0.0980 h1        1 2EU      0.108000
     34 H5          0.9020   -1.8350    3.7000 h1        1 2EU      0.109667
     35 H6          2.3930   -1.6400    2.6650 h1        1 2EU      0.109667
     36 H7          2.2650    2.7580   -6.3560 ha        1 2EU      0.236000
     37 H8          1.5440    2.7160    3.7960 ha        1 2EU      0.186000
     38 H9          2.8400    3.5640    5.7240 ha        1 2EU      0.158000
     39 H10        -2.7580    0.9240   -2.6820 h4        1 2EU      0.186000
     40 H11        -0.0310    0.0800   -3.8790 h4        1 2EU      0.174000
     41 H12        -3.4140   -0.8430    0.1570 h1        1 2EU      0.108000
     42 H13         0.0920    0.5350    1.4150 ha        1 2EU      0.074000
     43 H14         2.0440   -1.0900    5.4540 hc        1 2EU      0.175000
     44 H15         3.5220   -0.9080    4.4250 hc        1 2EU      0.175000
     45 H16         2.7750    2.8180    8.5490 ho        1 2EU      0.233000
     46 C1          4.2850    2.1590    7.5350 c3        1 2EU      0.089000
@<TRIPOS>BOND
     1    1    3 1   
     2    1    4 1   
     3    1   15 1   
     4    2   26 1   
     5    2   27 1   
     6    2   28 1   
     7    2   46 1   
     8    3   31 1   
     9    4   32 1   
    10    4   33 1   
    11    4   41 1   
    12    5    9 1   
    13    5   21 1   
    14    5   46 1   
    15    6   10 1   
    16    6   19 1   
    17    6   20 1   
    18    7   19 1   
    19    7   30 1   
    20    7   34 1   
    21    7   35 1   
    22    8   12 1   
    23    8   36 1   
    24    9   10 1   
    25    9   38 1   
    26   10   37 1   
    27   11   13 1   
    28   11   14 1   
    29   11   40 1   
    30   12   13 1   
    31   14   15 1   
    32   14   39 1   
    33   15   16 1   
    34   15   17 1   
    35   18   19 1   
    36   18   42 1   
    37   20   21 1   
    38   20   43 1   
    39   20   44 1   
    40   22   23 1   
    41   22   24 1   
    42   22   25 1   
    43   22   46 1   
    44   29   45 1   
    45   29   46 1   
@<TRIPOS>SUBSTRUCTURE
     1 2EU         1 TEMP              0 ****  ****    0 ROOT
