@<TRIPOS>MOLECULE
2EU
   46    54     1     0     0
SMALL
bcc


@<TRIPOS>ATOM
      1 N1          0.0000    0.0000    0.0000 nx        1 2EU     -0.300000
      2 C4          5.0190    2.0080    7.2660 c3        1 2EU      0.356000
      3 C5          1.4710    0.0000    0.0000 c3        1 2EU     -0.278000
      4 C6         -0.6970    1.0100    0.8120 c3        1 2EU     -0.247000
      5 C7          2.9500    1.5150    5.9920 c2        1 2EU     -0.139000
      6 C8          1.8770    1.2520    3.4550 c2        1 2EU      0.078000
      7 C10         1.9570    0.0000    1.4530 c3        1 2EU      0.204000
      8 C13        -0.7030    0.1260   -4.6830 c3        1 2EU      0.050000
      9 C15         1.9600    2.3830    5.5680 c3        1 2EU      0.036000
     10 C17         1.4230    2.2550    4.3030 c2        1 2EU      0.021000
     11 C9         -0.2880   -0.5200   -3.5300 c3        1 2EU      0.229000
     12 C12        -1.8590    0.7820   -4.5730 c2        1 2EU     -0.250000
     13 S2         -2.4940    0.5930   -2.9440 ss        1 2EU      0.335000
     14 C2         -1.1110   -0.3930   -2.4870 c3        1 2EU     -0.794000
     15 S1         -0.8500   -1.1030   -0.8960 s6        1 2EU      2.414000
     16 O1          0.0150   -2.2140   -1.0900 o         1 2EU     -0.768500
     17 O2         -2.1310   -1.2120   -0.2910 o         1 2EU     -0.768500
     18 C11        -0.1250    0.9700    2.2330 c3        1 2EU     -0.152000
     19 N2          1.3350    1.1190    2.1750 n3        1 2EU     -0.055000
     20 C16         2.8780    0.3890    3.8810 c3        1 2EU     -0.186000
     21 C14         3.4080    0.5190    5.1490 c2        1 2EU     -0.266000
     22 C3          3.3750    0.3390    8.1340 c3        1 2EU      0.356000
     23 F2          4.1480   -0.6500    7.5180 f         1 2EU     -0.109000
     24 F3          3.8010    0.5090    9.4560 f         1 2EU     -0.109000
     25 F1          2.0300   -0.0460    8.1240 f         1 2EU     -0.109000
     26 F5          5.1640    3.2140    6.5720 f         1 2EU     -0.109000
     27 F6          5.5620    2.1420    8.5490 f         1 2EU     -0.109000
     28 F4          5.6900    0.9910    6.5790 f         1 2EU     -0.109000
     29 O3          2.8490    2.6970    8.0750 oh        1 2EU     -0.483000
     30 H1          1.6940    0.2090    1.0390 hx        1 2EU      0.019000
     31 H2          1.8340    0.8870   -0.5050 hx        1 2EU      0.019000
     32 H3          0.1030    0.4090    0.3960 DU        1 2EU      0.101000
     33 H4         -0.5380    1.9920    0.3850 hx        1 2EU      0.073000
     34 H5          0.9110    0.2210    1.2810 h1        1 2EU     -0.014500
     35 H6          3.0340    0.1130    1.4730 h1        1 2EU     -0.014500
     36 H7         -0.3400   -0.0360   -3.6750 hc        1 2EU     -0.304000
     37 H8          1.7650    2.1700    4.5240 hc        1 2EU      0.014000
     38 H9          1.5140    2.7160    5.2790 DU        1 2EU      0.174500
     39 H10        -0.1660   -0.0690   -2.5530 DU        1 2EU      0.205000
     40 H11        -1.0410    0.1680   -4.2150 DU        1 2EU      0.111000
     41 H12        -0.3520    1.0370    1.1760 h1        1 2EU      0.113500
     42 H13        -0.3720    0.0210    2.6940 h1        1 2EU      0.113500
     43 H14         1.9140    0.7810    3.5820 hc        1 2EU      0.051000
     44 H15         3.3220    0.0570    4.1740 DU        1 2EU      0.174500
     45 H16         3.1580    2.0380    7.4770 ho        1 2EU      0.315000
     46 C1          3.5340    1.6580    7.3740 c3        1 2EU      0.110000
@<TRIPOS>BOND
     1    1    3 1   
     2    1    4 1   
     3    1   15 1   
     4    1   32 1   
     5    2   26 1   
     6    2   27 1   
     7    2   28 1   
     8    2   46 1   
     9    3    7 1   
    10    3   30 1   
    11    3   31 1   
    12    4   18 1   
    13    4   32 1   
    14    4   33 1   
    15    5    9 1   
    16    5   21 1   
    17    5   46 1   
    18    6   10 1   
    19    6   19 1   
    20    6   20 1   
    21    7   19 1   
    22    7   34 1   
    23    7   35 1   
    24    8   11 1   
    25    8   12 1   
    26    8   36 1   
    27    8   40 1   
    28    9   10 1   
    29    9   37 1   
    30    9   38 1   
    31   10   38 1   
    32   11   14 1   
    33   11   39 1   
    34   11   40 1   
    35   12   13 1   
    36   12   40 1   
    37   13   14 1   
    38   14   15 1   
    39   14   39 1   
    40   15   16 1   
    41   15   17 1   
    42   18   19 1   
    43   18   41 1   
    44   18   42 1   
    45   20   21 1   
    46   20   43 1   
    47   20   44 1   
    48   21   44 1   
    49   22   23 1   
    50   22   24 1   
    51   22   25 1   
    52   22   46 1   
    53   29   45 1   
    54   29   46 1   
@<TRIPOS>SUBSTRUCTURE
     1 2EU         1 TEMP              0 ****  ****    0 ROOT
