@<TRIPOS>MOLECULE
2EV
   53    55     1     0     0
SMALL
bcc


@<TRIPOS>ATOM
      1 S1         -0.1660    0.4330    0.2380 sy        1 2EV      1.518200
      2 N2          1.3420    1.0190   -0.1180 n3        1 2EV     -0.810500
      3 C3          3.7450    1.2220    0.1820 c3        1 2EV     -0.139700
      4 C4          3.4270    0.6500   -1.2180 c3        1 2EV     -0.158700
      5 C5          4.8160    0.3780    0.8620 c         1 2EV      0.672100
      6 C6         -1.0500    1.8070    0.6370 ca        1 2EV     -0.392500
      7 C7          2.3590    1.2590    0.8810 c3        1 2EV      0.231800
      8 C8          1.9290    0.9980   -1.4340 c3        1 2EV      0.236800
      9 N9          5.0640    0.4600    2.1990 n         1 2EV     -0.420800
     10 C10         4.3040    1.2480   -2.2780 c         1 2EV      0.563100
     11 N11         8.3100    0.0550   -4.8890 n2        1 2EV     -0.666100
     12 O12        -0.6600   -0.1910   -0.9170 o         1 2EV     -0.634800
     13 O13        -0.0400   -0.3690    1.3900 o         1 2EV     -0.634800
     14 C14         7.7180    0.2530   -3.7850 c2        1 2EV      0.384200
     15 C15        -1.3710    2.8620   -0.2320 ca        1 2EV      0.137400
     16 O16         5.5100   -0.3820    0.1280 o         1 2EV     -0.713100
     17 O17         4.1620    2.2950   -2.8870 o         1 2EV     -0.407100
     18 N18         5.5320    0.4210   -2.6020 ny        1 2EV     -0.678800
     19 O19         6.1060    0.9490    4.8080 os        1 2EV     -0.388600
     20 Cl1        -0.7870    2.8750   -1.8280 cl        1 2EV     -0.077400
     21 C21        -1.5680    1.8710    1.9450 ca        1 2EV     -0.021000
     22 C22         4.4130    1.3950    3.0940 c3        1 2EV      0.043000
     23 C23         5.9780   -0.4800    2.8330 c3        1 2EV      0.043000
     24 C24         6.4830    1.0970   -3.5220 c3        1 2EV     -0.006500
     25 C25         6.8720    0.1760    3.8920 c3        1 2EV      0.111400
     26 C26         5.3670    1.9700    4.1570 c3        1 2EV      0.111400
     27 C27        -2.1780    3.9290    0.1750 ca        1 2EV     -0.149000
     28 C28        -2.3710    2.9250    2.3630 ca        1 2EV     -0.148000
     29 C29        -2.6800    3.9580    1.4750 ca        1 2EV     -0.041000
     30 H1          4.1360    2.2730    0.0960 hc        1 2EV      0.094700
     31 H2          3.5410   -0.4720   -1.1930 hc        1 2EV      0.122700
     32 H3          2.2060    2.2750    1.3450 h1        1 2EV      0.076200
     33 H4          2.2930    0.4760    1.6900 h1        1 2EV      0.076200
     34 H5          1.8430    2.0070   -1.9280 h1        1 2EV      0.086700
     35 H6          1.4230    0.2280   -2.0830 h1        1 2EV      0.086700
     36 H7          7.9380    0.4620   -5.7230 hn        1 2EV      0.414400
     37 H8          8.1740   -0.2010   -2.8770 h4        1 2EV      0.042800
     38 H9          6.0050    0.1910   -1.7040 hn        1 2EV      0.482300
     39 H10        -1.3400    1.0510    2.6540 ha        1 2EV      0.174000
     40 H11         3.9930    2.2610    2.5110 h1        1 2EV      0.074450
     41 H12         3.5680    0.8610    3.6160 h1        1 2EV      0.074450
     42 H13         5.3550   -1.2820    3.3260 h1        1 2EV      0.074450
     43 H14         6.6290   -0.9630    2.0510 h1        1 2EV      0.074450
     44 H15         5.9300    1.3460   -4.4750 hx        1 2EV      0.117200
     45 H16         6.8040    2.0700   -3.0460 hx        1 2EV      0.117200
     46 H17         7.6570    0.8190    3.4140 h1        1 2EV      0.070700
     47 H18         7.3520   -0.6160    4.5270 h1        1 2EV      0.070700
     48 H19         4.7690    2.4530    4.9750 h1        1 2EV      0.070700
     49 H20         6.0680    2.7150    3.6960 h1        1 2EV      0.070700
     50 H21        -2.4240    4.7390   -0.5300 ha        1 2EV      0.166000
     51 H22        -2.7690    2.9410    3.3900 ha        1 2EV      0.159000
     52 H23        -3.3220    4.7940    1.7970 ha        1 2EV      0.157000
     53 H182        5.2240   -0.4660   -3.0160 hn        1 2EV      0.482300
@<TRIPOS>BOND
     1    1    2 1   
     2    1    6 1   
     3    1   12 2   
     4    1   13 2   
     5    2    7 1   
     6    2    8 1   
     7    3    4 1   
     8    3    5 1   
     9    3    7 1   
    10    3   30 1   
    11    4    8 1   
    12    4   10 1   
    13    4   31 1   
    14    5    9 1   
    15    5   16 2   
    16    6   15 ar  
    17    6   21 ar  
    18    7   32 1   
    19    7   33 1   
    20    8   34 1   
    21    8   35 1   
    22    9   22 1   
    23    9   23 1   
    24   10   17 2   
    25   10   18 1   
    26   11   14 2   
    27   11   36 1   
    28   14   24 1   
    29   14   37 1   
    30   15   20 1   
    31   15   27 ar  
    32   18   24 1   
    33   18   38 1   
    34   18   53 1   
    35   19   25 1   
    36   19   26 1   
    37   21   28 ar  
    38   21   39 1   
    39   22   26 1   
    40   22   40 1   
    41   22   41 1   
    42   23   25 1   
    43   23   42 1   
    44   23   43 1   
    45   24   44 1   
    46   24   45 1   
    47   25   46 1   
    48   25   47 1   
    49   26   48 1   
    50   26   49 1   
    51   27   29 ar  
    52   27   50 1   
    53   28   29 ar  
    54   28   51 1   
    55   29   52 1   
@<TRIPOS>SUBSTRUCTURE
     1 2EV         1 TEMP              0 ****  ****    0 ROOT
