@<TRIPOS>MOLECULE
2EV
   53    55     1     0     0
SMALL
bcc


@<TRIPOS>ATOM
      1 S1         -0.1850    0.5370    0.2600 sy        1 2EV      1.518200
      2 N2          1.3380    1.0760   -0.1060 n3        1 2EV     -0.810500
      3 C3          3.7470    1.2070    0.1800 c3        1 2EV     -0.139700
      4 C4          3.4050    0.6410   -1.2170 c3        1 2EV     -0.158700
      5 C5          4.7960    0.3330    0.8550 c         1 2EV      0.672100
      6 C6         -1.0250    1.9380    0.6600 ca        1 2EV     -0.392500
      7 C7          2.3680    1.2880    0.8860 c3        1 2EV      0.231800
      8 C8          1.9160    1.0330   -1.4260 c3        1 2EV      0.236800
      9 N9          5.0550    0.4110    2.1920 n         1 2EV     -0.420800
     10 C10         4.2930    1.2090   -2.2840 c         1 2EV      0.563100
     11 N11         8.2450   -0.1120   -4.9150 n2        1 2EV     -0.666100
     12 O12        -0.7050   -0.0750   -0.8910 o         1 2EV     -0.634800
     13 O13        -0.0770   -0.2650    1.4140 o         1 2EV     -0.634800
     14 C14         7.6660    0.1070   -3.8080 c2        1 2EV      0.384200
     15 C15        -1.3190    3.0000   -0.2110 ca        1 2EV      0.137400
     16 O16         5.4630   -0.4500    0.1200 o         1 2EV     -0.713100
     17 O17         4.1790    2.2590   -2.8950 o         1 2EV     -0.407100
     18 N18         5.4940    0.3450   -2.6120 n4        1 2EV     -0.678800
     19 O19         6.1260    0.8750    4.7930 os        1 2EV     -0.388600
     20 CL1        -0.7440    2.9900   -1.8110 cl        1 2EV     -0.077400
     21 C21        -1.5330    2.0220    1.9700 ca        1 2EV     -0.021000
     22 C22         4.4380    1.3680    3.0870 c3        1 2EV      0.043000
     23 C23         5.9440   -0.5550    2.8230 c3        1 2EV      0.043000
     24 C24         6.4590    0.9890   -3.5410 c3        1 2EV     -0.006500
     25 C25         6.8630    0.0770    3.8750 c3        1 2EV      0.111400
     26 C26         5.4140    1.9160    4.1430 c3        1 2EV      0.111400
     27 C27        -2.0910    4.0920    0.1970 ca        1 2EV     -0.149000
     28 C28        -2.3010    3.1020    2.3890 ca        1 2EV     -0.148000
     29 C29        -2.5830    4.1400    1.5000 ca        1 2EV     -0.041000
     30 H1          4.1690    2.2460    0.0890 hc        1 2EV      0.094700
     31 H2          3.4840   -0.4840   -1.1890 hc        1 2EV      0.122700
     32 H3          2.2480    2.3090    1.3480 h1        1 2EV      0.076200
     33 H4          2.2820    0.5090    1.6980 h1        1 2EV      0.076200
     34 H5          1.3840    0.2780   -2.0700 h1        1 2EV      0.086700
     35 H6          1.8580    2.0440   -1.9220 h1        1 2EV      0.086700
     36 H7          7.8800    0.3040   -5.7470 hn        1 2EV      0.414400
     37 H8          8.1140   -0.3570   -2.9010 h4        1 2EV      0.042800
     38 H9          5.1560   -0.5340   -3.0210 hn        1 2EV      0.482300
     39 H10        -1.3250    1.1980    2.6810 ha        1 2EV      0.174000
     40 H11         4.0400    2.2440    2.5040 h1        1 2EV      0.074450
     41 H12         3.5790    0.8600    3.6160 h1        1 2EV      0.074450
     42 H13         6.5750   -1.0590    2.0380 h1        1 2EV      0.074450
     43 H14         5.2990   -1.3360    3.3210 h1        1 2EV      0.074450
     44 H15         6.8120    1.9540   -3.0700 hx        1 2EV      0.117200
     45 H16         5.9080    1.2520   -4.4900 hx        1 2EV      0.117200
     46 H17         7.6640    0.6950    3.3910 h1        1 2EV      0.070700
     47 H18         7.3230   -0.7270    4.5090 h1        1 2EV      0.070700
     48 H19         6.1340    2.6380    3.6760 h1        1 2EV      0.070700
     49 H20         4.8360    2.4190    4.9630 h1        1 2EV      0.070700
     50 H21        -2.3160    4.9070   -0.5100 ha        1 2EV      0.166000
     51 H22        -2.6920    3.1330    3.4180 ha        1 2EV      0.159000
     52 H23        -3.1980    4.9970    1.8230 ha        1 2EV      0.157000
     53 H182        5.9650    0.1030   -1.7160 hn        1 2EV      0.482300
@<TRIPOS>BOND
     1    1    2 1   
     2    1    6 1   
     3    1   12 2   
     4    1   13 2   
     5    2    7 1   
     6    2    8 1   
     7    3    4 1   
     8    3    5 1   
     9    3    7 1   
    10    3   30 1   
    11    4    8 1   
    12    4   10 1   
    13    4   31 1   
    14    5    9 1   
    15    5   16 2   
    16    6   15 ar  
    17    6   21 ar  
    18    7   32 1   
    19    7   33 1   
    20    8   34 1   
    21    8   35 1   
    22    9   22 1   
    23    9   23 1   
    24   10   17 2   
    25   10   18 1   
    26   11   14 2   
    27   11   36 1   
    28   14   24 1   
    29   14   37 1   
    30   15   20 1   
    31   15   27 ar  
    32   18   24 1   
    33   18   38 1   
    34   18   53 1   
    35   19   25 1   
    36   19   26 1   
    37   21   28 ar  
    38   21   39 1   
    39   22   26 1   
    40   22   40 1   
    41   22   41 1   
    42   23   25 1   
    43   23   42 1   
    44   23   43 1   
    45   24   44 1   
    46   24   45 1   
    47   25   46 1   
    48   25   47 1   
    49   26   48 1   
    50   26   49 1   
    51   27   29 ar  
    52   27   50 1   
    53   28   29 ar  
    54   28   51 1   
    55   29   52 1   
@<TRIPOS>SUBSTRUCTURE
     1 2EV         1 TEMP              0 ****  ****    0 ROOT
