@<TRIPOS>MOLECULE
2EV
   53    55     1     0     0
SMALL
bcc


@<TRIPOS>ATOM
      1 S1         -0.1810    0.4930    0.2360 sy        1 2EV      1.518200
      2 N2          1.3370    1.0510   -0.1200 n3        1 2EV     -0.810500
      3 C3          3.7430    1.2120    0.1810 c3        1 2EV     -0.139700
      4 C4          3.4160    0.6430   -1.2180 c3        1 2EV     -0.158700
      5 C5          4.7980    0.3510    0.8630 c         1 2EV      0.672100
      6 C6         -1.0400    1.8830    0.6340 ca        1 2EV     -0.392500
      7 C7          2.3580    1.2750    0.8790 c3        1 2EV      0.231800
      8 C8          1.9240    1.0160   -1.4360 c3        1 2EV      0.236800
      9 N9          5.0470    0.4320    2.2010 n         1 2EV     -0.420800
     10 C10         4.3040    1.2220   -2.2780 c         1 2EV      0.563100
     11 N11         8.2900   -0.0480   -4.8840 n2        1 2EV     -0.666100
     12 O12        -0.6870   -0.1230   -0.9190 o         1 2EV     -0.634800
     13 O13        -0.0700   -0.3100    1.3890 o         1 2EV     -0.634800
     14 C14         7.7010    0.1640   -3.7810 c2        1 2EV      0.384200
     15 C15        -1.3410    2.9430   -0.2360 ca        1 2EV      0.137400
     16 O16         5.4800   -0.4230    0.1320 o         1 2EV     -0.713100
     17 O17         4.1810    2.2710   -2.8900 o         1 2EV     -0.407100
     18 N18         5.5180    0.3740   -2.5990 n4        1 2EV     -0.678800
     19 O19         6.0960    0.9090    4.8090 os        1 2EV     -0.388600
     20 CL1        -0.7570    2.9430   -1.8330 cl        1 2EV     -0.077400
     21 C21        -1.5580    1.9580    1.9410 ca        1 2EV     -0.021000
     22 C22         4.4130    1.3810    3.0930 c3        1 2EV      0.043000
     23 C23         5.9440   -0.5230    2.8380 c3        1 2EV      0.043000
     24 C24         6.4810    1.0300   -3.5220 c3        1 2EV     -0.006500
     25 C25         6.8490    0.1210    3.8960 c3        1 2EV      0.111400
     26 C26         5.3750    1.9410    4.1550 c3        1 2EV      0.111400
     27 C27        -2.1290    4.0250    0.1690 ca        1 2EV     -0.149000
     28 C28        -2.3410    3.0280    2.3580 ca        1 2EV     -0.148000
     29 C29        -2.6300    4.0640    1.4690 ca        1 2EV     -0.041000
     30 H1          4.1520    2.2560    0.0930 hc        1 2EV      0.094700
     31 H2          3.5100   -0.4820   -1.1900 hc        1 2EV      0.122700
     32 H3          2.2220    2.2940    1.3400 h1        1 2EV      0.076200
     33 H4          2.2770    0.4950    1.6900 h1        1 2EV      0.076200
     34 H5          1.4060    0.2540   -2.0840 h1        1 2EV      0.086700
     35 H6          1.8570    2.0260   -1.9320 h1        1 2EV      0.086700
     36 H7          7.9250    0.3620   -5.7190 hn        1 2EV      0.414400
     37 H8          8.1490   -0.2940   -2.8710 h4        1 2EV      0.042800
     38 H9          5.9870    0.1370   -1.7000 hn        1 2EV      0.482300
     39 H10        -1.3440    1.1350    2.6510 ha        1 2EV      0.174000
     40 H11         4.0080    2.2520    2.5080 h1        1 2EV      0.074450
     41 H12         3.5570    0.8620    3.6160 h1        1 2EV      0.074450
     42 H13         5.3070   -1.3120    3.3320 h1        1 2EV      0.074450
     43 H14         6.5880   -1.0180    2.0570 h1        1 2EV      0.074450
     44 H15         5.9330    1.2860   -4.4750 hx        1 2EV      0.117200
     45 H16         6.8180    1.9990   -3.0490 hx        1 2EV      0.117200
     46 H17         7.3150   -0.6780    4.5320 h1        1 2EV      0.070700
     47 H18         7.6460    0.7490    3.4170 h1        1 2EV      0.070700
     48 H19         6.0900    2.6720    3.6930 h1        1 2EV      0.070700
     49 H20         4.7860    2.4360    4.9720 h1        1 2EV      0.070700
     50 H21        -2.3590    4.8390   -0.5370 ha        1 2EV      0.166000
     51 H22        -2.7380    3.0520    3.3850 ha        1 2EV      0.159000
     52 H23        -3.2570    4.9120    1.7900 ha        1 2EV      0.157000
     53 H182        5.1940   -0.5100   -3.0110 hn        1 2EV      0.482300
@<TRIPOS>BOND
     1    1    2 1   
     2    1    6 1   
     3    1   12 2   
     4    1   13 2   
     5    2    7 1   
     6    2    8 1   
     7    3    4 1   
     8    3    5 1   
     9    3    7 1   
    10    3   30 1   
    11    4    8 1   
    12    4   10 1   
    13    4   31 1   
    14    5    9 1   
    15    5   16 2   
    16    6   15 ar  
    17    6   21 ar  
    18    7   32 1   
    19    7   33 1   
    20    8   34 1   
    21    8   35 1   
    22    9   22 1   
    23    9   23 1   
    24   10   17 2   
    25   10   18 1   
    26   11   14 2   
    27   11   36 1   
    28   14   24 1   
    29   14   37 1   
    30   15   20 1   
    31   15   27 ar  
    32   18   24 1   
    33   18   38 1   
    34   18   53 1   
    35   19   25 1   
    36   19   26 1   
    37   21   28 ar  
    38   21   39 1   
    39   22   26 1   
    40   22   40 1   
    41   22   41 1   
    42   23   25 1   
    43   23   42 1   
    44   23   43 1   
    45   24   44 1   
    46   24   45 1   
    47   25   46 1   
    48   25   47 1   
    49   26   48 1   
    50   26   49 1   
    51   27   29 ar  
    52   27   50 1   
    53   28   29 ar  
    54   28   51 1   
    55   29   52 1   
@<TRIPOS>SUBSTRUCTURE
     1 2EV         1 TEMP              0 ****  ****    0 ROOT
