@<TRIPOS>MOLECULE
2EW
   53    55     1     0     0
SMALL
bcc


@<TRIPOS>ATOM
      1 S1         -0.1980    0.4170    0.3630 sy        1 2EW      1.526200
      2 N2          1.3230    0.9800   -0.0030 n3        1 2EW     -0.813500
      3 C3          3.7260    1.2130    0.2600 c3        1 2EW     -0.139700
      4 C4          3.3920    0.6810   -1.1530 c3        1 2EW     -0.156700
      5 C5          4.8230    0.3660    0.8930 c         1 2EW      0.671100
      6 C6          2.3540    1.2040    0.9850 c3        1 2EW      0.233800
      7 C7          1.8820    0.9970   -1.3290 c3        1 2EW      0.237800
      8 N8          5.0920    0.4060    2.2290 n         1 2EW     -0.419800
      9 C9          4.2340    1.3310   -2.2090 c         1 2EW      0.562100
     10 N10         8.2440    0.3390   -4.8980 n2        1 2EW     -0.666100
     11 O11        -0.5970   -0.3950   -0.7150 o         1 2EW     -0.640800
     12 O12        -0.1220   -0.1630    1.6420 o         1 2EW     -0.640800
     13 C13        -1.1220    1.8000    0.4140 ca        1 2EW     -0.413500
     14 C14         7.6590    0.4850   -3.7820 c2        1 2EW      0.385200
     15 O15         5.5180   -0.3560    0.1220 o         1 2EW     -0.714100
     16 O16         4.0480    2.3860   -2.7930 o         1 2EW     -0.408100
     17 N17         5.4840    0.5540   -2.5680 ny        1 2EW     -0.678800
     18 O18         6.1700    0.8220    4.8360 os        1 2EW     -0.387600
     19 C19         4.4400    1.2970    3.1670 c3        1 2EW      0.043000
     20 C20         6.0340   -0.5390    2.8140 c3        1 2EW      0.043000
     21 C21         6.4020    1.2830   -3.4830 c3        1 2EW     -0.006500
     22 C22         6.9340    0.0970    3.8800 c3        1 2EW      0.111400
     23 C23         5.4000    1.8510    4.2340 c3        1 2EW      0.111400
     24 C24        -1.3070    2.4950    1.6190 ca        1 2EW     -0.011500
     25 C25        -1.7860    2.2630   -0.7320 ca        1 2EW     -0.011500
     26 C26        -2.6010    3.3890   -0.6800 ca        1 2EW     -0.152000
     27 C27        -2.1200    3.6220    1.6770 ca        1 2EW     -0.152000
     28 C28        -2.7680    4.0730    0.5250 ca        1 2EW     -0.045000
     29 H1          4.0980    2.2730    0.2010 hc        1 2EW      0.093700
     30 H2          3.5310   -0.4390   -1.1670 hc        1 2EW      0.123700
     31 H3          2.3130    0.3970    1.7710 h1        1 2EW      0.075200
     32 H4          2.1930    2.2010    1.4850 h1        1 2EW      0.075200
     33 H5          1.3840    0.2240   -1.9800 h1        1 2EW      0.082200
     34 H6          1.7600    2.0130   -1.8040 h1        1 2EW      0.082200
     35 H7          7.8500    0.7570   -5.7150 hn        1 2EW      0.414400
     36 H8          8.1390    0.0200   -2.8920 h4        1 2EW      0.042800
     37 H9          5.2000   -0.3330   -3.0000 hn        1 2EW      0.482300
     38 H10         3.6120    0.7280    3.6830 h1        1 2EW      0.074950
     39 H11         3.9940    2.1750    2.6220 h1        1 2EW      0.074950
     40 H12         5.4330   -1.3680    3.2890 h1        1 2EW      0.074950
     41 H13         6.6800   -0.9820    2.0050 h1        1 2EW      0.074950
     42 H14         5.8280    1.5380   -4.4220 hx        1 2EW      0.116700
     43 H15         6.6970    2.2540   -2.9860 hx        1 2EW      0.116700
     44 H16         7.6980    0.7710    3.4120 h1        1 2EW      0.070950
     45 H17         7.4400   -0.7070    4.4780 h1        1 2EW      0.070950
     46 H18         4.8070    2.2920    5.0790 h1        1 2EW      0.070950
     47 H19         6.0790    2.6250    3.7890 h1        1 2EW      0.070950
     48 H20        -0.8180    2.1230    2.5370 ha        1 2EW      0.152000
     49 H21        -1.6780    1.7070   -1.6800 ha        1 2EW      0.152000
     50 H22        -3.1220    3.7350   -1.5870 ha        1 2EW      0.153000
     51 H23        -2.2610    4.1510    2.6320 ha        1 2EW      0.153000
     52 H24        -3.4160    4.9630    0.5700 ha        1 2EW      0.152000
     53 H172        5.9760    0.3170   -1.6820 hn        1 2EW      0.482300
@<TRIPOS>BOND
     1    1    2 1   
     2    1   11 2   
     3    1   12 2   
     4    1   13 1   
     5    2    6 1   
     6    2    7 1   
     7    3    4 1   
     8    3    5 1   
     9    3    6 1   
    10    3   29 1   
    11    4    7 1   
    12    4    9 1   
    13    4   30 1   
    14    5    8 1   
    15    5   15 2   
    16    6   31 1   
    17    6   32 1   
    18    7   33 1   
    19    7   34 1   
    20    8   19 1   
    21    8   20 1   
    22    9   16 2   
    23    9   17 1   
    24   10   14 2   
    25   10   35 1   
    26   13   24 ar  
    27   13   25 ar  
    28   14   21 1   
    29   14   36 1   
    30   17   21 1   
    31   17   37 1   
    32   17   53 1   
    33   18   22 1   
    34   18   23 1   
    35   19   23 1   
    36   19   38 1   
    37   19   39 1   
    38   20   22 1   
    39   20   40 1   
    40   20   41 1   
    41   21   42 1   
    42   21   43 1   
    43   22   44 1   
    44   22   45 1   
    45   23   46 1   
    46   23   47 1   
    47   24   27 ar  
    48   24   48 1   
    49   25   26 ar  
    50   25   49 1   
    51   26   28 ar  
    52   26   50 1   
    53   27   28 ar  
    54   27   51 1   
    55   28   52 1   
@<TRIPOS>SUBSTRUCTURE
     1 2EW         1 TEMP              0 ****  ****    0 ROOT
