@<TRIPOS>MOLECULE
2EW
   53    55     1     0     0
SMALL
bcc


@<TRIPOS>ATOM
      1 S1         -0.1980    0.4190    0.3920 sy        1 2EW      1.526200
      2 N2          1.3200    0.9800    0.0120 n3        1 2EW     -0.813500
      3 C3          3.7250    1.2130    0.2550 c3        1 2EW     -0.139700
      4 C4          3.3800    0.6750   -1.1530 c3        1 2EW     -0.156700
      5 C5          4.8270    0.3670    0.8820 c         1 2EW      0.671100
      6 C6          2.3590    1.2070    0.9910 c3        1 2EW      0.233800
      7 C7          1.8690    0.9920   -1.3180 c3        1 2EW      0.237800
      8 N8          5.1070    0.4120    2.2160 n         1 2EW     -0.419800
      9 C9          4.2150    1.3220   -2.2190 c         1 2EW      0.562100
     10 N10         8.2020    0.3180   -4.9350 n2        1 2EW     -0.666100
     11 O11        -0.6070   -0.3940   -0.6820 o         1 2EW     -0.640800
     12 O12        -0.1120   -0.1590    1.6710 o         1 2EW     -0.640800
     13 C13        -1.1200    1.8030    0.4480 ca        1 2EW     -0.413500
     14 C14         7.6260    0.4680   -3.8160 c2        1 2EW      0.385200
     15 O15         5.5160   -0.3580    0.1090 o         1 2EW     -0.714100
     16 O16         4.0240    2.3750   -2.8040 o         1 2EW     -0.408100
     17 N17         5.4610    0.5420   -2.5850 n4        1 2EW     -0.678800
     18 O18         6.2050    0.8370    4.8120 os        1 2EW     -0.387600
     19 C19         4.4620    1.3060    3.1550 c3        1 2EW      0.043000
     20 C20         6.0530   -0.5310    2.7970 c3        1 2EW      0.043000
     21 C21         6.3720    1.2680   -3.5080 c3        1 2EW     -0.006500
     22 C22         6.9620    0.1080    3.8530 c3        1 2EW      0.111400
     23 C23         5.4320    1.8630    4.2130 c3        1 2EW      0.111400
     24 C24        -1.2950    2.5000    1.6530 ca        1 2EW     -0.011500
     25 C25        -1.7920    2.2650   -0.6930 ca        1 2EW     -0.011500
     26 C26        -2.6060    3.3930   -0.6370 ca        1 2EW     -0.152000
     27 C27        -2.1070    3.6280    1.7160 ca        1 2EW     -0.152000
     28 C28        -2.7630    4.0780    0.5690 ca        1 2EW     -0.045000
     29 H1          4.0980    2.2720    0.1900 hc        1 2EW      0.093700
     30 H2          3.5190   -0.4450   -1.1640 hc        1 2EW      0.123700
     31 H3          2.2030    2.2060    1.4880 h1        1 2EW      0.075200
     32 H4          2.3240    0.4020    1.7790 h1        1 2EW      0.075200
     33 H5          1.3660    0.2170   -1.9630 h1        1 2EW      0.082200
     34 H6          1.7440    2.0060   -1.7960 h1        1 2EW      0.082200
     35 H7          7.8030    0.7360   -5.7510 hn        1 2EW      0.414400
     36 H8          8.1120    0.0040   -2.9290 h4        1 2EW      0.042800
     37 H9          5.9600    0.3070   -1.7020 hn        1 2EW      0.482300
     38 H10         4.0130    2.1830    2.6110 h1        1 2EW      0.074950
     39 H11         3.6390    0.7400    3.6810 h1        1 2EW      0.074950
     40 H12         6.6920   -0.9780    1.9840 h1        1 2EW      0.074950
     41 H13         5.4550   -1.3580    3.2800 h1        1 2EW      0.074950
     42 H14         5.7920    1.5220   -4.4430 hx        1 2EW      0.116700
     43 H15         6.6730    2.2390   -3.0160 hx        1 2EW      0.116700
     44 H16         7.7220    0.7800    3.3770 h1        1 2EW      0.070950
     45 H17         7.4720   -0.6940    4.4500 h1        1 2EW      0.070950
     46 H18         6.1070    2.6360    3.7600 h1        1 2EW      0.070950
     47 H19         4.8460    2.3080    5.0610 h1        1 2EW      0.070950
     48 H20        -0.8000    2.1280    2.5680 ha        1 2EW      0.152000
     49 H21        -1.6920    1.7080   -1.6420 ha        1 2EW      0.152000
     50 H22        -3.1320    3.7380   -1.5410 ha        1 2EW      0.153000
     51 H23        -2.2400    4.1580    2.6720 ha        1 2EW      0.153000
     52 H24        -3.4100    4.9690    0.6170 ha        1 2EW      0.152000
     53 H172        5.1730   -0.3460   -3.0120 hn        1 2EW      0.482300
@<TRIPOS>BOND
     1    1    2 1   
     2    1   11 2   
     3    1   12 2   
     4    1   13 1   
     5    2    6 1   
     6    2    7 1   
     7    3    4 1   
     8    3    5 1   
     9    3    6 1   
    10    3   29 1   
    11    4    7 1   
    12    4    9 1   
    13    4   30 1   
    14    5    8 1   
    15    5   15 2   
    16    6   31 1   
    17    6   32 1   
    18    7   33 1   
    19    7   34 1   
    20    8   19 1   
    21    8   20 1   
    22    9   16 2   
    23    9   17 1   
    24   10   14 2   
    25   10   35 1   
    26   13   24 ar  
    27   13   25 ar  
    28   14   21 1   
    29   14   36 1   
    30   17   21 1   
    31   17   37 1   
    32   17   53 1   
    33   18   22 1   
    34   18   23 1   
    35   19   23 1   
    36   19   38 1   
    37   19   39 1   
    38   20   22 1   
    39   20   40 1   
    40   20   41 1   
    41   21   42 1   
    42   21   43 1   
    43   22   44 1   
    44   22   45 1   
    45   23   46 1   
    46   23   47 1   
    47   24   27 ar  
    48   24   48 1   
    49   25   26 ar  
    50   25   49 1   
    51   26   28 ar  
    52   26   50 1   
    53   27   28 ar  
    54   27   51 1   
    55   28   52 1   
@<TRIPOS>SUBSTRUCTURE
     1 2EW         1 TEMP              0 ****  ****    0 ROOT
