@<TRIPOS>MOLECULE
2EW
   52    54     1     0     0
SMALL
bcc


@<TRIPOS>ATOM
      1 S1          0.1240   -0.0900    0.1730 sy        1 2EW      1.525200
      2 N2          1.7250    0.2010    0.1370 n3        1 2EW     -0.826500
      3 C3          3.9830    0.7370    0.8450 c3        1 2EW     -0.133700
      4 C4          4.0410    0.1270   -0.5660 c3        1 2EW     -0.141700
      5 C5          4.8280   -0.0530    1.8360 c         1 2EW      0.667100
      6 C6          2.4890    0.7320    1.2420 c3        1 2EW      0.239800
      7 C7          2.5720   -0.0860   -0.9960 c3        1 2EW      0.236800
      8 N8          4.9280    0.3880    3.1480 n         1 2EW     -0.461800
      9 C9          4.7660    1.0320   -1.5520 c         1 2EW      0.664100
     10 N10         4.1060    3.2110   -4.0140 n2        1 2EW     -0.750100
     11 O11        -0.1810   -1.0700   -0.7950 o         1 2EW     -0.649800
     12 O12        -0.2770   -0.3470    1.5010 o         1 2EW     -0.649800
     13 C13        -0.5440    1.3790   -0.3140 ca        1 2EW     -0.385500
     14 C14         4.8560    2.3210   -4.5290 c2        1 2EW      0.400200
     15 O15         5.3920   -1.1140    1.4950 o         1 2EW     -0.609100
     16 O16         5.1650    2.1750   -1.2500 o         1 2EW     -0.617100
     17 N17         4.9810    0.5210   -2.8150 n         1 2EW     -0.570900
     18 O18         6.4470    1.8370    5.0970 os        1 2EW     -0.409600
     19 C19         4.5170    1.6960    3.5990 c3        1 2EW      0.050500
     20 C20         5.8040   -0.2980    4.0790 c3        1 2EW      0.050500
     21 C21         5.6810    1.2530   -3.8330 c3        1 2EW     -0.008300
     22 C22         6.9380    0.5930    4.6040 c3        1 2EW      0.102900
     23 C23         5.6860    2.5440    4.1260 c3        1 2EW      0.102900
     24 C24        -1.0510    2.2820    0.6290 ca        1 2EW     -0.016500
     25 C25        -0.6350    1.7080   -1.6720 ca        1 2EW     -0.016500
     26 C26        -1.2070    2.9100   -2.0800 ca        1 2EW     -0.155000
     27 C27        -1.6260    3.4860    0.2290 ca        1 2EW     -0.155000
     28 C28        -1.7010    3.8020   -1.1280 ca        1 2EW     -0.063000
     29 H1          4.3670    1.7950    0.8050 hc        1 2EW      0.112700
     30 H2          4.5710   -0.8680   -0.5290 hc        1 2EW      0.122700
     31 H3          2.3100    0.1070    2.1610 h1        1 2EW      0.058200
     32 H4          2.1580    1.7870    1.4630 h1        1 2EW      0.058200
     33 H5          2.3030    0.5950   -1.8530 h1        1 2EW      0.054700
     34 H6          2.4160   -1.1500   -1.3310 h1        1 2EW      0.054700
     35 H7          4.0300    3.2210   -3.0170 hn        1 2EW      0.401400
     36 H8          4.9610    2.3160   -5.6340 h4        1 2EW      0.013800
     37 H9          4.5810   -0.3520   -3.0600 hn        1 2EW      0.319500
     38 H10         3.7800    1.5450    4.4410 h1        1 2EW      0.068700
     39 H11         3.9990    2.2680    2.7830 h1        1 2EW      0.068700
     40 H12         6.2510   -1.2090    3.5890 h1        1 2EW      0.068700
     41 H13         5.1710   -0.6320    4.9510 h1        1 2EW      0.068700
     42 H14         6.0500    0.5160   -4.6000 h1        1 2EW      0.072200
     43 H15         6.5760    1.7620   -3.3660 h1        1 2EW      0.072200
     44 H16         7.7020    0.7820    3.8050 h1        1 2EW      0.059450
     45 H17         7.4220    0.1140    5.4950 h1        1 2EW      0.059450
     46 H18         6.3540    2.8690    3.2860 h1        1 2EW      0.059450
     47 H19         5.2940    3.4390    4.6760 h1        1 2EW      0.059450
     48 H20        -1.0060    2.0230    1.7020 ha        1 2EW      0.151500
     49 H21        -0.2600    0.9940   -2.4260 ha        1 2EW      0.151500
     50 H22        -1.2700    3.1540   -3.1510 ha        1 2EW      0.143000
     51 H23        -2.0230    4.1830    0.9820 ha        1 2EW      0.143000
     52 H24        -2.1530    4.7540   -1.4480 ha        1 2EW      0.139000
@<TRIPOS>BOND
     1    1    2 1   
     2    1   11 2   
     3    1   12 2   
     4    1   13 1   
     5    2    6 1   
     6    2    7 1   
     7    3    4 1   
     8    3    5 1   
     9    3    6 1   
    10    3   29 1   
    11    4    7 1   
    12    4    9 1   
    13    4   30 1   
    14    5    8 1   
    15    5   15 2   
    16    6   31 1   
    17    6   32 1   
    18    7   33 1   
    19    7   34 1   
    20    8   19 1   
    21    8   20 1   
    22    9   16 2   
    23    9   17 1   
    24   10   14 2   
    25   10   35 1   
    26   13   24 ar  
    27   13   25 ar  
    28   14   21 1   
    29   14   36 1   
    30   17   21 1   
    31   17   37 1   
    32   18   22 1   
    33   18   23 1   
    34   19   23 1   
    35   19   38 1   
    36   19   39 1   
    37   20   22 1   
    38   20   40 1   
    39   20   41 1   
    40   21   42 1   
    41   21   43 1   
    42   22   44 1   
    43   22   45 1   
    44   23   46 1   
    45   23   47 1   
    46   24   27 ar  
    47   24   48 1   
    48   25   26 ar  
    49   25   49 1   
    50   26   28 ar  
    51   26   50 1   
    52   27   28 ar  
    53   27   51 1   
    54   28   52 1   
@<TRIPOS>SUBSTRUCTURE
     1 2EW         1 TEMP              0 ****  ****    0 ROOT
