@<TRIPOS>MOLECULE
2EX
   48    52     1     0     0
SMALL
bcc


@<TRIPOS>ATOM
      1 C1         -0.0260   -0.0730   -0.0110 cp        1 2EX     -0.175300
      2 C2          1.3490    0.2170   -0.0130 ca        1 2EX     -0.063000
      3 C3          2.0680    0.2000    1.1780 ca        1 2EX     -0.246300
      4 C4          1.3880   -0.1170    2.3700 ca        1 2EX      0.432200
      5 N5          0.0790   -0.4070    2.4260 nb        1 2EX     -0.681000
      6 C6         -0.6130   -0.3790    1.2510 ca        1 2EX      0.603500
      7 C7         -0.7860   -0.0520   -1.2550 cp        1 2EX     -0.054000
      8 C8         -0.4920    0.9030   -2.2480 ca        1 2EX     -0.057000
      9 C9         -1.1940    0.9220   -3.4420 ca        1 2EX     -0.143000
     10 C10        -2.2190   -0.0190   -3.6640 ca        1 2EX      0.177100
     11 C11        -2.5360   -0.9740   -2.6830 ca        1 2EX     -0.184300
     12 C12        -1.8030   -0.9790   -1.4890 ca        1 2EX     -0.067000
     13 O13        -2.8360    0.0630   -4.8910 os        1 2EX     -0.301900
     14 C14        -4.1000   -0.6170   -4.9740 c3        1 2EX      0.137100
     15 C15        -3.9960   -2.0340   -4.4070 c3        1 2EX     -0.120700
     16 C16        -3.6520   -1.9570   -2.9080 c3        1 2EX      0.149500
     17 C17        -4.4570   -0.6680   -6.4550 c3        1 2EX     -0.113400
     18 C18        -5.7090   -1.5060   -6.6490 c3        1 2EX      0.118400
     19 O19        -5.5690   -2.8070   -6.0820 os        1 2EX     -0.393600
     20 C20        -5.2960   -2.7840   -4.6910 c3        1 2EX      0.129400
     21 N21        -3.3260   -3.3100   -2.3580 n2        1 2EX     -0.512900
     22 C22        -4.1720   -3.5380   -1.3690 c2        1 2EX      0.462800
     23 N23        -5.1900   -2.5660   -1.1400 n         1 2EX     -0.419300
     24 C24        -4.9030   -1.4940   -2.0670 c         1 2EX      0.678500
     25 O25        -5.5720   -0.4750   -2.1430 o         1 2EX     -0.484500
     26 N26        -4.1360   -4.7820   -0.5670 n4        1 2EX     -0.780600
     27 C27        -5.8780   -2.3990    0.1000 c3        1 2EX      0.047300
     28 F28        -1.9380   -0.6680    1.3460 f         1 2EX     -0.243200
     29 H1          1.8560    0.4510   -0.9630 ha        1 2EX      0.154000
     30 H2          3.1430    0.4270    1.1970 ha        1 2EX      0.164000
     31 H3          1.9180   -0.1430    3.3420 h4        1 2EX      0.044100
     32 H4          0.2970    1.6520   -2.0700 ha        1 2EX      0.156000
     33 H5         -0.9710    1.6630   -4.2260 ha        1 2EX      0.173000
     34 H6         -2.0280   -1.7210   -0.7080 ha        1 2EX      0.122000
     35 H7         -4.8580   -0.0170   -4.3950 h1        1 2EX      0.081700
     36 H8         -3.1490   -2.5630   -4.9340 hc        1 2EX      0.118700
     37 H9         -4.6290    0.3710   -6.8350 hc        1 2EX      0.083200
     38 H10        -3.6020   -1.1090   -7.0300 hc        1 2EX      0.083200
     39 H11        -6.6030   -0.9960   -6.2020 h1        1 2EX      0.069700
     40 H12        -5.8900   -1.7100   -7.7390 h1        1 2EX      0.069700
     41 H13        -5.2100   -3.8680   -4.4150 h1        1 2EX      0.051200
     42 H14        -6.1510   -2.3080   -4.1380 h1        1 2EX      0.051200
     43 H15        -3.3080   -5.3400   -0.8260 hn        1 2EX      0.485467
     44 H16        -4.0900   -4.5370    0.4310 hn        1 2EX      0.485467
     45 H17        -6.5410   -3.2860    0.2890 h1        1 2EX      0.074367
     46 H18        -6.5220   -1.4780    0.0180 h1        1 2EX      0.074367
     47 H19        -5.1710   -2.2650    0.9640 h1        1 2EX      0.074367
     48 H263       -4.9890   -5.3250   -0.7530 hn        1 2EX      0.485467
@<TRIPOS>BOND
     1    1    2 ar  
     2    1    6 ar  
     3    1    7 1   
     4    2    3 ar  
     5    2   29 1   
     6    3    4 ar  
     7    3   30 1   
     8    4    5 ar  
     9    4   31 1   
    10    5    6 ar  
    11    6   28 1   
    12    7    8 ar  
    13    7   12 ar  
    14    8    9 ar  
    15    8   32 1   
    16    9   10 ar  
    17    9   33 1   
    18   10   11 ar  
    19   10   13 1   
    20   11   12 ar  
    21   11   16 1   
    22   12   34 1   
    23   13   14 1   
    24   14   15 1   
    25   14   17 1   
    26   14   35 1   
    27   15   16 1   
    28   15   20 1   
    29   15   36 1   
    30   16   21 1   
    31   16   24 1   
    32   17   18 1   
    33   17   37 1   
    34   17   38 1   
    35   18   19 1   
    36   18   39 1   
    37   18   40 1   
    38   19   20 1   
    39   20   41 1   
    40   20   42 1   
    41   21   22 2   
    42   22   23 1   
    43   22   26 1   
    44   23   24 1   
    45   23   27 1   
    46   24   25 2   
    47   26   43 1   
    48   26   44 1   
    49   26   48 1   
    50   27   45 1   
    51   27   46 1   
    52   27   47 1   
@<TRIPOS>SUBSTRUCTURE
     1 2EX         1 TEMP              0 ****  ****    0 ROOT
