@<TRIPOS>MOLECULE
2EX
   48    52     1     0     0
SMALL
bcc


@<TRIPOS>ATOM
      1 C1         -0.0320   -0.0680   -0.0070 cp        1 2EX     -0.175300
      2 C2          1.3430    0.2240   -0.0070 ca        1 2EX     -0.063000
      3 C3          2.0610    0.2070    1.1840 ca        1 2EX     -0.246300
      4 C4          1.3810   -0.1130    2.3750 ca        1 2EX      0.432200
      5 N5          0.0730   -0.4050    2.4300 nb        1 2EX     -0.681000
      6 C6         -0.6190   -0.3770    1.2550 ca        1 2EX      0.603500
      7 C7         -0.7910   -0.0470   -1.2510 cp        1 2EX     -0.054000
      8 C8         -0.4980    0.9090   -2.2430 ca        1 2EX     -0.057000
      9 C9         -1.2000    0.9290   -3.4370 ca        1 2EX     -0.143000
     10 C10        -2.2230   -0.0140   -3.6600 ca        1 2EX      0.177100
     11 C11        -2.5390   -0.9710   -2.6810 ca        1 2EX     -0.184300
     12 C12        -1.8070   -0.9750   -1.4860 ca        1 2EX     -0.067000
     13 O13        -2.8400    0.0690   -4.8870 os        1 2EX     -0.301900
     14 C14        -4.1020   -0.6130   -4.9730 c3        1 2EX      0.137100
     15 C15        -3.9960   -2.0320   -4.4070 c3        1 2EX     -0.120700
     16 C16        -3.6530   -1.9550   -2.9080 c3        1 2EX      0.149500
     17 C17        -4.4580   -0.6640   -6.4540 c3        1 2EX     -0.113400
     18 C18        -5.7080   -1.5040   -6.6500 c3        1 2EX      0.118400
     19 O19        -5.5660   -2.8050   -6.0830 os        1 2EX     -0.393600
     20 C20        -5.2940   -2.7830   -4.6930 c3        1 2EX      0.129400
     21 N21        -3.3250   -3.3080   -2.3590 n2        1 2EX     -0.512900
     22 C22        -4.1710   -3.5390   -1.3710 c2        1 2EX      0.462800
     23 N23        -5.1900   -2.5690   -1.1410 n         1 2EX     -0.419300
     24 C24        -4.9050   -1.4950   -2.0670 c         1 2EX      0.678500
     25 O25        -5.5760   -0.4780   -2.1420 o         1 2EX     -0.484500
     26 N26        -4.1330   -4.7830   -0.5700 n4        1 2EX     -0.780600
     27 C27        -5.8800   -2.4050    0.0990 c3        1 2EX      0.047300
     28 F28        -1.9430   -0.6690    1.3480 f         1 2EX     -0.243200
     29 H1          1.8500    0.4600   -0.9570 ha        1 2EX      0.154000
     30 H2          3.1350    0.4360    1.2040 ha        1 2EX      0.164000
     31 H3          1.9110   -0.1390    3.3470 h4        1 2EX      0.044100
     32 H4          0.2900    1.6600   -2.0630 ha        1 2EX      0.156000
     33 H5         -0.9780    1.6710   -4.2200 ha        1 2EX      0.173000
     34 H6         -2.0300   -1.7190   -0.7060 ha        1 2EX      0.122000
     35 H7         -4.8620   -0.0150   -4.3930 h1        1 2EX      0.081700
     36 H8         -3.1480   -2.5580   -4.9340 hc        1 2EX      0.118700
     37 H9         -4.6320    0.3750   -6.8330 hc        1 2EX      0.083200
     38 H10        -3.6010   -1.1020   -7.0280 hc        1 2EX      0.083200
     39 H11        -6.6040   -0.9960   -6.2020 h1        1 2EX      0.069700
     40 H12        -5.8880   -1.7070   -7.7400 h1        1 2EX      0.069700
     41 H13        -5.2060   -3.8680   -4.4180 h1        1 2EX      0.051200
     42 H14        -6.1500   -2.3100   -4.1390 h1        1 2EX      0.051200
     43 H15        -4.9850   -5.3280   -0.7560 hn        1 2EX      0.485467
     44 H16        -4.0880   -4.5400    0.4280 hn        1 2EX      0.485467
     45 H17        -5.1740   -2.2700    0.9630 h1        1 2EX      0.074367
     46 H18        -6.5420   -3.2930    0.2860 h1        1 2EX      0.074367
     47 H19        -6.5260   -1.4840    0.0170 h1        1 2EX      0.074367
     48 H263       -3.3040   -5.3400   -0.8290 hn        1 2EX      0.485467
@<TRIPOS>BOND
     1    1    2 ar  
     2    1    6 ar  
     3    1    7 1   
     4    2    3 ar  
     5    2   29 1   
     6    3    4 ar  
     7    3   30 1   
     8    4    5 ar  
     9    4   31 1   
    10    5    6 ar  
    11    6   28 1   
    12    7    8 ar  
    13    7   12 ar  
    14    8    9 ar  
    15    8   32 1   
    16    9   10 ar  
    17    9   33 1   
    18   10   11 ar  
    19   10   13 1   
    20   11   12 ar  
    21   11   16 1   
    22   12   34 1   
    23   13   14 1   
    24   14   15 1   
    25   14   17 1   
    26   14   35 1   
    27   15   16 1   
    28   15   20 1   
    29   15   36 1   
    30   16   21 1   
    31   16   24 1   
    32   17   18 1   
    33   17   37 1   
    34   17   38 1   
    35   18   19 1   
    36   18   39 1   
    37   18   40 1   
    38   19   20 1   
    39   20   41 1   
    40   20   42 1   
    41   21   22 2   
    42   22   23 1   
    43   22   26 1   
    44   23   24 1   
    45   23   27 1   
    46   24   25 2   
    47   26   43 1   
    48   26   44 1   
    49   26   48 1   
    50   27   45 1   
    51   27   46 1   
    52   27   47 1   
@<TRIPOS>SUBSTRUCTURE
     1 2EX         1 TEMP              0 ****  ****    0 ROOT
