@<TRIPOS>MOLECULE
2EY
   41    44     1     0     0
SMALL
bcc


@<TRIPOS>ATOM
      1 CL1        -7.6480    0.8170    1.5070 cl        1 2EY     -0.077400
      2 C19        -6.1220    0.5470    0.8170 ca        1 2EY      0.015400
      3 C18        -5.0090    0.3560    1.6420 ca        1 2EY     -0.110500
      4 C17        -3.7560    0.1350    1.0820 ca        1 2EY     -0.121000
      5 C16        -3.6060    0.0930   -0.3200 ca        1 2EY      0.013800
      6 C21        -4.7320    0.2920   -1.1450 ca        1 2EY     -0.121000
      7 C20        -5.9810    0.5180   -0.5730 ca        1 2EY     -0.110500
      8 N3         -2.3270   -0.1440   -0.8900 na        1 2EY      0.114300
      9 C15        -1.2750   -0.8420   -0.2730 cc        1 2EY     -0.187600
     10 C14        -0.2400   -0.8120   -1.2240 cd        1 2EY      0.242600
     11 N1         -0.7360   -0.0930   -2.3430 nd        1 2EY     -0.322000
     12 N2         -1.9270    0.2730   -2.1280 nc        1 2EY     -0.152800
     13 C11         1.1220   -1.3920   -1.1150 c3        1 2EY      0.136800
     14 C12         1.5750   -2.0570   -2.4000 c3        1 2EY     -0.119100
     15 O1          1.9900   -0.2730   -0.8070 os        1 2EY     -0.317900
     16 C1          3.1650   -0.5480   -0.1570 cc        1 2EY      0.236900
     17 C6          3.9280    0.6480    0.1700 ca        1 2EY     -0.144800
     18 C7          3.4890    1.9370   -0.1740 ca        1 2EY     -0.046000
     19 C8          4.2450    3.0500    0.1520 ca        1 2EY     -0.178000
     20 C9          5.4610    2.8940    0.8320 ca        1 2EY     -0.069000
     21 C10         5.9220    1.6380    1.1840 ca        1 2EY     -0.196000
     22 C5          5.1630    0.4820    0.8580 ca        1 2EY      0.111600
     23 N4          5.6100   -0.7840    1.2030 n         1 2EY     -0.452100
     24 C3          4.8900   -1.9470    0.8870 c         1 2EY      0.715700
     25 C2          3.6250   -1.7860    0.1760 cd        1 2EY     -0.358200
     26 H1         -5.1180    0.3850    2.7380 ha        1 2EY      0.157000
     27 H2         -2.8880    0.0040    1.7470 ha        1 2EY      0.156500
     28 H3         -4.6400    0.2750   -2.2440 ha        1 2EY      0.156500
     29 H4         -6.8560    0.6740   -1.2240 ha        1 2EY      0.157000
     30 H5         -1.3470   -1.2870    0.7180 h4        1 2EY      0.198000
     31 H6          1.1300   -2.1210   -0.2550 h1        1 2EY      0.061700
     32 H7          2.5750   -2.5310   -2.2520 hc        1 2EY      0.059700
     33 H8          0.8370   -2.8390   -2.6980 hc        1 2EY      0.059700
     34 H9          1.6560   -1.3040   -3.2210 hc        1 2EY      0.059700
     35 H10         2.5320    2.0440   -0.7120 ha        1 2EY      0.158000
     36 H11         3.8960    4.0560   -0.1210 ha        1 2EY      0.141000
     37 H12         6.0570    3.7840    1.0890 ha        1 2EY      0.136000
     38 H13         6.8790    1.5330    1.7160 ha        1 2EY      0.139000
     39 H14         6.4790   -0.8760    1.6820 hn        1 2EY      0.333500
     40 H15         3.1070   -2.7230   -0.0640 ha        1 2EY      0.167000
     41 O2          5.3680   -3.0460    1.2320 o         1 2EY     -0.641500
@<TRIPOS>BOND
     1    1    2 1   
     2    2    3 ar  
     3    2    7 ar  
     4    3    4 ar  
     5    3   26 1   
     6    4    5 ar  
     7    4   27 1   
     8    5    6 ar  
     9    5    8 1   
    10    6    7 ar  
    11    6   28 1   
    12    7   29 1   
    13    8    9 1   
    14    8   12 1   
    15    9   10 2   
    16    9   30 1   
    17   10   11 1   
    18   10   13 1   
    19   11   12 2   
    20   13   14 1   
    21   13   15 1   
    22   13   31 1   
    23   14   32 1   
    24   14   33 1   
    25   14   34 1   
    26   15   16 1   
    27   16   17 1   
    28   16   25 2   
    29   17   18 ar  
    30   17   22 ar  
    31   18   19 ar  
    32   18   35 1   
    33   19   20 ar  
    34   19   36 1   
    35   20   21 ar  
    36   20   37 1   
    37   21   22 ar  
    38   21   38 1   
    39   22   23 1   
    40   23   24 1   
    41   23   39 1   
    42   24   25 1   
    43   24   41 2   
    44   25   40 1   
@<TRIPOS>SUBSTRUCTURE
     1 2EY         1 TEMP              0 ****  ****    0 ROOT
