@<TRIPOS>MOLECULE
2EY
   41    43     1     0     0
SMALL
bcc


@<TRIPOS>ATOM
      1 Cl1         2.9860    2.5170    2.6450 cl        1 2EY      0.057000
      2 C19         3.0220    1.5420    1.2900 c2        1 2EY     -0.035000
      3 C18         3.1310    2.1280   -0.0590 c2        1 2EY     -0.108000
      4 C17         3.8600    1.4390   -0.9640 c2        1 2EY     -0.161000
      5 C16         4.3680    0.0110   -0.7580 c3        1 2EY      0.093000
      6 C21         3.5530   -0.6580    0.3470 c2        1 2EY     -0.130000
      7 C20         3.1270    0.2140    1.2370 c1        1 2EY     -0.137000
      8 N3          5.8130   -0.0440   -0.5970 na        1 2EY     -0.167000
      9 C15         6.5020   -0.1850    0.6130 c2        1 2EY     -0.088000
     10 C14         7.8590   -0.1280    0.2410 c2        1 2EY     -0.186000
     11 N1          7.8880    0.0630   -1.1640 n2        1 2EY     -0.063000
     12 N2          6.7050    0.1110   -1.6140 n2        1 2EY      0.002000
     13 C11         9.0520   -0.2340    1.1130 c3        1 2EY      0.109000
     14 C12        10.1000   -1.1730    0.5510 c3        1 2EY     -0.254000
     15 O1          9.5660    1.1120    1.2400 os        1 2EY     -0.202000
     16 C1         10.7820    1.1710    1.9310 c2        1 2EY     -0.209000
     17 C6         11.0000    2.4670    2.5650 c2        1 2EY     -0.014000
     18 C7         10.2100    3.5880    1.9900 c3        1 2EY     -0.143000
     19 C8         10.3970    4.8980    2.6400 c2        1 2EY     -0.070000
     20 C9         11.1720    5.0400    3.7410 c2        1 2EY     -0.207000
     21 C10        11.8200    3.9340    4.3530 c1        1 2EY     -0.076000
     22 C5         11.8400    2.6770    3.6400 c2        1 2EY     -0.028000
     23 N4         12.6430    1.6660    4.2040 ns        1 2EY     -0.318000
     24 C3         13.6140    0.9810    3.4900 c2        1 2EY      0.254000
     25 C2         11.6780    0.1650    1.9510 c1        1 2EY      0.131000
     26 H1          4.1410    1.8830   -1.9320 ha        1 2EY      0.161000
     27 H2          2.7200    3.1280   -0.2470 ha        1 2EY      0.162000
     28 H3          4.1040   -0.5650   -1.7030 h1        1 2EY      0.150000
     29 H4          3.2700   -1.7080    0.2370 ha        1 2EY      0.173000
     30 H5          6.0050   -0.3200    1.5730 h4        1 2EY      0.203000
     31 H6          8.7320   -0.5760    2.1400 h1        1 2EY      0.100000
     32 H7          9.6790   -2.2010    0.4430 hc        1 2EY      0.119667
     33 H8         10.4650   -0.8190   -0.4430 hc        1 2EY      0.119667
     34 H9         10.9940   -1.2620    1.2580 hc        1 2EY      0.119667
     35 H10        10.4640    3.6740    0.8920 hc        1 2EY      0.153500
     36 H11         9.1140    3.3070    2.0290 hc        1 2EY      0.153500
     37 H12         9.8460    5.7410    2.1910 ha        1 2EY      0.135000
     38 H13        11.3020    6.0220    4.2270 ha        1 2EY      0.154000
     39 H14        12.7630    1.7430    5.1950 hn        1 2EY      0.249000
     40 H15        13.6040    1.1250    2.3820 h5        1 2EY      0.139000
     41 O2         14.4280    0.2470    4.0720 o         1 2EY     -0.343000
@<TRIPOS>BOND
     1    1    2 1   
     2    2    3 1   
     3    2    7 1   
     4    3    4 1   
     5    3   27 1   
     6    4    5 1   
     7    4   26 1   
     8    5    6 1   
     9    5    8 1   
    10    5   28 1   
    11    6    7 1   
    12    6   29 1   
    13    8    9 1   
    14    8   12 1   
    15    9   10 1   
    16    9   30 1   
    17   10   11 1   
    18   10   13 1   
    19   11   12 1   
    20   13   14 1   
    21   13   15 1   
    22   13   31 1   
    23   14   32 1   
    24   14   33 1   
    25   14   34 1   
    26   15   16 1   
    27   16   17 1   
    28   16   25 1   
    29   17   18 1   
    30   17   22 1   
    31   18   19 1   
    32   18   35 1   
    33   18   36 1   
    34   19   20 1   
    35   19   37 1   
    36   20   21 1   
    37   20   38 1   
    38   21   22 1   
    39   22   23 1   
    40   23   24 1   
    41   23   39 1   
    42   24   40 1   
    43   24   41 1   
@<TRIPOS>SUBSTRUCTURE
     1 2EY         1 TEMP              0 ****  ****    0 ROOT
