@<TRIPOS>MOLECULE
2EY
   41    43     1     0     0
SMALL
bcc


@<TRIPOS>ATOM
      1 CL1         2.9760    2.5670    2.5640 cl        1 2EY      0.057000
      2 C19         3.0240    1.5810    1.2160 c2        1 2EY     -0.035000
      3 C18         3.1580    2.1550   -0.1350 c2        1 2EY     -0.108000
      4 C17         3.8940    1.4530   -1.0240 c2        1 2EY     -0.161000
      5 C16         4.3860    0.0220   -0.7990 c3        1 2EY      0.093000
      6 C21         3.5490   -0.6320    0.2990 c2        1 2EY     -0.130000
      7 C20         3.1180    0.2510    1.1750 c1        1 2EY     -0.137000
      8 N3          5.8280   -0.0450   -0.6170 na        1 2EY     -0.167000
      9 C15         6.4980   -0.1760    0.6060 c2        1 2EY     -0.088000
     10 C14         7.8610   -0.1370    0.2530 c2        1 2EY     -0.186000
     11 N1          7.9120    0.0350   -1.1540 n2        1 2EY     -0.063000
     12 N2          6.7370    0.0880   -1.6220 n2        1 2EY      0.002000
     13 C11         9.0400   -0.2420    1.1440 c3        1 2EY      0.109000
     14 C12        10.0860   -1.2000    0.6110 c3        1 2EY     -0.254000
     15 O1          9.5670    1.1000    1.2580 os        1 2EY     -0.202000
     16 C1         10.7730    1.1570    1.9660 c2        1 2EY     -0.209000
     17 C6         10.9960    2.4600    2.5840 c2        1 2EY     -0.014000
     18 C7         10.2260    3.5800    1.9800 c3        1 2EY     -0.143000
     19 C8         10.4180    4.8980    2.6130 c2        1 2EY     -0.070000
     20 C9         11.1780    5.0480    3.7230 c2        1 2EY     -0.207000
     21 C10        11.8060    3.9450    4.3610 c1        1 2EY     -0.076000
     22 C5         11.8230    2.6770    3.6670 c2        1 2EY     -0.028000
     23 N4         12.6060    1.6660    4.2580 n         1 2EY     -0.318000
     24 C3         13.5800    0.9600    3.5680 c2        1 2EY      0.254000
     25 C2         11.6580    0.1420    2.0130 c1        1 2EY      0.131000
     26 H1          4.1940    1.8870   -1.9900 ha        1 2EY      0.161000
     27 H2          2.7590    3.1580   -0.3370 ha        1 2EY      0.162000
     28 H3          4.1310   -0.5590   -1.7440 h1        1 2EY      0.151000
     29 H4          3.2580   -1.6790    0.1920 ha        1 2EY      0.173000
     30 H5          5.9860   -0.2930    1.5600 h4        1 2EY      0.203000
     31 H6          8.7020   -0.5660    2.1710 h1        1 2EY      0.100000
     32 H7          9.6560   -2.2250    0.5120 hc        1 2EY      0.119667
     33 H8         10.4690   -0.8650   -0.3830 hc        1 2EY      0.119667
     34 H9         10.9690   -1.2880    1.3320 hc        1 2EY      0.119667
     35 H10        10.4960    3.6470    0.8850 hc        1 2EY      0.153500
     36 H11         9.1270    3.3110    2.0080 hc        1 2EY      0.153500
     37 H12         9.8830    5.7390    2.1440 ha        1 2EY      0.135000
     38 H13        11.3120    6.0360    4.1960 ha        1 2EY      0.154000
     39 H14        12.7130    1.7570    5.2500 hn        1 2EY      0.249000
     40 H15        13.5870    1.0870    2.4590 h5        1 2EY      0.139000
     41 O2         14.3770    0.2270    4.1730 o         1 2EY     -0.343000
@<TRIPOS>BOND
     1    1    2 1   
     2    2    3 1   
     3    2    7 1   
     4    3    4 1   
     5    3   27 1   
     6    4    5 1   
     7    4   26 1   
     8    5    6 1   
     9    5    8 1   
    10    5   28 1   
    11    6    7 1   
    12    6   29 1   
    13    8    9 1   
    14    8   12 1   
    15    9   10 1   
    16    9   30 1   
    17   10   11 1   
    18   10   13 1   
    19   11   12 1   
    20   13   14 1   
    21   13   15 1   
    22   13   31 1   
    23   14   32 1   
    24   14   33 1   
    25   14   34 1   
    26   15   16 1   
    27   16   17 1   
    28   16   25 1   
    29   17   18 1   
    30   17   22 1   
    31   18   19 1   
    32   18   35 1   
    33   18   36 1   
    34   19   20 1   
    35   19   37 1   
    36   20   21 1   
    37   20   38 1   
    38   21   22 1   
    39   22   23 1   
    40   23   24 1   
    41   23   39 1   
    42   24   40 1   
    43   24   41 1   
@<TRIPOS>SUBSTRUCTURE
     1 2EY         1 TEMP              0 ****  ****    0 ROOT
