@<TRIPOS>MOLECULE
2EY
   41    34     1     0     0
SMALL
bcc


@<TRIPOS>ATOM
      1 CL1        -8.4560   -2.4620   -1.9390 cl        1 2EY     -0.000000
      2 C19        -6.7950   -1.9400   -1.8440 c1        1 2EY     -0.062000
      3 C18        -6.4850   -0.7180   -1.2670 c1        1 2EY     -0.126000
      4 C17        -5.1620   -0.3220   -1.1520 c1        1 2EY     -0.126000
      5 C16        -4.1490   -1.1470   -1.6130 c1        1 2EY      0.056000
      6 C21        -4.4590   -2.3690   -2.1900 c1        1 2EY     -0.107000
      7 C20        -5.7820   -2.7650   -2.3050 c1        1 2EY     -0.114000
      8 N3         -2.7950   -0.7420   -1.4940 n2        1 2EY     -0.091000
      9 C15        -2.0000   -0.9570   -0.4400 c1        1 2EY     -0.155000
     10 C14        -0.7600   -0.4530   -0.7360 c1        1 2EY     -0.155000
     11 N1         -0.8070    0.0650   -1.9670 n2        1 2EY     -0.091000
     12 N2         -2.0650   -0.1090   -2.4470 n2        1 2EY      0.017000
     13 C11         0.4630   -0.5240    0.1510 c2        1 2EY      0.121000
     14 C12         1.2330   -1.7890   -0.1530 c3        1 2EY     -0.210000
     15 O1          1.2820    0.5940   -0.0890 os        1 2EY     -0.197000
     16 C1          2.0400    0.9940    1.0250 c2        1 2EY      0.187000
     17 C6          3.4570    1.4820    0.8400 c2        1 2EY     -0.130000
     18 C7          4.0290    1.5000   -0.4340 c2        1 2EY     -0.045000
     19 C8          5.3370    1.9570   -0.6060 c1        1 2EY     -0.177000
     20 C9          6.0780    2.4010    0.5020 c1        1 2EY     -0.126000
     21 C10         5.5080    2.3840    1.7760 c1        1 2EY     -0.126000
     22 C5          4.1990    1.9260    1.9500 c1        1 2EY      0.118000
     23 N4          3.5840    1.9160    3.3220 n2        1 2EY     -0.304000
     24 O2          1.7310    1.4550    4.6140 o         1 2EY     -0.375000
     25 C3          2.2300    1.4510    3.5060 c1        1 2EY      0.356000
     26 C2          1.4420    0.9990    2.3450 c1        1 2EY     -0.339000
     27 H1         -7.1980   -0.1370   -0.9430 ha        1 2EY      0.146500
     28 H2         -4.9440    0.5390   -0.7460 ha        1 2EY      0.146500
     29 H3         -3.7450   -2.9500   -2.5140 ha        1 2EY      0.165000
     30 H4         -6.0000   -3.6260   -2.7110 ha        1 2EY      0.157000
     31 H5         -2.2580   -1.3950    0.3930 DU        1 2EY      0.200000
     32 H6          0.1850   -0.5290    1.0880 h4        1 2EY      0.100000
     33 H7          2.1390   -1.5570   -0.4480 hc        1 2EY      0.097667
     34 H8          0.7760   -2.2880   -0.8630 hc        1 2EY      0.097667
     35 H9          1.2840   -2.3430    0.6550 hc        1 2EY      0.097667
     36 H10         3.5150    1.1920   -1.2050 ha        1 2EY      0.156000
     37 H11         5.7360    1.9690   -1.4960 ha        1 2EY      0.140000
     38 H12         6.9920    2.7210    0.3810 ha        1 2EY      0.146500
     39 H13         6.0230    2.6930    2.5460 ha        1 2EY      0.146500
     40 H14         4.0680    2.2010    4.0400 hn        1 2EY      0.247000
     41 H15         0.5270    0.6840    2.4680 ha        1 2EY      0.158000
@<TRIPOS>BOND
     1    1    2 1   
     2    2    7 1   
     3    3    4 1   
     4    3   27 1   
     5    4   28 1   
     6    5    6 1   
     7    6   29 1   
     8    7   30 1   
     9    8    9 1   
    10    8   12 1   
    11    9   10 1   
    12   10   11 1   
    13   11   12 1   
    14   13   14 1   
    15   13   15 1   
    16   13   32 1   
    17   14   33 1   
    18   14   34 1   
    19   14   35 1   
    20   15   16 1   
    21   16   17 1   
    22   16   26 1   
    23   17   18 1   
    24   17   22 1   
    25   18   19 1   
    26   18   36 1   
    27   19   37 1   
    28   20   21 1   
    29   20   38 1   
    30   21   39 1   
    31   23   25 1   
    32   23   40 1   
    33   24   25 1   
    34   26   41 1   
@<TRIPOS>SUBSTRUCTURE
     1 2EY         1 TEMP              0 ****  ****    0 ROOT
