@<TRIPOS>MOLECULE
2EY
   41    43     1     0     0
SMALL
bcc


@<TRIPOS>ATOM
      1 CL1         2.9870    2.6020    2.5520 cl        1 2EY      0.057000
      2 C19         3.0280    1.5870    1.2260 c2        1 2EY     -0.034000
      3 C18         3.1540    2.1330   -0.1390 c2        1 2EY     -0.108000
      4 C17         3.8850    1.4130   -1.0160 c2        1 2EY     -0.161000
      5 C16         4.3790   -0.0120   -0.7650 c3        1 2EY      0.093000
      6 C21         3.5480   -0.6430    0.3520 c2        1 2EY     -0.130000
      7 C20         3.1220    0.2580    1.2120 c1        1 2EY     -0.137000
      8 N3          5.8220   -0.0750   -0.5880 na        1 2EY     -0.167000
      9 C15         6.4990   -0.1900    0.6320 c2        1 2EY     -0.088000
     10 C14         7.8590   -0.1540    0.2710 c2        1 2EY     -0.186000
     11 N1          7.9030    0.0010   -1.1380 n2        1 2EY     -0.063000
     12 N2          6.7250    0.0470   -1.6000 n2        1 2EY      0.002000
     13 C11         9.0430   -0.2470    1.1580 c3        1 2EY      0.109000
     14 C12        10.0900   -1.2060    0.6290 c3        1 2EY     -0.254000
     15 O1          9.5660    1.0980    1.2560 os        1 2EY     -0.202000
     16 C1         10.7750    1.1660    1.9580 c2        1 2EY     -0.210000
     17 C6         10.9970    2.4760    2.5620 c2        1 2EY     -0.014000
     18 C7         10.2200    3.5870    1.9520 c3        1 2EY     -0.143000
     19 C8         10.4100    4.9120    2.5710 c2        1 2EY     -0.070000
     20 C9         11.1750    5.0750    3.6760 c2        1 2EY     -0.207000
     21 C10        11.8100    3.9810    4.3210 c1        1 2EY     -0.076000
     22 C5         11.8280    2.7060    3.6390 c2        1 2EY     -0.028000
     23 N4         12.6180    1.7040    4.2360 n         1 2EY     -0.318000
     24 C3         13.5910    0.9940    3.5490 c2        1 2EY      0.254000
     25 C2         11.6640    0.1550    2.0110 c1        1 2EY      0.131000
     26 H1          4.1800    1.8270   -1.9930 ha        1 2EY      0.161000
     27 H2          2.7540    3.1320   -0.3590 ha        1 2EY      0.162000
     28 H3          4.1190   -0.6130   -1.6950 h1        1 2EY      0.150000
     29 H4          3.2570   -1.6930    0.2690 ha        1 2EY      0.173000
     30 H5          5.9910   -0.2960    1.5900 h4        1 2EY      0.203000
     31 H6          8.7110   -0.5610    2.1900 h1        1 2EY      0.100000
     32 H7          9.6620   -2.2340    0.5430 hc        1 2EY      0.119667
     33 H8         10.4670   -0.8800   -0.3690 hc        1 2EY      0.119667
     34 H9         10.9770   -1.2840    1.3470 hc        1 2EY      0.119667
     35 H10        10.4850    3.6450    0.8550 hc        1 2EY      0.153500
     36 H11         9.1220    3.3150    1.9870 hc        1 2EY      0.153500
     37 H12         9.8700    5.7470    2.0970 ha        1 2EY      0.135000
     38 H13        11.3080    6.0680    4.1390 ha        1 2EY      0.154000
     39 H14        12.7290    1.8040    5.2260 hn        1 2EY      0.249000
     40 H15        13.5920    1.1110    2.4380 h5        1 2EY      0.139000
     41 O2         14.3940    0.2700    4.1560 o         1 2EY     -0.343000
@<TRIPOS>BOND
     1    1    2 1   
     2    2    3 1   
     3    2    7 1   
     4    3    4 1   
     5    3   27 1   
     6    4    5 1   
     7    4   26 1   
     8    5    6 1   
     9    5    8 1   
    10    5   28 1   
    11    6    7 1   
    12    6   29 1   
    13    8    9 1   
    14    8   12 1   
    15    9   10 1   
    16    9   30 1   
    17   10   11 1   
    18   10   13 1   
    19   11   12 1   
    20   13   14 1   
    21   13   15 1   
    22   13   31 1   
    23   14   32 1   
    24   14   33 1   
    25   14   34 1   
    26   15   16 1   
    27   16   17 1   
    28   16   25 1   
    29   17   18 1   
    30   17   22 1   
    31   18   19 1   
    32   18   35 1   
    33   18   36 1   
    34   19   20 1   
    35   19   37 1   
    36   20   21 1   
    37   20   38 1   
    38   21   22 1   
    39   22   23 1   
    40   23   24 1   
    41   23   39 1   
    42   24   40 1   
    43   24   41 1   
@<TRIPOS>SUBSTRUCTURE
     1 2EY         1 TEMP              0 ****  ****    0 ROOT
