@<TRIPOS>MOLECULE
2EZ
   15    15     1     0     0
SMALL
bcc


@<TRIPOS>ATOM
      1 N1          0.2510    0.4950    0.1130 na        1 2EZ     -0.315900
      2 C2          1.5120   -0.1300    0.1320 cc        1 2EZ      0.392800
      3 N3          1.7240   -0.7390    1.3290 nd        1 2EZ     -0.665000
      4 C4          0.5830   -0.5000    2.0890 cd        1 2EZ      0.292200
      5 C5         -0.3400    0.2650    1.3520 cc        1 2EZ     -0.261600
      6 C6          2.4410   -0.1130   -1.0340 c3        1 2EZ     -0.107700
      7 C7          2.7700    1.2900   -1.4790 c3        1 2EZ     -0.096100
      8 HN1        -0.1290    1.0140   -0.6320 hn        1 2EZ      0.297700
      9 H4          0.4870   -0.8820    3.1040 h4        1 2EZ      0.041100
     10 H5         -1.3270    0.6430    1.6080 h4        1 2EZ      0.175000
     11 H61         3.3860   -0.6520   -0.7530 hc        1 2EZ      0.066200
     12 H62         1.9690   -0.6840   -1.8800 hc        1 2EZ      0.066200
     13 H71         1.8610    1.8210   -1.8510 hc        1 2EZ      0.038700
     14 H72         3.5180    1.2570   -2.3080 hc        1 2EZ      0.038700
     15 H73         3.2030    1.8810   -0.6360 hc        1 2EZ      0.038700
@<TRIPOS>BOND
     1    1    2 1   
     2    1    5 1   
     3    1    8 1   
     4    2    3 2   
     5    2    6 1   
     6    3    4 1   
     7    4    5 2   
     8    4    9 1   
     9    5   10 1   
    10    6    7 1   
    11    6   11 1   
    12    6   12 1   
    13    7   13 1   
    14    7   14 1   
    15    7   15 1   
@<TRIPOS>SUBSTRUCTURE
     1 2EZ         1 TEMP              0 ****  ****    0 ROOT
