@<TRIPOS>MOLECULE
2EZ
   15    15     1     0     0
SMALL
bcc


@<TRIPOS>ATOM
      1 N1         -0.7800   -0.5130   -0.5290 na        1 2EZ     -0.315900
      2 C2          0.0400    0.3750    0.1910 cc        1 2EZ      0.392800
      3 N3          0.9670    0.9370   -0.6280 nd        1 2EZ     -0.665000
      4 C4          0.7410    0.4010   -1.8910 cd        1 2EZ      0.292200
      5 C5         -0.3380   -0.5020   -1.8490 cc        1 2EZ     -0.261600
      6 C6         -0.1400    0.6410    1.6470 c3        1 2EZ     -0.107700
      7 C7         -0.0680   -0.6210    2.4700 c3        1 2EZ     -0.096100
      8 HN1        -1.5140   -1.0550   -0.1600 hn        1 2EZ      0.297700
      9 H4          1.3510    0.6860   -2.7470 h4        1 2EZ      0.041100
     10 H5         -0.8000   -1.1070   -2.6260 h4        1 2EZ      0.175000
     11 H61        -1.1320    1.1450    1.8030 hc        1 2EZ      0.066200
     12 H62         0.6570    1.3580    1.9860 hc        1 2EZ      0.066200
     13 H71        -0.1400   -0.3690    3.5560 hc        1 2EZ      0.038700
     14 H72        -0.9050   -1.3170    2.2180 hc        1 2EZ      0.038700
     15 H73         0.8980   -1.1540    2.2940 hc        1 2EZ      0.038700
@<TRIPOS>BOND
     1    1    2 1   
     2    1    5 1   
     3    1    8 1   
     4    2    3 2   
     5    2    6 1   
     6    3    4 1   
     7    4    5 2   
     8    4    9 1   
     9    5   10 1   
    10    6    7 1   
    11    6   11 1   
    12    6   12 1   
    13    7   13 1   
    14    7   14 1   
    15    7   15 1   
@<TRIPOS>SUBSTRUCTURE
     1 2EZ         1 TEMP              0 ****  ****    0 ROOT
