@<TRIPOS>MOLECULE
2EZ
   15    11     1     0     0
SMALL
bcc


@<TRIPOS>ATOM
      1 N1         -1.5070    0.1990    0.0080 n2        1 2EZ     -0.170500
      2 C2         -0.1550    0.2920    0.0250 c1        1 2EZ     -0.053000
      3 N3          0.2430    0.3940    1.3170 n2        1 2EZ     -0.170500
      4 C4         -0.8480    0.3640    2.0870 c1        1 2EZ     -0.172500
      5 C5         -1.9400    0.2420    1.2710 c1        1 2EZ     -0.172500
      6 C6          0.7510    0.3090   -1.1880 c2        1 2EZ     -0.092000
      7 C7          1.7820   -0.7910   -1.0620 c3        1 2EZ     -0.214000
      8 HN1        -2.0290    0.1200   -0.7360 DU        1 2EZ      0.200333
      9 H4         -0.8640    0.4200    3.0620 DU        1 2EZ      0.200333
     10 H5         -2.8710    0.1950    1.5600 DU        1 2EZ      0.200333
     11 H61         1.2030    1.1750   -1.2450 ha        1 2EZ      0.105500
     12 H62         0.2180    0.1650   -1.9950 ha        1 2EZ      0.105500
     13 H71         2.3840   -0.5910   -0.3140 hc        1 2EZ      0.078000
     14 H72         1.3310   -1.6450   -0.8990 hc        1 2EZ      0.078000
     15 H73         2.3010   -0.8490   -1.8920 hc        1 2EZ      0.078000
@<TRIPOS>BOND
     1    1    2 1   
     2    1    5 1   
     3    2    3 1   
     4    3    4 1   
     5    4    5 1   
     6    6    7 1   
     7    6   11 1   
     8    6   12 1   
     9    7   13 1   
    10    7   14 1   
    11    7   15 1   
@<TRIPOS>SUBSTRUCTURE
     1 2EZ         1 TEMP              0 ****  ****    0 ROOT
