@<TRIPOS>MOLECULE
2EZ
   15    15     1     0     0
SMALL
bcc


@<TRIPOS>ATOM
      1 N1          0.2380    0.3320    0.1040 na        1 2EZ     -0.315900
      2 C2          1.5780   -0.0900    0.1870 cc        1 2EZ      0.392800
      3 N3          1.8700   -0.5050    1.4480 nd        1 2EZ     -0.665000
      4 C4          0.7020   -0.3450    2.1860 cd        1 2EZ      0.292200
      5 C5         -0.3210    0.1750    1.3700 cc        1 2EZ     -0.261600
      6 C6          2.5020   -0.0820   -0.9830 c3        1 2EZ     -0.107700
      7 C7          2.6250    1.2890   -1.6020 c3        1 2EZ     -0.096100
      8 HN1        -0.2100    0.6910   -0.6950 hn        1 2EZ      0.297700
      9 H4          0.6560   -0.6060    3.2420 h4        1 2EZ      0.041100
     10 H5         -1.3550    0.4300    1.5880 h4        1 2EZ      0.175000
     11 H61         3.5150   -0.4360   -0.6480 hc        1 2EZ      0.066200
     12 H62         2.1250   -0.8160   -1.7460 hc        1 2EZ      0.066200
     13 H71         1.6490    1.6310   -2.0250 hc        1 2EZ      0.038700
     14 H72         3.3740    1.2640   -2.4300 hc        1 2EZ      0.038700
     15 H73         2.9610    2.0360   -0.8430 hc        1 2EZ      0.038700
@<TRIPOS>BOND
     1    1    2 1   
     2    1    5 1   
     3    1    8 1   
     4    2    3 2   
     5    2    6 1   
     6    3    4 1   
     7    4    5 2   
     8    4    9 1   
     9    5   10 1   
    10    6    7 1   
    11    6   11 1   
    12    6   12 1   
    13    7   13 1   
    14    7   14 1   
    15    7   15 1   
@<TRIPOS>SUBSTRUCTURE
     1 2EZ         1 TEMP              0 ****  ****    0 ROOT
