@<TRIPOS>MOLECULE
2F0
   50    51     1     0     0
SMALL
bcc


@<TRIPOS>ATOM
      1 O1          2.1360    0.8930    0.9260 o         1 2F0     -0.388100
      2 C11         1.6910    0.2300    0.0010 c         1 2F0      0.565700
      3 N3          0.4700   -0.5870    0.3350 n4        1 2F0     -0.765400
      4 C7          2.2400    0.1260   -1.3610 ca        1 2F0     -0.165600
      5 C6          3.6350    0.2660   -1.4520 ca        1 2F0     -0.079000
      6 C8          1.4760   -0.0320   -2.5290 ca        1 2F0      0.040400
      7 CL1        -0.2190   -0.1360   -2.5150 cl        1 2F0     -0.019400
      8 C9          2.1180   -0.0710   -3.7720 ca        1 2F0     -0.080000
      9 C10         3.5000    0.0570   -3.8700 ca        1 2F0     -0.065000
     10 C5          4.2790    0.2360   -2.7070 ca        1 2F0      0.050600
     11 N2          5.6840    0.4130   -2.7400 n         1 2F0     -0.447100
     12 C4          6.4750    0.0060   -3.7960 c         1 2F0      0.650100
     13 O           6.0890   -0.5350   -4.8400 o         1 2F0     -0.483100
     14 N1          7.9680    0.1960   -3.6870 n4        1 2F0     -0.674800
     15 C1          8.4650    1.6380   -3.9890 c3        1 2F0      0.243500
     16 C2          7.7790    2.1600   -5.2530 c3        1 2F0     -0.134100
     17 C3          8.1070    2.5610   -2.8250 c3        1 2F0     -0.134100
     18 C12         9.9530    1.5030   -4.1880 ca        1 2F0     -0.201300
     19 C17        10.4290    0.9110   -5.3690 ca        1 2F0     -0.101000
     20 C16        11.8030    0.7970   -5.6030 ca        1 2F0     -0.089900
     21 C18        12.3180    0.1760   -6.8410 ce        1 2F0      0.375900
     22 N4         11.6760    0.4060   -7.9660 n2        1 2F0     -0.427200
     23 O2         12.1660   -0.1590   -9.0370 oh        1 2F0     -0.327500
     24 C19        13.5570   -0.6460   -6.6880 c3        1 2F0     -0.164400
     25 C15        12.7090    1.2820   -4.6460 ca        1 2F0     -0.059000
     26 C14        12.2360    1.8590   -3.4700 ca        1 2F0     -0.116000
     27 C13        10.8660    1.9650   -3.2320 ca        1 2F0     -0.096000
     28 H1         -0.2430   -0.4750   -0.4130 hn        1 2F0      0.480133
     29 H2          0.7240   -1.5780    0.4050 hn        1 2F0      0.480133
     30 H3          4.2110    0.4160   -0.5200 ha        1 2F0      0.174000
     31 H4          1.5220   -0.1950   -4.6970 ha        1 2F0      0.202000
     32 H5          3.9630    0.0170   -4.8750 ha        1 2F0      0.202000
     33 H6          6.0930    0.8790   -1.9560 hn        1 2F0      0.355500
     34 H7          8.3930   -0.4220   -4.4010 hn        1 2F0      0.471800
     35 H8          6.6960    2.3600   -5.0660 hc        1 2F0      0.080533
     36 H9          8.2770    3.1210   -5.5420 hc        1 2F0      0.080533
     37 H10         7.8690    1.4520   -6.1130 hc        1 2F0      0.080533
     38 H11         8.4050    2.1390   -1.8350 hc        1 2F0      0.080533
     39 H12         7.0160    2.7990   -2.8160 hc        1 2F0      0.080533
     40 H13         8.6570    3.5280   -2.9730 hc        1 2F0      0.080533
     41 H14         9.7260    0.5510   -6.1360 ha        1 2F0      0.148000
     42 H15        11.6110    0.1730   -9.7760 ho        1 2F0      0.455000
     43 H16        14.4580    0.0020   -6.8380 hc        1 2F0      0.068033
     44 H17        13.6070   -1.1040   -5.6710 hc        1 2F0      0.068033
     45 H18        13.5900   -1.4640   -7.4520 hc        1 2F0      0.068033
     46 H19        13.7950    1.2100   -4.8310 ha        1 2F0      0.173000
     47 H20        12.9510    2.2430   -2.7220 ha        1 2F0      0.168000
     48 H21        10.5290    2.4320   -2.2940 ha        1 2F0      0.142000
     49 H33         0.0780   -0.2810    1.2360 hn        1 2F0      0.480133
     50 H121        8.3190   -0.0800   -2.7660 hn        1 2F0      0.471800
@<TRIPOS>BOND
     1    1    2 2   
     2    2    3 1   
     3    2    4 1   
     4    3   28 1   
     5    3   29 1   
     6    3   49 1   
     7    4    5 ar  
     8    4    6 ar  
     9    5   10 ar  
    10    5   30 1   
    11    6    7 1   
    12    6    8 ar  
    13    8    9 ar  
    14    8   31 1   
    15    9   10 ar  
    16    9   32 1   
    17   10   11 1   
    18   11   12 1   
    19   11   33 1   
    20   12   13 2   
    21   12   14 1   
    22   14   15 1   
    23   14   34 1   
    24   14   50 1   
    25   15   16 1   
    26   15   17 1   
    27   15   18 1   
    28   16   35 1   
    29   16   36 1   
    30   16   37 1   
    31   17   38 1   
    32   17   39 1   
    33   17   40 1   
    34   18   19 ar  
    35   18   27 ar  
    36   19   20 ar  
    37   19   41 1   
    38   20   21 1   
    39   20   25 ar  
    40   21   22 2   
    41   21   24 1   
    42   22   23 1   
    43   23   42 1   
    44   24   43 1   
    45   24   44 1   
    46   24   45 1   
    47   25   26 ar  
    48   25   46 1   
    49   26   27 ar  
    50   26   47 1   
    51   27   48 1   
@<TRIPOS>SUBSTRUCTURE
     1 2F0         1 TEMP              0 ****  ****    0 ROOT
