@<TRIPOS>MOLECULE
2F0
   50    51     1     0     0
SMALL
bcc


@<TRIPOS>ATOM
      1 O1          2.3720   -0.6430    0.9830 o         1 2F0     -0.389100
      2 C11         1.7550   -0.2830   -0.0100 c         1 2F0      0.564700
      3 N3          0.3350    0.1460    0.2490 nz        1 2F0     -0.765400
      4 C7          2.2670   -0.1960   -1.3870 ca        1 2F0     -0.164600
      5 C6          3.6470    0.0460   -1.4910 ca        1 2F0     -0.081000
      6 C8          1.5070   -0.4070   -2.5500 ca        1 2F0      0.040400
      7 Cl1        -0.1470   -0.7890   -2.5170 cl        1 2F0     -0.019400
      8 C9          2.1300   -0.3390   -3.8010 ca        1 2F0     -0.080000
      9 C10         3.4910   -0.0780   -3.9130 ca        1 2F0     -0.065000
     10 C5          4.2750    0.1060   -2.7530 ca        1 2F0      0.050600
     11 N2          5.6670    0.3610   -2.7970 ns        1 2F0     -0.446100
     12 C4          6.4660    0.0110   -3.8690 c         1 2F0      0.650100
     13 O           6.0860   -0.4400   -4.9550 o         1 2F0     -0.481100
     14 N1          7.9610    0.1720   -3.7310 ny        1 2F0     -0.674800
     15 C1          8.4820    1.6240   -3.9230 c3        1 2F0      0.243500
     16 C2          7.8050    2.2510   -5.1440 c3        1 2F0     -0.133600
     17 C3          8.1360    2.4620   -2.6930 c3        1 2F0     -0.133600
     18 C12         9.9670    1.4820   -4.1310 ca        1 2F0     -0.201300
     19 C17        10.4360    0.9750   -5.3540 ca        1 2F0     -0.101000
     20 C16        11.8080    0.8570   -5.5950 ca        1 2F0     -0.089900
     21 C18        12.3150    0.3240   -6.8770 ce        1 2F0      0.375900
     22 N4         11.6800    0.6520   -7.9810 n2        1 2F0     -0.427200
     23 O2         12.1620    0.1640   -9.0920 oh        1 2F0     -0.327500
     24 C19        13.5390   -0.5290   -6.7860 c3        1 2F0     -0.164400
     25 C15        12.7200    1.2510   -4.6030 ca        1 2F0     -0.059000
     26 C14        12.2540    1.7440   -3.3860 ca        1 2F0     -0.116000
     27 C13        10.8860    1.8540   -3.1420 ca        1 2F0     -0.096000
     28 H1          0.2660    1.1680    0.1960 hn        1 2F0      0.480133
     29 H2          0.0430   -0.1560    1.1900 hn        1 2F0      0.480133
     30 H3          4.2290    0.1760   -0.5600 ha        1 2F0      0.174000
     31 H4          1.5360   -0.5010   -4.7220 ha        1 2F0      0.202000
     32 H5          3.9380   -0.0330   -4.9250 ha        1 2F0      0.203000
     33 H6          6.0770    0.7480   -1.9720 hn        1 2F0      0.354500
     34 H7          8.3850   -0.3990   -4.4830 hn        1 2F0      0.471800
     35 H8          8.3210    3.2220   -5.3610 hc        1 2F0      0.080200
     36 H9          7.8830    1.6080   -6.0540 hc        1 2F0      0.080200
     37 H10         6.7260    2.4560   -4.9410 hc        1 2F0      0.080200
     38 H11         8.7000    3.4290   -2.7680 hc        1 2F0      0.080200
     39 H12         8.4280    1.9630   -1.7370 hc        1 2F0      0.080200
     40 H13         7.0490    2.7140   -2.6650 hc        1 2F0      0.080200
     41 H14         9.7280    0.6860   -6.1470 ha        1 2F0      0.148000
     42 H15        11.6140    0.5610   -9.8030 ho        1 2F0      0.455000
     43 H16        14.4510    0.1130   -6.8850 hc        1 2F0      0.068033
     44 H17        13.5790   -1.0650   -5.8080 hc        1 2F0      0.068033
     45 H18        13.5590   -1.2850   -7.6120 hc        1 2F0      0.068033
     46 H19        13.8050    1.1750   -4.7920 ha        1 2F0      0.173000
     47 H20        12.9740    2.0560   -2.6100 ha        1 2F0      0.168000
     48 H21        10.5550    2.2520   -2.1710 ha        1 2F0      0.141000
     49 H33        -0.2950   -0.2700   -0.4650 hn        1 2F0      0.480133
     50 H121        8.2970   -0.1750   -2.8280 hn        1 2F0      0.471800
@<TRIPOS>BOND
     1    1    2 2   
     2    2    3 1   
     3    2    4 1   
     4    3   28 1   
     5    3   29 1   
     6    3   49 1   
     7    4    5 ar  
     8    4    6 ar  
     9    5   10 ar  
    10    5   30 1   
    11    6    7 1   
    12    6    8 ar  
    13    8    9 ar  
    14    8   31 1   
    15    9   10 ar  
    16    9   32 1   
    17   10   11 1   
    18   11   12 1   
    19   11   33 1   
    20   12   13 2   
    21   12   14 1   
    22   14   15 1   
    23   14   34 1   
    24   14   50 1   
    25   15   16 1   
    26   15   17 1   
    27   15   18 1   
    28   16   35 1   
    29   16   36 1   
    30   16   37 1   
    31   17   38 1   
    32   17   39 1   
    33   17   40 1   
    34   18   19 ar  
    35   18   27 ar  
    36   19   20 ar  
    37   19   41 1   
    38   20   21 1   
    39   20   25 ar  
    40   21   22 2   
    41   21   24 1   
    42   22   23 1   
    43   23   42 1   
    44   24   43 1   
    45   24   44 1   
    46   24   45 1   
    47   25   26 ar  
    48   25   46 1   
    49   26   27 ar  
    50   26   47 1   
    51   27   48 1   
@<TRIPOS>SUBSTRUCTURE
     1 2F0         1 TEMP              0 ****  ****    0 ROOT
