@<TRIPOS>MOLECULE
2F0
   51    51     1     0     0
SMALL
bcc


@<TRIPOS>ATOM
      1 O1       -331.2800 -206.0450  184.4260 o         1 2F0     -0.116000
      2 C11      -330.6830 -206.4170  185.4230 c2        1 2F0      0.298000
      3 N3       -331.5180 -206.5290  186.6710 n4        1 2F0     -0.145000
      4 C7       -329.2430 -206.7250  185.5220 ca        1 2F0     -0.157000
      5 C6       -328.3990 -205.9080  184.7500 ca        1 2F0     -0.017000
      6 C8       -328.7040 -207.8060  186.2410 ca        1 2F0      0.004000
      7 CL1      -329.6650 -208.8640  187.1430 cl        1 2F0      0.093000
      8 C9       -327.3220 -208.0490  186.1980 ca        1 2F0     -0.089000
      9 C10      -326.4780 -207.2390  185.4460 ca        1 2F0     -0.038000
     10 C5       -327.0180 -206.1630  184.7140 ca        1 2F0     -0.123000
     11 N2       -326.1410 -205.3020  183.9190 n4        1 2F0     -0.061000
     12 C4       -326.5600 -205.2970  182.4130 c2        1 2F0      0.356000
     13 O        -327.5570 -204.6030  182.2050 o         1 2F0     -0.240000
     14 N1       -325.8260 -206.0250  181.5450 n         1 2F0     -0.352000
     15 C1        307.7090  185.1550 -172.4870 c2        1 2F0      0.277000
     16 C2        307.5280  184.3470 -173.7010 c3        1 2F0     -0.282000
     17 C3        308.9590  185.9210 -172.3660 c3        1 2F0     -0.282000
     18 C12       306.7280  185.1940 -171.4800 ca        1 2F0     -0.207000
     19 C17       305.5030  184.4780 -171.6230 ca        1 2F0      0.017000
     20 C16       304.5340  184.5110 -170.6260 ca        1 2F0     -0.055000
     21 C18       303.2590  183.7770 -170.7720 c2        1 2F0     -0.076000
     22 N4        303.2980  182.5780 -171.3080 n2        1 2F0     -0.033000
     23 O2        302.1570  181.9550 -171.4180 oh        1 2F0     -0.222000
     24 C19       302.0430  184.4830 -170.2660 c3        1 2F0     -0.208000
     25 C15       304.7670  185.2560 -169.4550 ca        1 2F0      0.042000
     26 C14       305.9630  185.9660 -169.2940 ca        1 2F0     -0.164000
     27 C13       306.9300  185.9430 -170.2830 ca        1 2F0      0.000000
     28 H1       -332.5140 -206.3880  186.4360 hn        1 2F0      0.280000
     29 H2       -331.3970 -207.4630  187.0990 hn        1 2F0      0.280000
     30 H3       -328.8410 -205.0810  184.1530 ha        1 2F0      0.209000
     31 H4       -326.8940 -208.9010  186.7650 ha        1 2F0      0.216000
     32 H5       -325.3940 -207.4610  185.4420 ha        1 2F0      0.190000
     33 H6       -326.2500 -204.3280  184.2460 hn        1 2F0      0.272000
     34 H7       -325.0060 -206.5300  181.7900 hn        1 2F0      0.295000
     35 H8        308.4440  184.3370 -174.3470 hc        1 2F0      0.152333
     36 H9        306.6770  184.7590 -174.3130 hc        1 2F0      0.152333
     37 H10       307.2710  183.2830 -173.4430 hc        1 2F0      0.152333
     38 H11       309.5840  185.5000 -171.5300 hc        1 2F0      0.152333
     39 H12       308.7530  186.9980 -172.1240 hc        1 2F0      0.152333
     40 H13       309.5710  185.8850 -173.3040 hc        1 2F0      0.152333
     41 H14       305.3200  183.8930 -172.5420 ha        1 2F0      0.171000
     42 H15       302.3810  181.0810 -171.8080 ho        1 2F0      0.257000
     43 H16       301.8610  184.2030 -169.1980 hc        1 2F0      0.108667
     44 H17       301.1400  184.1860 -170.8580 hc        1 2F0      0.108667
     45 H18       302.1670  185.5910 -170.3370 hc        1 2F0      0.108667
     46 H19       304.0000  185.2780 -168.6580 ha        1 2F0      0.181000
     47 H20       306.1310  186.5440 -168.3690 ha        1 2F0      0.181000
     48 H21       307.8690  186.5060 -170.1400 ha        1 2F0      0.162000
     49 H33      -331.2360 -205.8120  187.3500 hn        1 2F0      0.280000
     50 H22      -325.1640 -205.5840  184.0520 hn        1 2F0      0.272000
     51 H121     -326.0850 -205.9710  180.5760 hn        1 2F0      0.295000
@<TRIPOS>BOND
     1    1    2 1   
     2    2    3 1   
     3    2    4 1   
     4    3   28 1   
     5    3   29 1   
     6    3   49 1   
     7    4    5 1   
     8    4    6 1   
     9    5   10 1   
    10    5   30 1   
    11    6    7 1   
    12    6    8 1   
    13    8    9 1   
    14    8   31 1   
    15    9   10 1   
    16    9   32 1   
    17   10   11 1   
    18   11   12 1   
    19   11   33 1   
    20   11   50 1   
    21   12   13 1   
    22   12   14 1   
    23   14   34 1   
    24   14   51 1   
    25   15   16 1   
    26   15   17 1   
    27   15   18 1   
    28   16   35 1   
    29   16   36 1   
    30   16   37 1   
    31   17   38 1   
    32   17   39 1   
    33   17   40 1   
    34   18   19 1   
    35   18   27 1   
    36   19   20 1   
    37   19   41 1   
    38   20   21 1   
    39   20   25 1   
    40   21   22 1   
    41   21   24 1   
    42   22   23 1   
    43   23   42 1   
    44   24   43 1   
    45   24   44 1   
    46   24   45 1   
    47   25   26 1   
    48   25   46 1   
    49   26   27 1   
    50   26   47 1   
    51   27   48 1   
@<TRIPOS>SUBSTRUCTURE
     1 2F0         1 TEMP              0 ****  ****    0 ROOT
