@<TRIPOS>MOLECULE
2F1
   44    45     1     0     0
SMALL
bcc


@<TRIPOS>ATOM
      1 O           0.3190   -0.9270   -1.0940 o         1 2F1     -0.622100
      2 C          -0.1040   -0.0520   -0.3050 c         1 2F1      0.763100
      3 N1          0.7710    0.6200    0.5860 n         1 2F1     -0.468100
      4 C4          2.1720    0.5550    0.5070 ca        1 2F1      0.084600
      5 C5          2.9290    1.6450    1.0060 ca        1 2F1     -0.166500
      6 C6          4.3170    1.5970    1.0140 ca        1 2F1     -0.079000
      7 C9          2.8640   -0.5720    0.0140 ca        1 2F1     -0.166500
      8 C8          4.2540   -0.6010    0.0230 ca        1 2F1     -0.079000
      9 C7          4.9900    0.4760    0.5230 ca        1 2F1     -0.055900
     10 BR1         6.8600    0.4210    0.5330 br        1 2F1     -0.091100
     11 N2         -1.4570    0.3320   -0.2760 n         1 2F1     -0.545900
     12 C12        -2.4880   -0.5090   -0.9050 c3        1 2F1      0.172700
     13 C23        -2.3070   -0.5690   -2.4350 c3        1 2F1     -0.110600
     14 C22        -2.4420   -1.9580   -0.3920 c3        1 2F1     -0.110600
     15 C13        -3.8430    0.1330   -0.6260 ca        1 2F1     -0.105300
     16 C14        -4.0680    1.4450   -1.0670 ca        1 2F1     -0.115000
     17 C15        -5.2970    2.0610   -0.8450 ca        1 2F1     -0.135000
     18 C16        -6.3150    1.3800   -0.1810 ca        1 2F1     -0.113000
     19 C17        -6.1070    0.0690    0.2640 ca        1 2F1     -0.055800
     20 C18        -4.8650   -0.5440    0.0420 ca        1 2F1     -0.109000
     21 C19        -7.1730   -0.6590    0.9590 ce        1 2F1     -0.065400
     22 C20        -7.3780   -1.9690    0.7680 c2        1 2F1     -0.211000
     23 C21        -8.0250    0.1350    1.8810 c3        1 2F1     -0.059900
     24 H1          0.4230    1.4380    1.0380 hn        1 2F1      0.307500
     25 H2          2.4270    2.5430    1.3980 ha        1 2F1      0.155000
     26 H3          4.8810    2.4560    1.4110 ha        1 2F1      0.147000
     27 H4          2.3110   -1.4350   -0.3920 ha        1 2F1      0.155000
     28 H5          4.7690   -1.4930   -0.3700 ha        1 2F1      0.147000
     29 H6         -1.7800    0.8120    0.5350 hn        1 2F1      0.298500
     30 H7         -2.2950    0.4550   -2.8790 hc        1 2F1      0.052200
     31 H8         -1.3500   -1.0850   -2.6900 hc        1 2F1      0.052200
     32 H9         -3.1600   -1.1400   -2.8720 hc        1 2F1      0.052200
     33 H10        -3.2410   -2.5540   -0.8920 hc        1 2F1      0.052200
     34 H11        -1.4520   -2.4150   -0.6410 hc        1 2F1      0.052200
     35 H12        -2.5880   -2.0020    0.7130 hc        1 2F1      0.052200
     36 H13        -3.2720    1.9920   -1.5950 ha        1 2F1      0.142000
     37 H14        -5.4660    3.0890   -1.1970 ha        1 2F1      0.134000
     38 H15        -7.2850    1.8710   -0.0100 ha        1 2F1      0.136000
     39 H16        -4.7180   -1.5720    0.4110 ha        1 2F1      0.141000
     40 H17        -6.7720   -2.5690    0.0770 ha        1 2F1      0.116500
     41 H18        -8.1750   -2.5160    1.2890 ha        1 2F1      0.116500
     42 H19        -8.7690    0.7330    1.2960 hc        1 2F1      0.044700
     43 H20        -8.5850   -0.5290    2.5830 hc        1 2F1      0.044700
     44 H21        -7.4010    0.8420    2.4810 hc        1 2F1      0.044700
@<TRIPOS>BOND
     1    1    2 2   
     2    2    3 1   
     3    2   11 1   
     4    3    4 1   
     5    3   24 1   
     6    4    5 ar  
     7    4    7 ar  
     8    5    6 ar  
     9    5   25 1   
    10    6    9 ar  
    11    6   26 1   
    12    7    8 ar  
    13    7   27 1   
    14    8    9 ar  
    15    8   28 1   
    16    9   10 1   
    17   11   12 1   
    18   11   29 1   
    19   12   13 1   
    20   12   14 1   
    21   12   15 1   
    22   13   30 1   
    23   13   31 1   
    24   13   32 1   
    25   14   33 1   
    26   14   34 1   
    27   14   35 1   
    28   15   16 ar  
    29   15   20 ar  
    30   16   17 ar  
    31   16   36 1   
    32   17   18 ar  
    33   17   37 1   
    34   18   19 ar  
    35   18   38 1   
    36   19   20 ar  
    37   19   21 1   
    38   20   39 1   
    39   21   22 2   
    40   21   23 1   
    41   22   40 1   
    42   22   41 1   
    43   23   42 1   
    44   23   43 1   
    45   23   44 1   
@<TRIPOS>SUBSTRUCTURE
     1 2F1         1 TEMP              0 ****  ****    0 ROOT
