@<TRIPOS>MOLECULE
2F1
   46    47     1     0     0
SMALL
bcc


@<TRIPOS>ATOM
      1 O           0.0520    1.6350   -0.2190 o         1 2F1     -0.296100
      2 C           1.1580    1.1230   -0.2570 c         1 2F1      0.468100
      3 N1          1.8410    0.6660    1.0120 n4        1 2F1     -0.496200
      4 C4          0.9070    0.5230    2.1360 ca        1 2F1     -0.100400
      5 C5          0.3220   -0.7330    2.3960 ca        1 2F1     -0.082500
      6 C6         -0.5140   -0.8720    3.4970 ca        1 2F1     -0.079000
      7 C9          0.6320    1.6330    2.9590 ca        1 2F1     -0.082500
      8 C8         -0.2090    1.4680    4.0540 ca        1 2F1     -0.079000
      9 C7         -0.7900    0.2220    4.3340 ca        1 2F1      0.041100
     10 BR1        -1.9170    0.0190    5.7980 br        1 2F1      0.063900
     11 N2          1.8660    0.9250   -1.5380 n4        1 2F1     -0.696800
     12 C12         1.5540   -0.4720   -2.2710 c3        1 2F1      0.283500
     13 C23         1.9730   -1.6020   -1.3430 c3        1 2F1     -0.150100
     14 C22         0.0540   -0.5530   -2.5220 c3        1 2F1     -0.150100
     15 C13         2.3620   -0.3740   -3.5210 ca        1 2F1     -0.221300
     16 C14         3.5710   -1.0730   -3.6630 ca        1 2F1     -0.096000
     17 C15         4.2860   -0.9930   -4.8560 ca        1 2F1     -0.112000
     18 C16         3.8200   -0.2080   -5.9100 ca        1 2F1     -0.040000
     19 C17         2.6150    0.5080   -5.7830 ca        1 2F1     -0.011800
     20 C18         1.8980    0.4210   -4.5860 ca        1 2F1     -0.113000
     21 C19         2.1240    1.3310   -6.8900 ce        1 2F1     -0.106400
     22 C20         0.8200    1.4070   -7.1910 c2        1 2F1     -0.161000
     23 C21         3.1530    2.0520   -7.6840 c3        1 2F1     -0.067900
     24 H1          2.5500    1.3720    1.2710 hn        1 2F1      0.486800
     25 H2          0.5210   -1.6110    1.7600 ha        1 2F1      0.160500
     26 H3         -0.9630   -1.8620    3.7080 ha        1 2F1      0.200500
     27 H4          1.0690    2.6270    2.7640 ha        1 2F1      0.160500
     28 H5         -0.4160    2.3400    4.7060 ha        1 2F1      0.200500
     29 H6          2.8850    1.0010   -1.4470 hn        1 2F1      0.484300
     30 H7          1.9350   -2.5590   -1.9360 hc        1 2F1      0.089533
     31 H8          3.0160   -1.4920   -0.9580 hc        1 2F1      0.089533
     32 H9          1.2590   -1.7170   -0.4910 hc        1 2F1      0.089533
     33 H10        -0.5170   -0.6630   -1.5680 hc        1 2F1      0.089533
     34 H11        -0.1340   -1.4640   -3.1530 hc        1 2F1      0.089533
     35 H12        -0.3460    0.3290   -3.0790 hc        1 2F1      0.089533
     36 H13         3.9620   -1.7140   -2.8570 ha        1 2F1      0.142000
     37 H14         5.2250   -1.5620   -4.9700 ha        1 2F1      0.177000
     38 H15         4.3920   -0.1510   -6.8530 ha        1 2F1      0.183000
     39 H16         0.9490    0.9740   -4.5050 ha        1 2F1      0.140000
     40 H17         0.0460    0.8540   -6.6440 ha        1 2F1      0.131500
     41 H18         0.4540    2.0140   -8.0320 ha        1 2F1      0.131500
     42 H19         3.6140    1.3610   -8.4350 hc        1 2F1      0.060033
     43 H20         3.9640    2.4490   -7.0250 hc        1 2F1      0.060033
     44 H21         2.6980    2.9100   -8.2390 hc        1 2F1      0.060033
     45 H121        2.3040   -0.2450    0.8550 hn        1 2F1      0.486800
     46 H22         1.5420    1.6580   -2.1960 hn        1 2F1      0.484300
@<TRIPOS>BOND
     1    1    2 2   
     2    2    3 1   
     3    2   11 1   
     4    3    4 1   
     5    3   24 1   
     6    3   45 1   
     7    4    5 ar  
     8    4    7 ar  
     9    5    6 ar  
    10    5   25 1   
    11    6    9 ar  
    12    6   26 1   
    13    7    8 ar  
    14    7   27 1   
    15    8    9 ar  
    16    8   28 1   
    17    9   10 1   
    18   11   12 1   
    19   11   29 1   
    20   11   46 1   
    21   12   13 1   
    22   12   14 1   
    23   12   15 1   
    24   13   30 1   
    25   13   31 1   
    26   13   32 1   
    27   14   33 1   
    28   14   34 1   
    29   14   35 1   
    30   15   16 ar  
    31   15   20 ar  
    32   16   17 ar  
    33   16   36 1   
    34   17   18 ar  
    35   17   37 1   
    36   18   19 ar  
    37   18   38 1   
    38   19   20 ar  
    39   19   21 1   
    40   20   39 1   
    41   21   22 2   
    42   21   23 1   
    43   22   40 1   
    44   22   41 1   
    45   23   42 1   
    46   23   43 1   
    47   23   44 1   
@<TRIPOS>SUBSTRUCTURE
     1 2F1         1 TEMP              0 ****  ****    0 ROOT
