@<TRIPOS>MOLECULE
2F1
   45    46     1     0     0
SMALL
bcc


@<TRIPOS>ATOM
      1 O           0.5770    1.9010   -0.4120 o         1 2F1     -0.498100
      2 C           1.2560    0.8780   -0.2610 c         1 2F1      0.644100
      3 N1          1.3450    0.0580    0.8290 ns        1 2F1     -0.420100
      4 C4          0.7510    0.3560    2.0870 ca        1 2F1      0.016600
      5 C5          1.2900   -0.2690    3.2340 ca        1 2F1     -0.137000
      6 C6          0.7210   -0.0370    4.4800 ca        1 2F1     -0.076500
      7 C9         -0.3550    1.2130    2.2200 ca        1 2F1     -0.137000
      8 C8         -0.9090    1.4370    3.4790 ca        1 2F1     -0.076500
      9 C7         -0.3800    0.8170    4.6130 ca        1 2F1     -0.019900
     10 Br1        -1.1320    1.1240    6.2930 br        1 2F1     -0.029100
     11 N2          2.0850    0.5150   -1.4910 ny        1 2F1     -0.678800
     12 C12         1.4930   -0.6190   -2.3490 c3        1 2F1      0.230500
     13 C23         1.6840   -1.9650   -1.6480 c3        1 2F1     -0.128600
     14 C22        -0.0100   -0.3920   -2.5420 c3        1 2F1     -0.128600
     15 C13         2.2240   -0.5520   -3.6700 ca        1 2F1     -0.180300
     16 C14         3.1910   -1.5000   -4.0210 ca        1 2F1     -0.106000
     17 C15         3.8390   -1.4090   -5.2520 ca        1 2F1     -0.117000
     18 C16         3.5430   -0.3720   -6.1330 ca        1 2F1     -0.077000
     19 C17         2.5800    0.5910   -5.7930 ca        1 2F1     -0.023800
     20 C18         1.9290    0.4930   -4.5570 ca        1 2F1     -0.122000
     21 C19         2.2620    1.6840   -6.7150 ce        1 2F1     -0.090400
     22 C20         1.0110    2.1390   -6.8680 c2        1 2F1     -0.181000
     23 C21         3.3980    2.2470   -7.4890 c3        1 2F1     -0.063900
     24 H1          1.9400   -0.7450    0.8080 hn        1 2F1      0.344500
     25 H2          2.1570   -0.9450    3.1620 ha        1 2F1      0.156500
     26 H3          1.1520   -0.5340    5.3670 ha        1 2F1      0.169500
     27 H4         -0.7950    1.7230    1.3470 ha        1 2F1      0.156500
     28 H5         -1.7770    2.1150    3.5650 ha        1 2F1      0.169500
     29 H6          2.1080    1.3630   -2.0790 hn        1 2F1      0.461800
     30 H7          1.4490   -2.7760   -2.3860 hc        1 2F1      0.077700
     31 H8          2.7300   -2.1130   -1.2860 hc        1 2F1      0.077700
     32 H9          0.9760   -2.0810   -0.7920 hc        1 2F1      0.077700
     33 H10        -0.3770   -1.1290   -3.2990 hc        1 2F1      0.077700
     34 H11        -0.5630   -0.5560   -1.5840 hc        1 2F1      0.077700
     35 H12        -0.2400    0.6370   -2.9100 hc        1 2F1      0.077700
     36 H13         3.4490   -2.3320   -3.3490 ha        1 2F1      0.141000
     37 H14         4.5910   -2.1660   -5.5290 ha        1 2F1      0.159000
     38 H15         4.0610   -0.3070   -7.1050 ha        1 2F1      0.163000
     39 H16         1.1690    1.2490   -4.3020 ha        1 2F1      0.140000
     40 H17         0.1530    1.7180   -6.3280 ha        1 2F1      0.125500
     41 H18         0.7710    2.9550   -7.5640 ha        1 2F1      0.125500
     42 H19         3.6400    1.5810   -8.3560 hc        1 2F1      0.053367
     43 H20         3.1460    3.2600   -7.8900 hc        1 2F1      0.053367
     44 H21         4.3100    2.3370   -6.8490 hc        1 2F1      0.053367
     45 H22         3.0430    0.2660   -1.2370 hn        1 2F1      0.461800
@<TRIPOS>BOND
     1    1    2 2   
     2    2    3 1   
     3    2   11 1   
     4    3    4 1   
     5    3   24 1   
     6    4    5 ar  
     7    4    7 ar  
     8    5    6 ar  
     9    5   25 1   
    10    6    9 ar  
    11    6   26 1   
    12    7    8 ar  
    13    7   27 1   
    14    8    9 ar  
    15    8   28 1   
    16    9   10 1   
    17   11   12 1   
    18   11   29 1   
    19   11   45 1   
    20   12   13 1   
    21   12   14 1   
    22   12   15 1   
    23   13   30 1   
    24   13   31 1   
    25   13   32 1   
    26   14   33 1   
    27   14   34 1   
    28   14   35 1   
    29   15   16 ar  
    30   15   20 ar  
    31   16   17 ar  
    32   16   36 1   
    33   17   18 ar  
    34   17   37 1   
    35   18   19 ar  
    36   18   38 1   
    37   19   20 ar  
    38   19   21 1   
    39   20   39 1   
    40   21   22 2   
    41   21   23 1   
    42   22   40 1   
    43   22   41 1   
    44   23   42 1   
    45   23   43 1   
    46   23   44 1   
@<TRIPOS>SUBSTRUCTURE
     1 2F1         1 TEMP              0 ****  ****    0 ROOT
