@<TRIPOS>MOLECULE
2F1
   44    38     1     0     0
SMALL
bcc


@<TRIPOS>ATOM
      1 O          -1.6500   -0.3290    1.9710 o         1 2F1     -0.385000
      2 C          -0.4520   -0.5240    1.9380 c1        1 2F1      0.392000
      3 N1          0.2290   -0.9570    3.1080 n3        1 2F1     -0.322000
      4 C4         -0.4920   -1.1620    4.3140 c2        1 2F1      0.092000
      5 C5         -0.5190   -0.1690    5.2820 c2        1 2F1     -0.188000
      6 C6         -1.1710   -0.3910    6.4850 c1        1 2F1     -0.078000
      7 C9         -1.1170   -2.3760    4.5500 c1        1 2F1     -0.145000
      8 C8         -1.7690   -2.5990    5.7540 c1        1 2F1     -0.080000
      9 C7         -1.7960   -1.6060    6.7210 c1        1 2F1     -0.196000
     10 BR1        -2.7050   -1.9080    8.3750 br        1 2F1      0.049000
     11 N2          0.2830   -0.2380    0.7550 n2        1 2F1     -0.362000
     12 C12        -0.4030   -0.0070   -0.4680 c3        1 2F1      0.133000
     13 C23        -1.3960   -1.1240   -0.7080 c3        1 2F1     -0.229000
     14 C22        -1.1380    1.3140   -0.3930 c3        1 2F1     -0.229000
     15 C13         0.5960    0.0340   -1.6080 c1        1 2F1     -0.089000
     16 C14         1.6300   -0.8890   -1.6570 c1        1 2F1     -0.132000
     17 C15         2.5290   -0.8670   -2.7120 c1        1 2F1     -0.132000
     18 C16         2.3940    0.0770   -3.7190 c1        1 2F1     -0.114000
     19 C17         1.3600    0.9990   -3.6700 c1        1 2F1     -0.040000
     20 C18         0.4620    0.9780   -2.6150 c1        1 2F1     -0.102000
     21 C19         1.2160    2.0330   -4.7660 c2        1 2F1     -0.074000
     22 C20         1.6820    3.2830   -4.5790 c1        1 2F1     -0.210000
     23 C21         0.5480    1.6620   -6.0720 c3        1 2F1     -0.182000
     24 H1          1.1290   -1.1000    3.0850 hn        1 2F1      0.221000
     25 H2         -0.0790    0.6860    5.1160 ha        1 2F1      0.133000
     26 H3         -1.1900    0.3070    7.1660 ha        1 2F1      0.145000
     27 H4         -1.0990   -3.0750    3.8690 ha        1 2F1      0.176000
     28 H5         -2.2090   -3.4540    5.9200 ha        1 2F1      0.149000
     29 H6          1.1910   -0.1690    0.7880 hn        1 2F1      0.215000
     30 H7         -2.1950   -0.9740   -0.1600 hc        1 2F1      0.091833
     31 H8         -1.6470   -1.1390   -1.6550 hc        1 2F1      0.091833
     32 H9         -0.9890   -1.9810   -0.4630 hc        1 2F1      0.091833
     33 H10        -1.8280    1.2650    0.3010 hc        1 2F1      0.091833
     34 H11        -1.5580    1.5030   -1.2580 hc        1 2F1      0.091833
     35 H12        -0.5040    2.0280   -0.1740 hc        1 2F1      0.091833
     36 H13         1.7250   -1.5530   -0.9480 ha        1 2F1      0.132500
     37 H14         3.2570   -1.5170   -2.7460 ha        1 2F1      0.132500
     38 H15         3.0270    0.0920   -4.4620 ha        1 2F1      0.137000
     39 H16        -0.2660    1.6270   -2.5800 ha        1 2F1      0.145000
     40 H17         2.1140    3.5230   -3.7350 DU        1 2F1      0.117000
     41 H18         1.5890    3.9510   -5.2880 ha        1 2F1      0.117000
     42 H19         0.4600    0.6870   -6.1290 hc        1 2F1      0.084000
     43 H20         1.0920    1.9850   -6.8210 hc        1 2F1      0.084000
     44 H21        -0.3410    2.0730   -6.1130 hc        1 2F1      0.084000
@<TRIPOS>BOND
     1    1    2 1   
     2    2    3 1   
     3    3    4 1   
     4    3   24 1   
     5    4    5 1   
     6    4    7 1   
     7    5    6 1   
     8    5   25 1   
     9    6   26 1   
    10    7   27 1   
    11    8    9 1   
    12    8   28 1   
    13    9   10 1   
    14   11   12 1   
    15   11   29 1   
    16   12   13 1   
    17   12   14 1   
    18   12   15 1   
    19   13   30 1   
    20   13   31 1   
    21   13   32 1   
    22   14   33 1   
    23   14   34 1   
    24   14   35 1   
    25   15   20 1   
    26   16   17 1   
    27   16   36 1   
    28   17   37 1   
    29   18   19 1   
    30   18   38 1   
    31   19   21 1   
    32   20   39 1   
    33   21   22 1   
    34   21   23 1   
    35   22   41 1   
    36   23   42 1   
    37   23   43 1   
    38   23   44 1   
@<TRIPOS>SUBSTRUCTURE
     1 2F1         1 TEMP              0 ****  ****    0 ROOT
