@<TRIPOS>MOLECULE
2F1
   45    46     1     0     0
SMALL
bcc


@<TRIPOS>ATOM
      1 O           0.5970    1.8950   -0.3920 o         1 2F1     -0.498100
      2 C           1.2620    0.8620   -0.2540 c         1 2F1      0.644100
      3 N1          1.3430    0.0270    0.8270 n         1 2F1     -0.420100
      4 C4          0.7540    0.3180    2.0890 ca        1 2F1      0.016600
      5 C5          1.2870   -0.3270    3.2270 ca        1 2F1     -0.137000
      6 C6          0.7220   -0.1020    4.4770 ca        1 2F1     -0.076500
      7 C9         -0.3410    1.1890    2.2330 ca        1 2F1     -0.137000
      8 C8         -0.8900    1.4050    3.4960 ca        1 2F1     -0.076500
      9 C7         -0.3670    0.7650    4.6220 ca        1 2F1     -0.019900
     10 BR1        -1.1130    1.0620    6.3060 br        1 2F1     -0.028100
     11 N2          2.0860    0.5020   -1.4890 n4        1 2F1     -0.678800
     12 C12         1.4780   -0.6130   -2.3600 c3        1 2F1      0.230500
     13 C23         1.6490   -1.9700   -1.6740 c3        1 2F1     -0.128600
     14 C22        -0.0220   -0.3620   -2.5500 c3        1 2F1     -0.128600
     15 C13         2.2110   -0.5410   -3.6790 ca        1 2F1     -0.180300
     16 C14         3.1640   -1.4990   -4.0400 ca        1 2F1     -0.106000
     17 C15         3.8150   -1.4030   -5.2700 ca        1 2F1     -0.117000
     18 C16         3.5340   -0.3530   -6.1400 ca        1 2F1     -0.077000
     19 C17         2.5840    0.6190   -5.7900 ca        1 2F1     -0.023800
     20 C18         1.9310    0.5170   -4.5560 ca        1 2F1     -0.122000
     21 C19         2.2820    1.7260   -6.7000 ce        1 2F1     -0.090400
     22 C20         1.0370    2.2010   -6.8490 c2        1 2F1     -0.181000
     23 C21         3.4260    2.2820   -7.4680 c3        1 2F1     -0.063900
     24 H1          1.9270   -0.7830    0.7950 hn        1 2F1      0.344500
     25 H2          2.1440   -1.0140    3.1460 ha        1 2F1      0.156500
     26 H3          1.1480   -0.6150    5.3570 ha        1 2F1      0.169500
     27 H4         -0.7750    1.7150    1.3670 ha        1 2F1      0.156500
     28 H5         -1.7480    2.0930    3.5910 ha        1 2F1      0.169500
     29 H6          3.0400    0.2370   -1.2390 hn        1 2F1      0.461800
     30 H7          1.4030   -2.7680   -2.4210 hc        1 2F1      0.077700
     31 H8          2.6920   -2.1370   -1.3120 hc        1 2F1      0.077700
     32 H9          0.9380   -2.0850   -0.8200 hc        1 2F1      0.077700
     33 H10        -0.3990   -1.0860   -3.3160 hc        1 2F1      0.077700
     34 H11        -0.5770   -0.5290   -1.5950 hc        1 2F1      0.077700
     35 H12        -0.2370    0.6740   -2.9080 hc        1 2F1      0.077700
     36 H13         3.4110   -2.3420   -3.3770 ha        1 2F1      0.141000
     37 H14         4.5560   -2.1680   -5.5550 ha        1 2F1      0.159000
     38 H15         4.0530   -0.2850   -7.1110 ha        1 2F1      0.163000
     39 H16         1.1810    1.2800   -4.2930 ha        1 2F1      0.140000
     40 H17         0.1730    1.7860   -6.3130 ha        1 2F1      0.125500
     41 H18         0.8090    3.0270   -7.5360 ha        1 2F1      0.125500
     42 H19         4.3390    2.3520   -6.8270 hc        1 2F1      0.053367
     43 H20         3.1880    3.3020   -7.8570 hc        1 2F1      0.053367
     44 H21         3.6590    1.6210   -8.3410 hc        1 2F1      0.053367
     45 H22         2.1200    1.3570   -2.0670 hn        1 2F1      0.461800
@<TRIPOS>BOND
     1    1    2 2   
     2    2    3 1   
     3    2   11 1   
     4    3    4 1   
     5    3   24 1   
     6    4    5 ar  
     7    4    7 ar  
     8    5    6 ar  
     9    5   25 1   
    10    6    9 ar  
    11    6   26 1   
    12    7    8 ar  
    13    7   27 1   
    14    8    9 ar  
    15    8   28 1   
    16    9   10 1   
    17   11   12 1   
    18   11   29 1   
    19   11   45 1   
    20   12   13 1   
    21   12   14 1   
    22   12   15 1   
    23   13   30 1   
    24   13   31 1   
    25   13   32 1   
    26   14   33 1   
    27   14   34 1   
    28   14   35 1   
    29   15   16 ar  
    30   15   20 ar  
    31   16   17 ar  
    32   16   36 1   
    33   17   18 ar  
    34   17   37 1   
    35   18   19 ar  
    36   18   38 1   
    37   19   20 ar  
    38   19   21 1   
    39   20   39 1   
    40   21   22 2   
    41   21   23 1   
    42   22   40 1   
    43   22   41 1   
    44   23   42 1   
    45   23   43 1   
    46   23   44 1   
@<TRIPOS>SUBSTRUCTURE
     1 2F1         1 TEMP              0 ****  ****    0 ROOT
