@<TRIPOS>MOLECULE
2F2
    9     8     1     0     0
SMALL
bcc


@<TRIPOS>ATOM
      1 C1          0.0070    0.0000    0.0210 c3        1 2F2      0.113700
      2 O           1.4250    0.0000    0.0060 os        1 2F2     -0.419600
      3 C           1.9900    0.0000    1.3060 c3        1 2F2      0.113700
      4 H1         -0.3810   -0.9150    0.5330 h1        1 2F2      0.032033
      5 H2         -0.2850   -0.0000   -1.0590 h1        1 2F2      0.032033
      6 H3         -0.3810    0.9150    0.5330 h1        1 2F2      0.032033
      7 H4          1.6820   -0.9150    1.8700 h1        1 2F2      0.032033
      8 H5          1.6820    0.9150    1.8700 h1        1 2F2      0.032033
      9 H6          3.0950   -0.0000    1.1320 h1        1 2F2      0.032033
@<TRIPOS>BOND
     1    1    2 1   
     2    1    4 1   
     3    1    5 1   
     4    1    6 1   
     5    2    3 1   
     6    3    7 1   
     7    3    8 1   
     8    3    9 1   
@<TRIPOS>SUBSTRUCTURE
     1 2F2         1 TEMP              0 ****  ****    0 ROOT
