@<TRIPOS>MOLECULE
2F3
   49    37     1     0     0
SMALL
bcc


@<TRIPOS>ATOM
      1 C1         -2.3230    2.2330    3.3900 c1        1 2F3      0.012000
      2 C2         -0.9480    2.3320    3.3890 c1        1 2F3     -0.086000
      3 C3         -0.2520    2.5080    4.6060 c1        1 2F3     -0.066500
      4 C7         -0.9230    2.0430    1.0120 c1        1 2F3     -0.144000
      5 C8         -0.2460    2.2360    2.1900 c1        1 2F3     -0.066500
      6 C9         -2.3150    1.9420    1.0160 c1        1 2F3      0.034000
      7 C10         1.9410   -2.1820   -1.8250 c1        1 2F3     -0.058000
      8 C11        -0.3730   -2.3730   -2.2670 c1        1 2F3     -0.118500
      9 C12        -1.7210   -2.4380   -2.6120 c1        1 2F3     -0.145000
     10 C13         0.1480   -1.2000   -1.6820 c1        1 2F3     -0.020000
     11 C14        -0.6750   -0.1210   -1.4520 c1        1 2F3     -0.020000
     12 C15         1.3790    0.4300   -0.7560 c1        1 2F3      0.009000
     13 C16         1.4230   -0.8640   -1.2520 c1        1 2F3     -0.140000
     14 C19         2.6180    1.2490   -0.4260 c1        1 2F3      0.348500
     15 C20        -0.4160    2.1670   -0.4330 c3        1 2F3      0.016000
     16 C21         2.7350   -1.9920   -3.2890 c1        1 2F3      0.348500
     17 C22         4.6880   -1.4980   -1.9330 c1        1 2F3     -0.133750
     18 C24         2.5910   -2.7280   -0.9860 c1        1 2F3     -0.069000
     19 C4         -0.9550    2.5820    5.8070 c1        1 2F3     -0.133750
     20 C5         -2.3470    2.4810    5.8090 c1        1 2F3     -0.133750
     21 C6         -3.0350    2.3070    4.6090 c1        1 2F3     -0.112000
     22 N1         -3.0060    2.0370    2.1960 n1        1 2F3     -0.153000
     23 N2          0.0900    0.8890   -0.8780 n2        1 2F3     -0.154000
     24 C17        -2.5540   -1.3470   -2.3790 c1        1 2F3      0.072000
     25 C18        -2.0400   -0.1890   -1.8020 c1        1 2F3     -0.118500
     26 O1          3.0370    2.1170   -1.2410 os        1 2F3     -0.517000
     27 N3          3.8330   -1.2760   -3.2090 n1        1 2F3     -0.294000
     28 C23         3.9710   -2.0360   -0.7190 c1        1 2F3     -0.133750
     29 O2          3.0030   -3.0500   -3.8250 o         1 2F3     -0.477000
     30 O3          3.2300    1.0570    0.6620 o         1 2F3     -0.477000
     31 C25        -2.4010   -3.7220   -3.0860 c3        1 2F3     -0.159000
     32 F1         -3.8400   -1.2270   -2.7490 f         1 2F3     -0.131000
     33 H1          0.7260    2.5790    4.6050 ha        1 2F3      0.187000
     34 H2          0.7340    2.3070    2.1880 ha        1 2F3      0.187000
     35 H4          0.1990   -3.1590   -2.3780 ha        1 2F3      0.145500
     36 H5         -1.1560    2.4480   -1.0160 h1        1 2F3      0.131000
     37 H6          0.3030    2.8360   -0.4710 h1        1 2F3      0.131000
     38 H7          5.5380   -1.0260   -1.8180 ha        1 2F3      0.129500
     39 H8          2.1100   -3.1080   -0.2190 ha        1 2F3      0.200000
     40 H9         -0.4700    2.7040    6.6540 ha        1 2F3      0.129500
     41 H10        -2.8410    2.5260    6.6560 ha        1 2F3      0.129500
     42 H11        -4.0130    2.2370    4.6100 ha        1 2F3      0.141000
     43 H12        -2.6120    0.5970   -1.6920 ha        1 2F3      0.145500
     44 H14         4.2900   -1.0350   -3.9700 hn        1 2F3      0.228000
     45 H15         4.4760   -2.2460    0.0960 ha        1 2F3      0.129500
     46 H16        -2.9570   -4.0850   -2.3620 hc        1 2F3      0.073000
     47 H17        -1.7170   -4.3820   -3.3360 hc        1 2F3      0.073000
     48 H18        -2.9650   -3.5250   -3.8660 hc        1 2F3      0.073000
     49 CL1        -3.9620    1.9650    0.4310 cl        1 2F3     -0.011000
@<TRIPOS>BOND
     1    1   21 1   
     2    1   22 1   
     3    2    3 1   
     4    2    5 1   
     5    3   33 1   
     6    4    6 1   
     7    4   15 1   
     8    5   34 1   
     9    6   49 1   
    10    7   13 1   
    11    7   18 1   
    12    8   10 1   
    13    8   35 1   
    14    9   24 1   
    15    9   31 1   
    16   11   25 1   
    17   12   13 1   
    18   12   23 1   
    19   14   30 1   
    20   15   23 1   
    21   15   36 1   
    22   15   37 1   
    23   16   29 1   
    24   17   28 1   
    25   17   38 1   
    26   18   39 1   
    27   19   20 1   
    28   19   40 1   
    29   20   41 1   
    30   21   42 1   
    31   24   32 1   
    32   25   43 1   
    33   27   44 1   
    34   28   45 1   
    35   31   46 1   
    36   31   47 1   
    37   31   48 1   
@<TRIPOS>SUBSTRUCTURE
     1 2F3         1 TEMP              0 ****  ****    0 ROOT
