@<TRIPOS>MOLECULE
2F3
   49    52     1     0     0
SMALL
bcc


@<TRIPOS>ATOM
      1 C1          0.0680    0.2110    0.0440 c2        1 2F3     -0.044000
      2 C2          1.4430   -0.1590    0.0210 c2        1 2F3     -0.154000
      3 C3          2.1670   -0.4270    1.2920 c3        1 2F3     -0.045000
      4 C7          1.3950    0.0120   -2.3890 c2        1 2F3     -0.144000
      5 C8          2.0990   -0.2450   -1.2040 c2        1 2F3     -0.045000
      6 C9          0.0370    0.3800   -2.2710 c2        1 2F3      0.019000
      7 C10         5.3820   -3.8740   -4.2370 cx        1 2F3     -0.052000
      8 C11         2.3640   -4.7820   -5.1300 ca        1 2F3     -0.081000
      9 C12         1.0170   -4.9200   -5.4490 ca        1 2F3     -0.136000
     10 C13         2.8450   -3.5710   -4.6380 ca        1 2F3     -0.059000
     11 C14         1.9340   -2.4570   -4.4760 ca        1 2F3      0.006000
     12 C15         4.0130   -1.7450   -3.8690 c2        1 2F3      0.008000
     13 C16         4.1510   -3.0940   -4.2340 c2        1 2F3     -0.184000
     14 C19         5.0990   -0.7700   -3.4140 c2        1 2F3      0.378000
     15 C20         2.1350   -0.0650   -3.6950 c3        1 2F3      0.026000
     16 C21         6.3320   -3.4450   -5.3160 c2        1 2F3      0.212000
     17 C22         7.3830   -4.3220   -2.6720 c1        1 2F3     -0.092000
     18 C24         5.3500   -5.3200   -3.8100 cx        1 2F3     -0.181000
     19 C4          1.2440   -0.2850    2.4570 c2        1 2F3     -0.405000
     20 C5          0.8870    0.8540    3.0290 c1        1 2F3      0.183000
     21 C6         -0.6420    0.1600    1.3020 c1        1 2F3     -0.054000
     22 N1         -0.6170    0.5050   -1.0940 n2        1 2F3     -0.159000
     23 N2          2.6710   -1.3580   -4.0140 na        1 2F3     -0.151000
     24 C17         0.1350   -3.8190   -5.2740 ca        1 2F3      0.073000
     25 C18         0.5780   -2.5820   -4.7930 ca        1 2F3     -0.170000
     26 O1          4.9390   -0.2010   -2.3000 o         1 2F3     -0.536500
     27 N3          8.5260   -4.3520   -2.4580 n1        1 2F3     -0.073000
     28 C23         5.9730   -4.3010   -2.8940 cx        1 2F3     -0.077000
     29 O2          6.8350   -4.2410   -6.1120 o         1 2F3     -0.326000
     30 O3          6.0720   -0.5950   -4.1890 o         1 2F3     -0.536500
     31 F1         -1.1800   -3.9680   -5.5890 f         1 2F3     -0.125000
     32 H1          3.0350    0.2810    1.3900 hc        1 2F3      0.115000
     33 H2          3.1810   -0.4980   -1.2630 ha        1 2F3      0.222000
     34 H4          3.0550   -5.6250   -5.2780 ha        1 2F3      0.135000
     35 H5          3.0110    0.6530   -3.6280 h1        1 2F3      0.126000
     36 H6          1.4620    0.2520   -4.5420 h1        1 2F3      0.126000
     37 H7          5.4140   -3.9850   -1.9850 hc        1 2F3      0.157000
     38 H8          4.3880   -5.7710   -3.5080 hc        1 2F3      0.122000
     39 H9          2.5910   -1.4680    1.2710 hc        1 2F3      0.115000
     40 H10         0.8490   -1.2420    2.8610 ha        1 2F3      0.214000
     41 H11        -1.1140    1.0750    1.6850 ha        1 2F3      0.090000
     42 H12        -0.1240   -1.7470   -4.6700 ha        1 2F3      0.149000
     43 H14         6.5260   -2.3440   -5.3360 h4        1 2F3      0.178000
     44 H15         6.0040   -6.0290   -4.3510 hc        1 2F3      0.122000
     45 H16         0.0060   -6.0390   -6.9700 hc        1 2F3      0.076000
     46 H17         1.2980   -6.9600   -6.0850 hc        1 2F3      0.076000
     47 H18        -0.2910   -6.6070   -5.2780 hc        1 2F3      0.076000
     48 CL1        -0.8820    0.7370   -3.6840 cl        1 2F3     -0.009000
     49 C25         0.4870   -6.2000   -5.9720 c3        1 2F3     -0.163000
@<TRIPOS>BOND
     1    1    2 1   
     2    1   21 1   
     3    1   22 1   
     4    2    3 1   
     5    2    5 1   
     6    3   19 1   
     7    3   32 1   
     8    3   39 1   
     9    4    5 1   
    10    4    6 1   
    11    4   15 1   
    12    5   33 1   
    13    6   22 1   
    14    6   48 1   
    15    7   13 1   
    16    7   16 1   
    17    7   18 1   
    18    7   28 1   
    19    8    9 1   
    20    8   10 1   
    21    8   34 1   
    22    9   24 1   
    23    9   49 1   
    24   10   11 1   
    25   10   13 1   
    26   11   23 1   
    27   11   25 1   
    28   12   13 1   
    29   12   14 1   
    30   12   23 1   
    31   14   26 1   
    32   14   30 1   
    33   15   23 1   
    34   15   35 1   
    35   15   36 1   
    36   16   29 1   
    37   16   43 1   
    38   17   27 1   
    39   17   28 1   
    40   18   28 1   
    41   18   38 1   
    42   18   44 1   
    43   19   20 1   
    44   19   40 1   
    45   21   41 1   
    46   24   25 1   
    47   24   31 1   
    48   25   42 1   
    49   28   37 1   
    50   45   49 1   
    51   46   49 1   
    52   47   49 1   
@<TRIPOS>SUBSTRUCTURE
     1 2F3         1 TEMP              0 ****  ****    0 ROOT
