@<TRIPOS>MOLECULE
2F3
   49    52     1     0     0
SMALL
bcc


@<TRIPOS>ATOM
      1 C1          1.8580    2.0490    1.7780 c2        1 2F3     -0.003000
      2 C2          1.4920    0.5760    1.5320 c3        1 2F3      0.019000
      3 C3          1.0100   -0.0360    2.8030 c2        1 2F3     -0.464000
      4 C7          0.5370    1.5570   -0.5390 cu        1 2F3     -0.282000
      5 C8          0.4380    0.4430    0.4560 cx        1 2F3     -0.160000
      6 C9          0.8040    2.8990   -0.1500 c2        1 2F3      0.127000
      7 C10         4.4100   -3.7440   -4.1220 cx        1 2F3     -0.050000
      8 C11         3.6630   -5.4900   -6.7960 ca        1 2F3     -0.073000
      9 C12         3.1010   -6.1320   -7.8940 ca        1 2F3     -0.140000
     10 C13         2.8990   -4.6090   -6.0320 ca        1 2F3     -0.069000
     11 C14         1.5230   -4.3560   -6.4140 ca        1 2F3      0.003000
     12 C15         1.9800   -3.0720   -4.5930 c2        1 2F3      0.003000
     13 C16         3.1560   -3.7920   -4.8630 c2        1 2F3     -0.165000
     14 C19         1.6460   -2.0480   -3.5230 c2        1 2F3      0.370000
     15 C20         0.7840    0.3450   -1.0040 cu        1 2F3      0.036000
     16 C21         5.1150   -2.4290   -4.2700 c2        1 2F3      0.216000
     17 C22         5.2080   -3.8600   -1.6740 c1        1 2F3     -0.092000
     18 C24         5.2210   -5.0020   -3.9360 cx        1 2F3     -0.184000
     19 C4          1.5300   -1.0590    3.4380 c1        1 2F3      0.173000
     20 C5          3.4840    2.5540    3.7670 c2        1 2F3     -0.168000
     21 C6          2.6710    2.3120    2.7890 c1        1 2F3     -0.122000
     22 N1          1.4100    3.1360    0.9830 n2        1 2F3     -0.147000
     23 N2          1.0030   -3.4140   -5.5340 na        1 2F3     -0.184000
     24 C17         1.7430   -5.8840   -8.2410 ca        1 2F3      0.076000
     25 C18         0.9430   -4.9960   -7.5150 ca        1 2F3     -0.179000
     26 O1          0.4270   -1.8920   -3.2250 o         1 2F3     -0.551500
     27 N3          5.7950   -3.4200   -0.7710 n1        1 2F3     -0.071000
     28 C23         4.4770   -4.4320   -2.7590 cx        1 2F3     -0.072000
     29 O2          6.2770   -2.3390   -4.6740 o         1 2F3     -0.325000
     30 O3          2.5800   -1.3820   -3.0000 o         1 2F3     -0.551500
     31 F1          1.2070   -6.5250   -9.3130 f         1 2F3     -0.127000
     32 H1          2.4360    0.0590    1.1920 hc        1 2F3      0.123000
     33 H2         -0.5340    0.0570    0.8110 hc        1 2F3      0.123000
     34 H4          4.7180   -5.6670   -6.5360 ha        1 2F3      0.136000
     35 H5          1.0330   -0.3480   -1.8080 ha        1 2F3      0.286000
     36 H6          0.0690   -3.0950   -5.4860 hn        1 2F3      0.267000
     37 H7          3.5490   -4.9400   -2.4140 hc        1 2F3      0.156000
     38 H8          4.8550   -5.9490   -4.3710 hc        1 2F3      0.121000
     39 H9          0.1020    0.4450    3.2230 ha        1 2F3      0.188000
     40 H10         3.1300    2.7900    4.7810 ha        1 2F3      0.127500
     41 H11         4.5770    2.5300    3.6400 ha        1 2F3      0.127500
     42 H12        -0.0990   -4.8140   -7.8080 ha        1 2F3      0.140000
     43 H14         4.4880   -1.5490   -3.9890 h4        1 2F3      0.173000
     44 H15         6.3220   -4.9120   -3.9730 hc        1 2F3      0.121000
     45 H16         3.9240   -6.7270   -9.7790 hc        1 2F3      0.076333
     46 H17         4.9460   -7.1510   -8.3390 hc        1 2F3      0.076333
     47 H18         3.4320   -8.0900   -8.6960 hc        1 2F3      0.076333
     48 Cl1         0.2870    4.1830   -1.1560 cl        1 2F3      0.004000
     49 C25         3.8970   -7.0720   -8.7150 c3        1 2F3     -0.163000
@<TRIPOS>BOND
     1    1    2 1   
     2    1   21 1   
     3    1   22 1   
     4    2    3 1   
     5    2    5 1   
     6    2   32 1   
     7    3   19 1   
     8    3   39 1   
     9    4    5 1   
    10    4    6 1   
    11    4   15 1   
    12    5   15 1   
    13    5   33 1   
    14    6   22 1   
    15    6   48 1   
    16    7   13 1   
    17    7   16 1   
    18    7   18 1   
    19    7   28 1   
    20    8    9 1   
    21    8   10 1   
    22    8   34 1   
    23    9   24 1   
    24    9   49 1   
    25   10   11 1   
    26   10   13 1   
    27   11   23 1   
    28   11   25 1   
    29   12   13 1   
    30   12   14 1   
    31   12   23 1   
    32   14   26 1   
    33   14   30 1   
    34   15   35 1   
    35   16   29 1   
    36   16   43 1   
    37   17   27 1   
    38   17   28 1   
    39   18   28 1   
    40   18   38 1   
    41   18   44 1   
    42   20   21 1   
    43   20   40 1   
    44   20   41 1   
    45   23   36 1   
    46   24   25 1   
    47   24   31 1   
    48   25   42 1   
    49   28   37 1   
    50   45   49 1   
    51   46   49 1   
    52   47   49 1   
@<TRIPOS>SUBSTRUCTURE
     1 2F3         1 TEMP              0 ****  ****    0 ROOT
