@<TRIPOS>MOLECULE
2F3
   49    51     1     0     0
SMALL
bcc


@<TRIPOS>ATOM
      1 C1          0.0850    0.0980    0.3020 c2        1 2F3      0.079000
      2 C2          1.4490   -0.2400    0.1020 c2        1 2F3     -0.093000
      3 C3          2.3760   -0.5520    1.1800 c2        1 2F3     -0.106000
      4 C7          1.0800   -0.0020   -2.2890 c2        1 2F3     -0.130000
      5 C8          1.9350   -0.2630   -1.2140 c2        1 2F3     -0.054000
      6 C9         -0.2710    0.2850   -1.9860 c2        1 2F3      0.013000
      7 C10         5.1870   -3.4380   -4.4730 c2        1 2F3     -0.170000
      8 C11         2.2970   -4.5180   -5.5320 ca        1 2F3     -0.078000
      9 C12         0.9720   -4.7490   -5.8900 ca        1 2F3     -0.138000
     10 C13         2.6590   -3.3150   -4.9340 ca        1 2F3     -0.066000
     11 C14         1.6450   -2.3100   -4.6850 ca        1 2F3      0.010000
     12 C15         3.6410   -1.4860   -3.9450 c2        1 2F3      0.012000
     13 C16         3.9100   -2.7660   -4.4490 c2        1 2F3     -0.130000
     14 C19         4.5770   -0.4500   -3.3200 c2        1 2F3      0.373000
     15 C20         1.6330    0.0120   -3.6880 c3        1 2F3      0.014000
     16 C21         5.7250   -3.8320   -5.6140 c1        1 2F3      0.234000
     17 C22         7.9020   -5.0770   -3.0010 c1        1 2F3     -0.043000
     18 C24         5.8950   -3.6490   -3.1750 c3        1 2F3     -0.055000
     19 C4          2.1140   -1.3560    2.2110 c2        1 2F3     -0.227000
     20 C5         -1.7230    0.2510    2.0180 c1        1 2F3      0.223000
     21 C6         -0.4580    0.2170    1.6530 c2        1 2F3     -0.438000
     22 N1         -0.7600    0.3490   -0.7300 n2        1 2F3     -0.162000
     23 N2          2.2710   -1.2050   -4.0960 na        1 2F3     -0.154000
     24 C17        -0.0090   -3.7510   -5.6400 ca        1 2F3      0.071000
     25 C18         0.3100   -2.5280   -5.0380 ca        1 2F3     -0.173000
     26 O1          4.7630    0.6170   -3.9560 o         1 2F3     -0.536000
     27 N3          8.4650   -6.0840   -2.5440 n2        1 2F3     -0.197000
     28 C23         7.3380   -3.9430   -3.3500 c2        1 2F3     -0.194000
     29 O2          6.1980   -4.2320   -6.6370 o         1 2F3     -0.197000
     30 O3          5.0480   -0.7190   -2.1800 o         1 2F3     -0.536000
     31 F1         -1.3000   -3.9890   -5.9950 f         1 2F3     -0.128000
     32 H1          3.3790   -0.1010    1.0550 ha        1 2F3      0.149000
     33 H2          3.0090   -0.4890   -1.4030 ha        1 2F3      0.217000
     34 H4          3.0620   -5.2850   -5.7220 ha        1 2F3      0.131000
     35 H5          2.4140    0.8350   -3.7440 h1        1 2F3      0.133500
     36 H6          0.8130    0.2410   -4.4280 h1        1 2F3      0.133500
     37 H7          7.9560   -3.1280   -3.7640 ha        1 2F3      0.164000
     38 H8          5.7870   -2.7020   -2.5600 hc        1 2F3      0.130500
     39 H9          2.8710   -1.5760    2.9760 ha        1 2F3      0.112500
     40 H10         1.1510   -1.8640    2.3480 ha        1 2F3      0.112500
     41 H11         0.3130    0.2960    2.4530 ha        1 2F3      0.202000
     42 H12        -0.4690   -1.7770   -4.8510 ha        1 2F3      0.145000
     43 H14         8.5750   -6.8650   -3.1620 hn        1 2F3      0.159000
     44 H15         5.3780   -4.4770   -2.6180 hc        1 2F3      0.130500
     45 H16         1.4440   -6.6970   -6.6780 hc        1 2F3      0.075000
     46 H17        -0.1850   -6.5510   -5.8890 hc        1 2F3      0.075000
     47 H18         0.0940   -5.8230   -7.5210 hc        1 2F3      0.075000
     48 CL1        -1.3930    0.5890   -3.2560 cl        1 2F3     -0.005000
     49 C25         0.5670   -6.0220   -6.5270 c3        1 2F3     -0.161000
@<TRIPOS>BOND
     1    1    2 1   
     2    1   21 1   
     3    1   22 1   
     4    2    3 1   
     5    2    5 1   
     6    3   19 1   
     7    3   32 1   
     8    4    5 1   
     9    4    6 1   
    10    4   15 1   
    11    5   33 1   
    12    6   22 1   
    13    6   48 1   
    14    7   13 1   
    15    7   16 1   
    16    7   18 1   
    17    8    9 1   
    18    8   10 1   
    19    8   34 1   
    20    9   24 1   
    21    9   49 1   
    22   10   11 1   
    23   10   13 1   
    24   11   23 1   
    25   11   25 1   
    26   12   13 1   
    27   12   14 1   
    28   12   23 1   
    29   14   26 1   
    30   14   30 1   
    31   15   23 1   
    32   15   35 1   
    33   15   36 1   
    34   16   29 1   
    35   17   27 1   
    36   17   28 1   
    37   18   28 1   
    38   18   38 1   
    39   18   44 1   
    40   19   39 1   
    41   19   40 1   
    42   20   21 1   
    43   21   41 1   
    44   24   25 1   
    45   24   31 1   
    46   25   42 1   
    47   27   43 1   
    48   28   37 1   
    49   45   49 1   
    50   46   49 1   
    51   47   49 1   
@<TRIPOS>SUBSTRUCTURE
     1 2F3         1 TEMP              0 ****  ****    0 ROOT
