@<TRIPOS>MOLECULE
2F3
   49    53     1     0     0
SMALL
bcc


@<TRIPOS>ATOM
      1 C1         -4.6100   -0.7940   -0.4730 ca        1 2F3      0.405600
      2 C2         -3.4920   -1.6810   -0.5210 ca        1 2F3     -0.151300
      3 C3         -3.5660   -2.8680   -1.2960 ca        1 2F3     -0.085000
      4 C7         -2.2950   -0.1770    0.9600 ca        1 2F3     -0.216600
      5 C8         -2.3280   -1.3410    0.2200 ca        1 2F3     -0.048000
      6 C9         -3.4700    0.6490    0.9450 ca        1 2F3      0.528300
      7 C10         3.2620   -1.0200   -0.4390 cc        1 2F3     -0.077200
      8 C11         2.5620    2.1800   -0.8780 ca        1 2F3     -0.057000
      9 C12         2.0190    3.4600   -0.9500 ca        1 2F3     -0.152300
     10 C13         1.8810    1.1650   -0.2130 ca        1 2F3     -0.058800
     11 C14         0.6070    1.4620    0.4070 ca        1 2F3     -0.038200
     12 C15         1.0560   -0.7440    0.7700 cd        1 2F3     -0.037300
     13 C16         2.1420   -0.2430    0.0280 cc        1 2F3     -0.128200
     14 C19         0.7750   -2.1500    1.3020 c         1 2F3      0.921800
     15 C20        -1.0730    0.1570    1.7720 c3        1 2F3      0.082600
     16 C21         4.6190   -0.4450   -0.3990 c         1 2F3      0.686700
     17 C22         5.4590   -2.5550   -1.2850 cc        1 2F3     -0.039400
     18 C24         3.0900   -2.3010   -0.8950 cd        1 2F3     -0.069000
     19 C4         -4.7070   -3.1640   -2.0000 ca        1 2F3     -0.151000
     20 C5         -5.8190   -2.2890   -1.9590 ca        1 2F3     -0.126000
     21 C6         -5.7840   -1.1340   -1.2200 ca        1 2F3     -0.177300
     22 N1         -4.5810    0.3680    0.2700 nb        1 2F3     -0.679000
     23 N2          0.1360    0.2890    1.0120 na        1 2F3     -0.062400
     24 C17         0.7650    3.7300   -0.3370 ca        1 2F3      0.106900
     25 C18         0.0480    2.7420    0.3470 ca        1 2F3     -0.180000
     26 O1          0.4440   -3.0270    0.4540 o         1 2F3     -0.804800
     27 N3          5.6730   -1.2670   -0.8500 n         1 2F3     -0.450100
     28 C23         4.1990   -3.0870   -1.3290 cd        1 2F3     -0.216000
     29 O2          4.9530    0.6960   -0.0170 o         1 2F3     -0.667500
     30 O3          0.8290   -2.3250    2.5440 o         1 2F3     -0.804800
     31 F1          0.2450    4.9840   -0.4130 f         1 2F3     -0.165900
     32 H1         -2.6890   -3.5350   -1.3130 ha        1 2F3      0.157000
     33 H2         -1.4500   -2.0250    0.1980 ha        1 2F3      0.217000
     34 H4          3.5470    1.9720   -1.3240 ha        1 2F3      0.149000
     35 H5         -1.2330    1.1170    2.3410 h1        1 2F3      0.091700
     36 H6         -0.9100   -0.6840    2.5180 h1        1 2F3      0.091700
     37 H7          6.3560   -3.1190   -1.5940 h4        1 2F3      0.129000
     38 H8          2.0790   -2.7570   -0.8990 ha        1 2F3      0.200000
     39 H9         -4.7710   -4.0820   -2.6030 ha        1 2F3      0.127000
     40 H10        -6.7200   -2.5500   -2.5340 ha        1 2F3      0.122000
     41 H11        -6.6500   -0.4550   -1.1910 ha        1 2F3      0.141000
     42 H12        -0.9190    2.9740    0.8120 ha        1 2F3      0.142000
     43 H14         6.6000   -0.9140   -0.7890 hn        1 2F3      0.314500
     44 H15         4.0310   -4.1130   -1.6780 ha        1 2F3      0.140000
     45 H16         2.1530    4.8680   -2.5580 hc        1 2F3      0.033700
     46 H17         2.8430    5.4360   -0.9850 hc        1 2F3      0.033700
     47 H18         3.7490    4.2180   -1.9820 hc        1 2F3      0.033700
     48 CL1        -3.4750    2.1100    1.8620 cl        1 2F3     -0.177000
     49 C25         2.7330    4.5480   -1.6560 c3        1 2F3     -0.033800
@<TRIPOS>BOND
     1    1    2 ar  
     2    1   21 ar  
     3    1   22 ar  
     4    2    3 ar  
     5    2    5 ar  
     6    3   19 ar  
     7    3   32 1   
     8    4    5 ar  
     9    4    6 ar  
    10    4   15 1   
    11    5   33 1   
    12    6   22 ar  
    13    6   48 1   
    14    7   13 1   
    15    7   16 1   
    16    7   18 2   
    17    8    9 ar  
    18    8   10 ar  
    19    8   34 1   
    20    9   24 ar  
    21    9   49 1   
    22   10   11 ar  
    23   10   13 1   
    24   11   23 1   
    25   11   25 ar  
    26   12   13 2   
    27   12   14 1   
    28   12   23 1   
    29   14   26 1   
    30   14   30 1   
    31   15   23 1   
    32   15   35 1   
    33   15   36 1   
    34   16   27 1   
    35   16   29 2   
    36   17   27 1   
    37   17   28 2   
    38   17   37 1   
    39   18   28 1   
    40   18   38 1   
    41   19   20 ar  
    42   19   39 1   
    43   20   21 ar  
    44   20   40 1   
    45   21   41 1   
    46   24   25 ar  
    47   24   31 1   
    48   25   42 1   
    49   27   43 1   
    50   28   44 1   
    51   45   49 1   
    52   46   49 1   
    53   47   49 1   
@<TRIPOS>SUBSTRUCTURE
     1 2F3         1 TEMP              0 ****  ****    0 ROOT
