@<TRIPOS>MOLECULE
2F4
   53    57     1     0     0
SMALL
bcc


@<TRIPOS>ATOM
      1 C01        -0.5390   -0.9860   -0.1250 c3        1 2F4      0.085100
      2 N02         0.3500    0.1130    0.3270 n4        1 2F4     -0.737700
      3 C03         1.2770   -0.3170    1.4040 ca        1 2F4      0.449200
      4 C04         1.1230    0.2070    2.7000 ca        1 2F4     -0.206300
      5 C05         2.0400   -0.2030    3.6930 cp        1 2F4      0.052000
      6 C06         3.0390   -1.1150    3.3380 ca        1 2F4     -0.178300
      7 C07         3.0990   -1.5860    2.0080 ca        1 2F4      0.439200
      8 N08         2.2490   -1.2070    1.0460 nb        1 2F4     -0.643000
      9 C09         1.9460    0.3550    5.0350 cp        1 2F4     -0.199300
     10 C10         1.6240    1.7150    5.2140 ca        1 2F4     -0.046000
     11 C11         1.5480    2.2560    6.4920 ca        1 2F4     -0.246300
     12 C12         1.7950    1.4150    7.5960 ca        1 2F4      0.469200
     13 N13         2.1070    0.1140    7.4760 nb        1 2F4     -0.718000
     14 C14         2.1870   -0.3930    6.2200 ca        1 2F4      0.639600
     15 O15         2.5530   -1.7290    6.0390 os        1 2F4     -0.379400
     16 C16         2.7090   -2.5220    7.1750 ca        1 2F4      0.168100
     17 C17         1.6470   -2.7730    8.0560 ca        1 2F4     -0.109500
     18 C18         1.8330   -3.6540    9.1170 ca        1 2F4     -0.079000
     19 C19         3.0830   -4.2770    9.2870 ca        1 2F4     -0.074400
     20 N20         3.3010   -5.1550   10.4440 n4        1 2F4     -0.541400
     21 C21         3.6180   -6.5360   10.0660 cc        1 2F4      0.380700
     22 N22         4.7270   -7.1990   10.5080 nd        1 2F4     -0.468100
     23 C23         4.6280   -8.4730    9.9430 ca        1 2F4      0.062400
     24 C24         5.4740   -9.5980   10.0540 ca        1 2F4     -0.028000
     25 C25         5.1290  -10.7480    9.3810 ca        1 2F4     -0.146000
     26 C26         3.9500  -10.8350    8.5820 ca        1 2F4      0.176900
     27 F27         3.6720  -11.9890    7.9470 f         1 2F4     -0.085900
     28 C28         3.0760   -9.7370    8.4450 ca        1 2F4      0.068900
     29 F29         1.9570   -9.7960    7.6940 f         1 2F4     -0.105900
     30 C30         3.4240   -8.5540    9.1370 ca        1 2F4     -0.051200
     31 N31         2.7870   -7.3190    9.2240 na        1 2F4     -0.232300
     32 C32         4.1410   -4.0380    8.3900 ca        1 2F4     -0.079000
     33 C33         3.9530   -3.1520    7.3340 ca        1 2F4     -0.109500
     34 H1         -1.2490   -0.5800   -0.8970 hx        1 2F4      0.115367
     35 H2          0.0780   -1.8110   -0.5750 hx        1 2F4      0.115367
     36 H3         -1.1150   -1.3870    0.7510 hx        1 2F4      0.115367
     37 H4         -0.2140    0.8940    0.6840 hn        1 2F4      0.466300
     38 H5          0.3180    0.9140    2.9570 ha        1 2F4      0.167000
     39 H6          3.7750   -1.4650    4.0800 ha        1 2F4      0.184000
     40 H7          3.8810   -2.3050    1.6890 h4        1 2F4      0.069100
     41 H8          1.4510    2.3550    4.3340 ha        1 2F4      0.152000
     42 H9          1.3070    3.3180    6.6490 ha        1 2F4      0.180000
     43 H10         1.7470    1.8000    8.6340 h4        1 2F4      0.057100
     44 H11         0.6770   -2.2670    7.9220 ha        1 2F4      0.181500
     45 H12         0.9950   -3.8360    9.8120 ha        1 2F4      0.172000
     46 H13         2.4600   -5.1650   11.0410 hn        1 2F4      0.484300
     47 H15         6.3870   -9.5470   10.6710 ha        1 2F4      0.185000
     48 H16         5.7670  -11.6470    9.4490 ha        1 2F4      0.189000
     49 H17         1.9590   -7.0460    8.7590 hn        1 2F4      0.336700
     50 H18         5.1200   -4.5330    8.5160 ha        1 2F4      0.172000
     51 H19         4.7750   -2.9440    6.6290 ha        1 2F4      0.181500
     52 H022        0.9060    0.4490   -0.4740 hn        1 2F4      0.466300
     53 H202        4.0970   -4.7850   10.9950 hn        1 2F4      0.484300
@<TRIPOS>BOND
     1    1    2 1   
     2    1   34 1   
     3    1   35 1   
     4    1   36 1   
     5    2    3 1   
     6    2   37 1   
     7    2   52 1   
     8    3    4 ar  
     9    3    8 ar  
    10    4    5 ar  
    11    4   38 1   
    12    5    6 ar  
    13    5    9 1   
    14    6    7 ar  
    15    6   39 1   
    16    7    8 ar  
    17    7   40 1   
    18    9   10 ar  
    19    9   14 ar  
    20   10   11 ar  
    21   10   41 1   
    22   11   12 ar  
    23   11   42 1   
    24   12   13 ar  
    25   12   43 1   
    26   13   14 ar  
    27   14   15 1   
    28   15   16 1   
    29   16   17 ar  
    30   16   33 ar  
    31   17   18 ar  
    32   17   44 1   
    33   18   19 ar  
    34   18   45 1   
    35   19   20 1   
    36   19   32 ar  
    37   20   21 1   
    38   20   46 1   
    39   20   53 1   
    40   21   22 2   
    41   21   31 1   
    42   22   23 1   
    43   23   24 ar  
    44   23   30 ar  
    45   24   25 ar  
    46   24   47 1   
    47   25   26 ar  
    48   25   48 1   
    49   26   27 1   
    50   26   28 ar  
    51   28   29 1   
    52   28   30 ar  
    53   30   31 1   
    54   31   49 1   
    55   32   33 ar  
    56   32   50 1   
    57   33   51 1   
@<TRIPOS>SUBSTRUCTURE
     1 2F4         1 TEMP              0 ****  ****    0 ROOT
