@<TRIPOS>MOLECULE
2F4
   51    55     1     0     0
SMALL
bcc


@<TRIPOS>ATOM
      1 C01        -0.0520    0.1050    0.1010 c3        1 2F4      0.177100
      2 N02         1.1140    0.9090    0.3230 nu        1 2F4     -0.836900
      3 C03         1.8510    0.7010    1.5070 ca        1 2F4      0.627200
      4 C04         1.1930    0.2890    2.7020 ca        1 2F4     -0.286300
      5 C05         1.9260    0.1870    3.8900 cp        1 2F4      0.038000
      6 C06         3.2940    0.4840    3.8680 ca        1 2F4     -0.262300
      7 C07         3.8660    0.8730    2.6450 ca        1 2F4      0.430200
      8 N08         3.1990    0.9790    1.4900 nb        1 2F4     -0.718000
      9 C09         1.2510   -0.2010    5.1240 cp        1 2F4     -0.164300
     10 C10        -0.0110    0.3260    5.4360 ca        1 2F4     -0.058000
     11 C11        -0.6530   -0.0490    6.6150 ca        1 2F4     -0.276300
     12 C12        -0.0100   -0.9620    7.4680 ca        1 2F4      0.432200
     13 N13         1.1980   -1.4940    7.2150 nb        1 2F4     -0.714000
     14 C14         1.8130   -1.1110    6.0670 ca        1 2F4      0.632600
     15 O15         3.0820   -1.5860    5.7590 os        1 2F4     -0.363400
     16 C16         3.5810   -2.6520    6.5110 ca        1 2F4      0.100100
     17 C17         2.9480   -3.8980    6.5300 ca        1 2F4     -0.110000
     18 C18         3.5590   -4.9630    7.1840 ca        1 2F4     -0.139000
     19 C19         4.7970   -4.7880    7.8350 ca        1 2F4      0.089600
     20 N20         5.4440   -5.8240    8.5620 nu        1 2F4     -0.654600
     21 C21         4.6700   -6.9240    8.9950 cc        1 2F4      0.598700
     22 N22         4.9900   -8.2460    8.8410 nd        1 2F4     -0.596100
     23 C23         4.0100   -8.9500    9.5590 ca        1 2F4      0.093400
     24 C24         3.8320  -10.3270    9.7600 ca        1 2F4     -0.066000
     25 C25         2.7550  -10.7580   10.5110 ca        1 2F4     -0.160000
     26 C26         1.8290   -9.8500   11.0820 ca        1 2F4      0.101900
     27 F27         0.7920  -10.3280   11.8090 f         1 2F4     -0.127900
     28 C28         1.9690   -8.4560   10.9040 ca        1 2F4      0.086900
     29 F29         1.0920   -7.5810   11.4430 f         1 2F4     -0.126900
     30 C30         3.0680   -8.0140   10.1420 ca        1 2F4     -0.094200
     31 N31         3.4910   -6.7380    9.7760 na        1 2F4     -0.269300
     32 C32         5.4240   -3.5220    7.7960 ca        1 2F4     -0.139000
     33 C33         4.8160   -2.4570    7.1420 ca        1 2F4     -0.110000
     34 H1         -0.8740    0.4450    0.7870 h1        1 2F4      0.038700
     35 H2         -0.3920    0.2480   -0.9580 h1        1 2F4      0.038700
     36 H3          0.1260   -0.9910    0.2790 h1        1 2F4      0.038700
     37 H4          1.6780    1.0420   -0.4930 hn        1 2F4      0.415800
     38 H5          0.1210    0.0520    2.6970 ha        1 2F4      0.143000
     39 H6          3.9070    0.4020    4.7740 ha        1 2F4      0.155000
     40 H7          4.9450    1.1110    2.5840 h4        1 2F4      0.022100
     41 H8         -0.4840    1.0410    4.7450 ha        1 2F4      0.151000
     42 H9         -1.6390    0.3570    6.8770 ha        1 2F4      0.151000
     43 H10        -0.4800   -1.2910    8.4130 h4        1 2F4      0.029100
     44 H11         1.9760   -4.0330    6.0330 ha        1 2F4      0.153000
     45 H12         3.0640   -5.9470    7.1750 ha        1 2F4      0.149000
     46 H13         6.3190   -6.1030    8.1550 hn        1 2F4      0.439800
     47 H15         4.5420  -11.0460    9.3240 ha        1 2F4      0.158000
     48 H16         2.5930  -11.8340   10.6840 ha        1 2F4      0.155000
     49 H17         3.0810   -5.8800   10.0380 hn        1 2F4      0.325700
     50 H18         6.3960   -3.3680    8.2910 ha        1 2F4      0.149000
     51 H19         5.2990   -1.4690    7.1110 ha        1 2F4      0.153000
@<TRIPOS>BOND
     1    1    2 1   
     2    1   34 1   
     3    1   35 1   
     4    1   36 1   
     5    2    3 1   
     6    2   37 1   
     7    3    4 ar  
     8    3    8 ar  
     9    4    5 ar  
    10    4   38 1   
    11    5    6 ar  
    12    5    9 1   
    13    6    7 ar  
    14    6   39 1   
    15    7    8 ar  
    16    7   40 1   
    17    9   10 ar  
    18    9   14 ar  
    19   10   11 ar  
    20   10   41 1   
    21   11   12 ar  
    22   11   42 1   
    23   12   13 ar  
    24   12   43 1   
    25   13   14 ar  
    26   14   15 1   
    27   15   16 1   
    28   16   17 ar  
    29   16   33 ar  
    30   17   18 ar  
    31   17   44 1   
    32   18   19 ar  
    33   18   45 1   
    34   19   20 1   
    35   19   32 ar  
    36   20   21 1   
    37   20   46 1   
    38   21   22 2   
    39   21   31 1   
    40   22   23 1   
    41   23   24 ar  
    42   23   30 ar  
    43   24   25 ar  
    44   24   47 1   
    45   25   26 ar  
    46   25   48 1   
    47   26   27 1   
    48   26   28 ar  
    49   28   29 1   
    50   28   30 ar  
    51   30   31 1   
    52   31   49 1   
    53   32   33 ar  
    54   32   50 1   
    55   33   51 1   
@<TRIPOS>SUBSTRUCTURE
     1 2F4         1 TEMP              0 ****  ****    0 ROOT
