@<TRIPOS>MOLECULE
2F4
   51    43     1     0     0
SMALL
bcc


@<TRIPOS>ATOM
      1 C01         2.6370    4.1750   -5.4530 c3        1 2F4     -0.096000
      2 N02         1.6220    4.6760   -4.5540 n3        1 2F4     -0.275000
      3 C03         0.4560    3.8970   -4.2900 c1        1 2F4      0.104000
      4 C04        -0.2020    4.0230   -3.0670 c1        1 2F4     -0.227000
      5 C05        -1.3330    3.2950   -2.8220 c1        1 2F4      0.040000
      6 C06        -1.8170    2.4460   -3.7760 c1        1 2F4     -0.117500
      7 C07        -1.1570    2.3230   -4.9970 c1        1 2F4     -0.117500
      8 N08        -0.0270    3.0510   -5.2400 n1        1 2F4     -0.186000
      9 C09        -2.0280    3.3890   -1.4470 c2        1 2F4     -0.101000
     10 C10        -2.7770    4.4880   -1.1400 c1        1 2F4     -0.057000
     11 C11        -3.2730    4.6440    0.1240 c1        1 2F4     -0.117500
     12 C12        -3.0150    3.6820    1.0970 c1        1 2F4     -0.117500
     13 N13        -2.2660    2.5830    0.7890 n1        1 2F4     -0.191000
     14 C14        -1.7700    2.4250   -0.4680 c2        1 2F4      0.137000
     15 O15        -0.9790    1.2710   -0.7860 os        1 2F4     -0.149000
     16 C16        -0.8740    0.4170    0.3870 c2        1 2F4      0.045000
     17 C17        -1.7980   -0.6030    0.5880 c2        1 2F4     -0.102000
     18 C18        -1.6390   -1.4870    1.6520 c1        1 2F4     -0.130000
     19 C19        -0.5570   -1.3510    2.5140 c1        1 2F4      0.015000
     20 N20        -0.3530   -2.3070    3.5670 n3        1 2F4     -0.217000
     21 C21         0.5360   -3.4010    3.3740 c2        1 2F4      0.119000
     22 N22         1.7540   -3.4910    2.7630 n2        1 2F4     -0.167000
     23 C23         2.2260   -4.7500    2.9510 c1        1 2F4     -0.047000
     24 C24         3.3510   -5.4130    2.4360 c1        1 2F4     -0.117500
     25 C25         3.5230   -6.7720    2.6670 c1        1 2F4     -0.117500
     26 C26         2.5870   -7.4700    3.4030 c1        1 2F4      0.059500
     27 F27         2.7210   -8.7730    3.6880 f         1 2F4     -0.091500
     28 C28         1.4740   -6.8150    3.9130 c1        1 2F4      0.059500
     29 F29         0.5650   -7.5660    4.5500 f         1 2F4     -0.091500
     30 C30         1.3000   -5.4440    3.6810 c1        1 2F4     -0.048000
     31 N31         0.2580   -4.6080    3.9400 n1        1 2F4     -0.225000
     32 C32         0.3650   -0.3340    2.3140 c1        1 2F4     -0.160000
     33 C33         0.2060    0.5530    1.2470 c1        1 2F4     -0.104000
     34 H1          3.2280    3.5580   -4.9690 h1        1 2F4      0.082333
     35 H2          2.2070    3.6990   -6.2030 h1        1 2F4      0.082333
     36 H3          3.1650    4.9270   -5.8030 h1        1 2F4      0.082333
     37 H4          1.7190    5.4970   -4.1680 hn        1 2F4      0.194000
     38 H5          0.1450    4.6300   -2.3860 ha        1 2F4      0.140000
     39 H6         -2.6230    1.9270   -3.6030 ha        1 2F4      0.157333
     40 H7         -1.5020    1.7170   -5.6780 ha        1 2F4      0.157333
     41 H8         -2.9590    5.1660   -1.8260 ha        1 2F4      0.150000
     42 H9         -3.8110    5.4330    0.3450 ha        1 2F4      0.157333
     43 H10        -3.3700    3.7940    2.0030 ha        1 2F4      0.157333
     44 H11        -2.5550   -0.6990   -0.0140 ha        1 2F4      0.154000
     45 H12        -2.2880   -2.2020    1.7930 ha        1 2F4      0.148000
     46 H13        -0.8130   -2.2250    4.3550 hn        1 2F4      0.235000
     47 H15         4.0110   -4.9210    1.9170 ha        1 2F4      0.157333
     48 H16         4.2620   -7.2480    2.2440 ha        1 2F4      0.157333
     49 H17        -0.5120   -4.8330    4.3630 DU        1 2F4      0.275000
     50 H18         1.1240   -0.2390    2.9190 ha        1 2F4      0.149000
     51 H19         0.8520    1.2650    1.1080 ha        1 2F4      0.155000
@<TRIPOS>BOND
     1    1    2 1   
     2    1   34 1   
     3    1   35 1   
     4    1   36 1   
     5    2    3 1   
     6    2   37 1   
     7    3    8 1   
     8    4    5 1   
     9    4   38 1   
    10    5    9 1   
    11    6    7 1   
    12    6   39 1   
    13    7   40 1   
    14    9   10 1   
    15    9   14 1   
    16   10   41 1   
    17   11   12 1   
    18   11   42 1   
    19   12   43 1   
    20   13   14 1   
    21   14   15 1   
    22   15   16 1   
    23   16   17 1   
    24   16   33 1   
    25   17   18 1   
    26   17   44 1   
    27   18   45 1   
    28   19   20 1   
    29   19   32 1   
    30   20   21 1   
    31   20   46 1   
    32   21   22 1   
    33   21   31 1   
    34   22   23 1   
    35   23   30 1   
    36   24   25 1   
    37   24   47 1   
    38   25   48 1   
    39   26   27 1   
    40   26   28 1   
    41   28   29 1   
    42   32   50 1   
    43   33   51 1   
@<TRIPOS>SUBSTRUCTURE
     1 2F4         1 TEMP              0 ****  ****    0 ROOT
