@<TRIPOS>MOLECULE
2F4
   51    55     1     0     0
SMALL
bcc


@<TRIPOS>ATOM
      1 C01         7.7570    2.8710    1.4380 c3        1 2F4      0.177100
      2 N02         8.0770    2.1000    0.2710 nh        1 2F4     -0.836900
      3 C03         7.0830    1.2540   -0.2610 ca        1 2F4      0.627200
      4 C04         6.1260    0.6390    0.5980 ca        1 2F4     -0.286300
      5 C05         5.2120   -0.2780    0.0640 cp        1 2F4      0.038000
      6 C06         5.2600   -0.5580   -1.3070 ca        1 2F4     -0.262300
      7 C07         6.2280    0.1000   -2.0840 ca        1 2F4      0.430200
      8 N08         7.1150    0.9840   -1.6100 nb        1 2F4     -0.718000
      9 C09         4.2530   -0.9360    0.9430 cp        1 2F4     -0.164300
     10 C10         4.6530   -1.4060    2.2030 ca        1 2F4     -0.058000
     11 C11         3.7330   -2.0330    3.0410 ca        1 2F4     -0.276300
     12 C12         2.4080   -2.1740    2.5950 ca        1 2F4      0.432200
     13 N13         1.9740   -1.7430    1.3980 nb        1 2F4     -0.714000
     14 C14         2.8870   -1.1430    0.5910 ca        1 2F4      0.632600
     15 O15         2.5230   -0.7090   -0.6780 os        1 2F4     -0.363400
     16 C16         1.1610   -0.6660   -0.9890 ca        1 2F4      0.100100
     17 C17         0.2730    0.1500   -0.2840 ca        1 2F4     -0.110000
     18 C18        -1.0440    0.2600   -0.7200 ca        1 2F4     -0.138500
     19 C19        -1.4850   -0.4550   -1.8520 ca        1 2F4      0.089600
     20 N20        -2.8280   -0.4230   -2.3140 nh        1 2F4     -0.654600
     21 C21        -3.8380   -0.0090   -1.4160 cc        1 2F4      0.598700
     22 N22        -4.8180    0.9120   -1.6720 nd        1 2F4     -0.596100
     23 C23        -5.6630    0.8740   -0.5510 ca        1 2F4      0.093400
     24 C24        -6.8310    1.5930   -0.2590 ca        1 2F4     -0.066000
     25 C25        -7.4710    1.3660    0.9450 ca        1 2F4     -0.160000
     26 C26        -6.9800    0.4300    1.8890 ca        1 2F4      0.101900
     27 F27        -7.6470    0.2480    3.0520 f         1 2F4     -0.127900
     28 C28        -5.8070   -0.3160    1.6350 ca        1 2F4      0.086900
     29 F29        -5.3300   -1.2100    2.5280 f         1 2F4     -0.126900
     30 C30        -5.1560   -0.0890    0.4080 ca        1 2F4     -0.094200
     31 N31        -4.0000   -0.6360   -0.1450 na        1 2F4     -0.269300
     32 C32        -0.5670   -1.2670   -2.5550 ca        1 2F4     -0.138500
     33 C33         0.7490   -1.3770   -2.1230 ca        1 2F4     -0.110000
     34 H1          6.7710    3.4050    1.3590 h1        1 2F4      0.038700
     35 H2          7.7200    2.1930    2.3330 h1        1 2F4      0.038700
     36 H3          8.5680    3.6300    1.6010 h1        1 2F4      0.038700
     37 H4          8.5990    2.6040   -0.4180 hn        1 2F4      0.415800
     38 H5          6.1000    0.8780    1.6690 ha        1 2F4      0.143000
     39 H6          4.5510   -1.2580   -1.7670 ha        1 2F4      0.155000
     40 H7          6.2940   -0.0890   -3.1710 h4        1 2F4      0.022100
     41 H8          5.7000   -1.2790    2.5190 ha        1 2F4      0.151000
     42 H9          4.0300   -2.4090    4.0280 ha        1 2F4      0.151000
     43 H10         1.6410   -2.6630    3.2240 h4        1 2F4      0.029100
     44 H11         0.6120    0.6990    0.6070 ha        1 2F4      0.153000
     45 H12        -1.7320    0.9230   -0.1720 ha        1 2F4      0.149000
     46 H13        -2.9230   -0.0030   -3.2220 hn        1 2F4      0.439800
     47 H15        -7.2260    2.3240   -0.9810 ha        1 2F4      0.158000
     48 H16        -8.3900    1.9170    1.1980 ha        1 2F4      0.155000
     49 H17        -3.4340   -1.3430    0.2450 hn        1 2F4      0.325700
     50 H18        -0.8900   -1.8270   -3.4470 ha        1 2F4      0.149000
     51 H19         1.4670   -2.0110   -2.6650 ha        1 2F4      0.153000
@<TRIPOS>BOND
     1    1    2 1   
     2    1   34 1   
     3    1   35 1   
     4    1   36 1   
     5    2    3 1   
     6    2   37 1   
     7    3    4 ar  
     8    3    8 ar  
     9    4    5 ar  
    10    4   38 1   
    11    5    6 ar  
    12    5    9 1   
    13    6    7 ar  
    14    6   39 1   
    15    7    8 ar  
    16    7   40 1   
    17    9   10 ar  
    18    9   14 ar  
    19   10   11 ar  
    20   10   41 1   
    21   11   12 ar  
    22   11   42 1   
    23   12   13 ar  
    24   12   43 1   
    25   13   14 ar  
    26   14   15 1   
    27   15   16 1   
    28   16   17 ar  
    29   16   33 ar  
    30   17   18 ar  
    31   17   44 1   
    32   18   19 ar  
    33   18   45 1   
    34   19   20 1   
    35   19   32 ar  
    36   20   21 1   
    37   20   46 1   
    38   21   22 2   
    39   21   31 1   
    40   22   23 1   
    41   23   24 ar  
    42   23   30 ar  
    43   24   25 ar  
    44   24   47 1   
    45   25   26 ar  
    46   25   48 1   
    47   26   27 1   
    48   26   28 ar  
    49   28   29 1   
    50   28   30 ar  
    51   30   31 1   
    52   31   49 1   
    53   32   33 ar  
    54   32   50 1   
    55   33   51 1   
@<TRIPOS>SUBSTRUCTURE
     1 2F4         1 TEMP              0 ****  ****    0 ROOT
