@<TRIPOS>MOLECULE
2F4
   51    55     1     0     0
SMALL
bcc


@<TRIPOS>ATOM
      1 C01        -0.1210    0.1030    0.1330 c3        1 2F4      0.177100
      2 N02         1.0560    0.8990    0.3330 nh        1 2F4     -0.836900
      3 C03         1.8090    0.6890    1.5060 ca        1 2F4      0.627200
      4 C04         1.1670    0.2880    2.7130 ca        1 2F4     -0.286300
      5 C05         1.9180    0.1850    3.8900 cp        1 2F4      0.038000
      6 C06         3.2870    0.4720    3.8450 ca        1 2F4     -0.262300
      7 C07         3.8440    0.8500    2.6110 ca        1 2F4      0.430200
      8 N08         3.1590    0.9570    1.4660 nb        1 2F4     -0.718000
      9 C09         1.2600   -0.1930    5.1360 cp        1 2F4     -0.164300
     10 C10         0.0070    0.3450    5.4660 ca        1 2F4     -0.058000
     11 C11        -0.6210   -0.0200    6.6560 ca        1 2F4     -0.276300
     12 C12         0.0290   -0.9350    7.5020 ca        1 2F4      0.432200
     13 N13         1.2290   -1.4770    7.2320 nb        1 2F4     -0.714000
     14 C14         1.8290   -1.1030    6.0730 ca        1 2F4      0.632600
     15 O15         3.0900   -1.5890    5.7480 os        1 2F4     -0.363400
     16 C16         3.5910   -2.6570    6.4960 ca        1 2F4      0.100100
     17 C17         2.9490   -3.8980    6.5270 ca        1 2F4     -0.110000
     18 C18         3.5610   -4.9660    7.1750 ca        1 2F4     -0.139000
     19 C19         4.8090   -4.7990    7.8080 ca        1 2F4      0.089600
     20 N20         5.4590   -5.8380    8.5280 nh        1 2F4     -0.654600
     21 C21         4.6830   -6.9330    8.9730 cc        1 2F4      0.598700
     22 N22         4.9900   -8.2570    8.8140 nd        1 2F4     -0.596100
     23 C23         4.0150   -8.9530    9.5450 ca        1 2F4      0.093400
     24 C24         3.8300  -10.3290    9.7490 ca        1 2F4     -0.066000
     25 C25         2.7600  -10.7520   10.5160 ca        1 2F4     -0.160000
     26 C26         1.8490   -9.8370   11.0990 ca        1 2F4      0.101900
     27 F27         0.8200  -10.3070   11.8410 f         1 2F4     -0.127900
     28 C28         1.9980   -8.4440   10.9200 ca        1 2F4      0.086900
     29 F29         1.1350   -7.5620   11.4710 f         1 2F4     -0.126900
     30 C30         3.0890   -8.0100   10.1420 ca        1 2F4     -0.094200
     31 N31         3.5170   -6.7380    9.7700 na        1 2F4     -0.269300
     32 C32         5.4460   -3.5380    7.7560 ca        1 2F4     -0.139000
     33 C33         4.8370   -2.4700    7.1080 ca        1 2F4     -0.110000
     34 H1         -0.4760    0.2450   -0.9220 h1        1 2F4      0.038700
     35 H2          0.0510   -0.9930    0.3130 h1        1 2F4      0.038700
     36 H3         -0.9290    0.4520    0.8300 h1        1 2F4      0.038700
     37 H4          1.6070    1.0240   -0.4920 hn        1 2F4      0.415800
     38 H5          0.0930    0.0590    2.7260 ha        1 2F4      0.143000
     39 H6          3.9140    0.3880    4.7420 ha        1 2F4      0.155000
     40 H7          4.9230    1.0800    2.5320 h4        1 2F4      0.022100
     41 H8         -0.4720    1.0610    4.7790 ha        1 2F4      0.151000
     42 H9         -1.5990    0.3940    6.9310 ha        1 2F4      0.151000
     43 H10        -0.4290   -1.2570    8.4560 h4        1 2F4      0.029100
     44 H11         1.9690   -4.0270    6.0440 ha        1 2F4      0.153000
     45 H12         3.0580   -5.9460    7.1750 ha        1 2F4      0.149000
     46 H13         6.3260   -6.1240    8.1110 hn        1 2F4      0.439800
     47 H15         4.5280  -11.0530    9.3030 ha        1 2F4      0.159000
     48 H16         2.5930  -11.8260   10.6910 ha        1 2F4      0.155000
     49 H17         3.1170   -5.8770   10.0370 hn        1 2F4      0.325700
     50 H18         6.4250   -3.3900    8.2370 ha        1 2F4      0.149000
     51 H19         5.3270   -1.4860    7.0680 ha        1 2F4      0.153000
@<TRIPOS>BOND
     1    1    2 1   
     2    1   34 1   
     3    1   35 1   
     4    1   36 1   
     5    2    3 1   
     6    2   37 1   
     7    3    4 ar  
     8    3    8 ar  
     9    4    5 ar  
    10    4   38 1   
    11    5    6 ar  
    12    5    9 1   
    13    6    7 ar  
    14    6   39 1   
    15    7    8 ar  
    16    7   40 1   
    17    9   10 ar  
    18    9   14 ar  
    19   10   11 ar  
    20   10   41 1   
    21   11   12 ar  
    22   11   42 1   
    23   12   13 ar  
    24   12   43 1   
    25   13   14 ar  
    26   14   15 1   
    27   15   16 1   
    28   16   17 ar  
    29   16   33 ar  
    30   17   18 ar  
    31   17   44 1   
    32   18   19 ar  
    33   18   45 1   
    34   19   20 1   
    35   19   32 ar  
    36   20   21 1   
    37   20   46 1   
    38   21   22 2   
    39   21   31 1   
    40   22   23 1   
    41   23   24 ar  
    42   23   30 ar  
    43   24   25 ar  
    44   24   47 1   
    45   25   26 ar  
    46   25   48 1   
    47   26   27 1   
    48   26   28 ar  
    49   28   29 1   
    50   28   30 ar  
    51   30   31 1   
    52   31   49 1   
    53   32   33 ar  
    54   32   50 1   
    55   33   51 1   
@<TRIPOS>SUBSTRUCTURE
     1 2F4         1 TEMP              0 ****  ****    0 ROOT
