@<TRIPOS>MOLECULE
2F5
   49    53     1     0     0
SMALL
bcc


@<TRIPOS>ATOM
      1 O01         0.0540   -0.5330    0.1550 o         1 2F5     -0.529100
      2 C02         1.2790   -0.3820    0.0650 c         1 2F5      0.537400
      3 C03         2.0750   -0.0870    1.2900 cc        1 2F5      0.329800
      4 N04         1.5080   -0.2590    2.5760 na        1 2F5     -0.248300
      5 C05         2.4740    0.1410    3.4930 ca        1 2F5     -0.061200
      6 C06         2.4930    0.1970    4.8960 ca        1 2F5     -0.137000
      7 C07         3.6530    0.6520    5.4970 ca        1 2F5     -0.101000
      8 C08         4.7790    1.0450    4.7440 ca        1 2F5     -0.156000
      9 C09         4.7860    0.9990    3.3620 ca        1 2F5     -0.060000
     10 C10         3.6290    0.5440    2.7050 ca        1 2F5      0.050400
     11 N11         3.3420    0.3870    1.3410 nd        1 2F5     -0.524100
     12 C12         1.9970   -0.4510   -1.2190 ca        1 2F5     -0.163600
     13 C13         1.3770    0.0930   -2.3550 ca        1 2F5     -0.058500
     14 C14         2.0070    0.0460   -3.5940 ca        1 2F5     -0.143500
     15 C15         3.2700   -0.5570   -3.6850 ca        1 2F5      0.132100
     16 O16         3.9210   -0.4460   -4.9170 os        1 2F5     -0.357400
     17 C17         4.3410   -1.6090   -5.5450 ca        1 2F5      0.500300
     18 N18         3.9810   -2.8210   -5.0700 nb        1 2F5     -0.671000
     19 C19         4.4090   -3.8940   -5.7650 ca        1 2F5      0.286900
     20 C20         5.2020   -3.7560   -6.9240 ca        1 2F5      0.278900
     21 N21         5.5770   -2.5560   -7.4040 nb        1 2F5     -0.664000
     22 C22         5.1550   -1.4380   -6.7450 ca        1 2F5      0.508900
     23 N23         5.4100   -0.1380   -7.2580 nh        1 2F5     -0.709300
     24 C24         6.1970    0.7200   -6.3760 c3        1 2F5      0.145300
     25 C25         6.2950    2.1510   -6.9200 c3        1 2F5      0.124400
     26 O26         6.7710    2.1750   -8.2600 os        1 2F5     -0.414600
     27 C27         5.9650    1.3850   -9.1270 c3        1 2F5      0.124400
     28 C28         5.8670   -0.0680   -8.6430 c3        1 2F5      0.145300
     29 C29         3.8940   -1.1210   -2.5680 ca        1 2F5     -0.143500
     30 C30         3.2500   -1.0650   -1.3330 ca        1 2F5     -0.058500
     31 H1          0.5800   -0.5380    2.7580 hn        1 2F5      0.321700
     32 H2          1.6200   -0.1080    5.4880 ha        1 2F5      0.140000
     33 H3          3.7040    0.7110    6.5960 ha        1 2F5      0.135000
     34 H4          5.6730    1.3990    5.2800 ha        1 2F5      0.136000
     35 H5          5.6670    1.3070    2.7800 ha        1 2F5      0.150000
     36 H7          0.3790    0.5510   -2.2590 ha        1 2F5      0.153000
     37 H8          1.5360    0.4760   -4.4890 ha        1 2F5      0.154000
     38 H9          4.1010   -4.8790   -5.3780 h4        1 2F5      0.039100
     39 H10         5.5580   -4.6340   -7.4890 h4        1 2F5      0.037100
     40 H11         5.7020    0.7560   -5.3660 h1        1 2F5      0.058450
     41 H12         7.2420    0.3130   -6.2480 h1        1 2F5      0.058450
     42 H13         7.0620    2.7270   -6.3390 h1        1 2F5      0.057950
     43 H14         5.2990    2.6650   -6.8640 h1        1 2F5      0.057950
     44 H15         6.4970    1.4210  -10.1140 h1        1 2F5      0.057950
     45 H16         4.9470    1.8460   -9.2190 h1        1 2F5      0.057950
     46 H17         5.1240   -0.6120   -9.2890 h1        1 2F5      0.058450
     47 H18         6.8750   -0.5550   -8.7720 h1        1 2F5      0.058450
     48 H19         4.8750   -1.6070   -2.6630 ha        1 2F5      0.154000
     49 H20         3.7370   -1.5120   -0.4520 ha        1 2F5      0.153000
@<TRIPOS>BOND
     1    1    2 2   
     2    2    3 1   
     3    2   12 1   
     4    3    4 1   
     5    3   11 2   
     6    4    5 1   
     7    4   31 1   
     8    5    6 ar  
     9    5   10 ar  
    10    6    7 ar  
    11    6   32 1   
    12    7    8 ar  
    13    7   33 1   
    14    8    9 ar  
    15    8   34 1   
    16    9   10 ar  
    17    9   35 1   
    18   10   11 1   
    19   12   13 ar  
    20   12   30 ar  
    21   13   14 ar  
    22   13   36 1   
    23   14   15 ar  
    24   14   37 1   
    25   15   16 1   
    26   15   29 ar  
    27   16   17 1   
    28   17   18 ar  
    29   17   22 ar  
    30   18   19 ar  
    31   19   20 ar  
    32   19   38 1   
    33   20   21 ar  
    34   20   39 1   
    35   21   22 ar  
    36   22   23 1   
    37   23   24 1   
    38   23   28 1   
    39   24   25 1   
    40   24   40 1   
    41   24   41 1   
    42   25   26 1   
    43   25   42 1   
    44   25   43 1   
    45   26   27 1   
    46   27   28 1   
    47   27   44 1   
    48   27   45 1   
    49   28   46 1   
    50   28   47 1   
    51   29   30 ar  
    52   29   48 1   
    53   30   49 1   
@<TRIPOS>SUBSTRUCTURE
     1 2F5         1 TEMP              0 ****  ****    0 ROOT
