@<TRIPOS>MOLECULE
2F5
   49    42     1     0     0
SMALL
bcc


@<TRIPOS>ATOM
      1 O01        -2.0580   -2.4300    4.1240 o         1 2F5     -0.291000
      2 C02        -1.8190   -1.3740    3.5760 c1        1 2F5      0.347000
      3 C03        -2.3230   -0.0800    4.1750 c1        1 2F5     -0.067000
      4 N04        -1.9680    0.3780    5.4050 n2        1 2F5     -0.206000
      5 C05        -2.6160    1.5500    5.6190 c1        1 2F5     -0.016000
      6 C06        -2.5730    2.4690    6.6850 c1        1 2F5     -0.137000
      7 C07        -3.3020    3.6460    6.6150 c1        1 2F5     -0.128500
      8 C08        -4.0720    3.9190    5.4960 c1        1 2F5     -0.128500
      9 C09        -4.1150    3.0140    4.4470 c1        1 2F5     -0.059000
     10 C10        -3.3750    1.8180    4.5170 c1        1 2F5     -0.089000
     11 N11        -3.1920    0.8100    3.6280 n1        1 2F5     -0.094000
     12 C12        -1.0480   -1.3550    2.2750 c2        1 2F5     -0.142000
     13 C13        -1.7120   -1.5540    1.0740 c2        1 2F5     -0.051000
     14 C14        -0.9990   -1.5880   -0.1140 c1        1 2F5     -0.142000
     15 C15         0.3770   -1.4220   -0.1010 c1        1 2F5      0.087000
     16 O16         1.1070   -1.5180   -1.2990 os        1 2F5     -0.152000
     17 C17         1.0900   -0.2750   -1.9590 c1        1 2F5      0.051000
     18 N18         0.5680    0.8020   -1.3510 n1        1 2F5     -0.142000
     19 C19         0.5490    1.9870   -1.9820 c1        1 2F5     -0.118500
     20 C20         1.0690    2.0980   -3.2630 c1        1 2F5     -0.118500
     21 N21         1.5910    1.0210   -3.8720 n1        1 2F5     -0.142000
     22 C22         1.6100   -0.1640   -3.2410 c1        1 2F5      0.070000
     23 N23         2.2180   -1.2890   -3.8610 n3        1 2F5     -0.215000
     24 C24         3.6450   -0.9240   -4.3020 c3        1 2F5     -0.077000
     25 C25         4.3170   -2.0300   -5.0850 c3        1 2F5     -0.033000
     26 O26         3.4690   -2.8380   -5.5560 os        1 2F5     -0.277000
     27 C27         2.3440   -2.5580   -6.0580 c3        1 2F5     -0.033000
     28 C28         1.6560   -1.4570   -5.2830 c3        1 2F5     -0.077000
     29 C29         1.0400   -1.2230    1.0990 c1        1 2F5     -0.141000
     30 C30         0.3280   -1.1890    2.2870 c1        1 2F5     -0.068000
     31 H1         -1.4070   -0.0390    5.9900 DU        1 2F5      0.272000
     32 H2         -2.0300    2.2770    7.4740 ha        1 2F5      0.140000
     33 H3         -3.2720    4.2840    7.3550 ha        1 2F5      0.135500
     34 H4         -4.5860    4.7490    5.4470 ha        1 2F5      0.135500
     35 H5         -4.6570    3.2060    3.6600 ha        1 2F5      0.150000
     36 H7         -2.6810   -1.6710    1.0650 ha        1 2F5      0.154000
     37 H8         -1.4660   -1.7280   -0.9580 ha        1 2F5      0.152000
     38 H9          0.1670    2.7730   -1.5380 ha        1 2F5      0.174500
     39 H10         1.0550    2.9630   -3.7240 ha        1 2F5      0.174500
     40 H11         4.1820   -0.7310   -3.5060 h1        1 2F5      0.105500
     41 H12         3.6070   -0.1190   -4.8610 h1        1 2F5      0.105500
     42 H13         4.8280   -1.6350   -5.8240 h1        1 2F5      0.094250
     43 H14         4.9300   -2.5150   -4.4940 h1        1 2F5      0.094250
     44 H15         1.7800   -3.3590   -6.0470 h1        1 2F5      0.094250
     45 H16         2.4710   -2.2680   -6.9830 h1        1 2F5      0.094250
     46 H17         1.7670   -0.6150   -5.7670 h1        1 2F5      0.105500
     47 H18         0.7020   -1.6630   -5.2230 h1        1 2F5      0.105500
     48 H19         2.0080   -1.1060    1.1080 ha        1 2F5      0.156000
     49 H20         0.7950   -1.0490    3.1330 ha        1 2F5      0.152000
@<TRIPOS>BOND
     1    1    2 1   
     2    2   12 1   
     3    3    4 1   
     4    3   11 1   
     5    4    5 1   
     6    5    6 1   
     7    6   32 1   
     8    7    8 1   
     9    7   33 1   
    10    8   34 1   
    11    9   10 1   
    12    9   35 1   
    13   12   13 1   
    14   12   30 1   
    15   13   14 1   
    16   13   36 1   
    17   14   37 1   
    18   15   16 1   
    19   15   29 1   
    20   16   17 1   
    21   17   22 1   
    22   18   19 1   
    23   19   38 1   
    24   20   21 1   
    25   20   39 1   
    26   22   23 1   
    27   23   24 1   
    28   23   28 1   
    29   24   25 1   
    30   24   40 1   
    31   24   41 1   
    32   25   26 1   
    33   25   42 1   
    34   25   43 1   
    35   26   27 1   
    36   27   28 1   
    37   27   44 1   
    38   27   45 1   
    39   28   46 1   
    40   28   47 1   
    41   29   48 1   
    42   30   49 1   
@<TRIPOS>SUBSTRUCTURE
     1 2F5         1 TEMP              0 ****  ****    0 ROOT
