@<TRIPOS>MOLECULE
2F5
   49    53     1     0     0
SMALL
bcc


@<TRIPOS>ATOM
      1 O01         0.0470   -0.5070    0.1500 o         1 2F5     -0.529100
      2 C02         1.2740   -0.3660    0.0610 c         1 2F5      0.537400
      3 C03         2.0710   -0.0810    1.2870 cc        1 2F5      0.329800
      4 N04         1.5020   -0.2520    2.5720 na        1 2F5     -0.248300
      5 C05         2.4700    0.1390    3.4910 ca        1 2F5     -0.061200
      6 C06         2.4880    0.1900    4.8940 ca        1 2F5     -0.137000
      7 C07         3.6510    0.6340    5.4980 ca        1 2F5     -0.101000
      8 C08         4.7810    1.0220    4.7470 ca        1 2F5     -0.156000
      9 C09         4.7890    0.9790    3.3640 ca        1 2F5     -0.060000
     10 C10         3.6290    0.5340    2.7050 ca        1 2F5      0.050400
     11 N11         3.3410    0.3830    1.3400 nd        1 2F5     -0.524100
     12 C12         1.9920   -0.4380   -1.2230 ca        1 2F5     -0.163600
     13 C13         1.3770    0.1130   -2.3580 ca        1 2F5     -0.058500
     14 C14         2.0080    0.0650   -3.5960 ca        1 2F5     -0.143500
     15 C15         3.2660   -0.5480   -3.6880 ca        1 2F5      0.132100
     16 O16         3.9180   -0.4390   -4.9190 os        1 2F5     -0.357400
     17 C17         4.3330   -1.6040   -5.5480 ca        1 2F5      0.499300
     18 N18         3.9620   -2.8140   -5.0770 nb        1 2F5     -0.671000
     19 C19         4.3840   -3.8890   -5.7730 ca        1 2F5      0.286900
     20 C20         5.1810   -3.7540   -6.9300 ca        1 2F5      0.278900
     21 N21         5.5670   -2.5570   -7.4060 nb        1 2F5     -0.664000
     22 C22         5.1510   -1.4370   -6.7460 ca        1 2F5      0.508900
     23 N23         5.4160   -0.1370   -7.2550 nh        1 2F5     -0.709300
     24 C24         6.2070    0.7130   -6.3700 c3        1 2F5      0.145300
     25 C25         6.3160    2.1450   -6.9110 c3        1 2F5      0.124400
     26 O26         6.7960    2.1680   -8.2500 os        1 2F5     -0.414600
     27 C27         5.9880    1.3850   -9.1200 c3        1 2F5      0.124400
     28 C28         5.8780   -0.0680   -8.6390 c3        1 2F5      0.145300
     29 C29         3.8850   -1.1190   -2.5720 ca        1 2F5     -0.143500
     30 C30         3.2400   -1.0610   -1.3370 ca        1 2F5     -0.058500
     31 H1          0.5710   -0.5240    2.7530 hn        1 2F5      0.321700
     32 H2          1.6130   -0.1100    5.4850 ha        1 2F5      0.140000
     33 H3          3.7020    0.6900    6.5960 ha        1 2F5      0.135000
     34 H4          5.6770    1.3670    5.2840 ha        1 2F5      0.136000
     35 H5          5.6720    1.2820    2.7840 ha        1 2F5      0.150000
     36 H7          0.3830    0.5790   -2.2620 ha        1 2F5      0.153000
     37 H8          1.5410    0.5000   -4.4910 ha        1 2F5      0.153500
     38 H9          4.0680   -4.8730   -5.3890 h4        1 2F5      0.039100
     39 H10         5.5330   -4.6340   -7.4950 h4        1 2F5      0.037100
     40 H11         5.7090    0.7510   -5.3620 h1        1 2F5      0.058450
     41 H12         7.2490    0.2990   -6.2390 h1        1 2F5      0.058450
     42 H13         7.0860    2.7140   -6.3260 h1        1 2F5      0.057950
     43 H14         5.3240    2.6660   -6.8570 h1        1 2F5      0.057950
     44 H15         4.9730    1.8530   -9.2140 h1        1 2F5      0.057950
     45 H16         6.5220    1.4190  -10.1060 h1        1 2F5      0.057950
     46 H17         6.8840   -0.5620   -8.7660 h1        1 2F5      0.058450
     47 H18         5.1330   -0.6060   -9.2890 h1        1 2F5      0.058450
     48 H19         4.8620   -1.6130   -2.6670 ha        1 2F5      0.153500
     49 H20         3.7230   -1.5140   -0.4570 ha        1 2F5      0.153000
@<TRIPOS>BOND
     1    1    2 2   
     2    2    3 1   
     3    2   12 1   
     4    3    4 1   
     5    3   11 2   
     6    4    5 1   
     7    4   31 1   
     8    5    6 ar  
     9    5   10 ar  
    10    6    7 ar  
    11    6   32 1   
    12    7    8 ar  
    13    7   33 1   
    14    8    9 ar  
    15    8   34 1   
    16    9   10 ar  
    17    9   35 1   
    18   10   11 1   
    19   12   13 ar  
    20   12   30 ar  
    21   13   14 ar  
    22   13   36 1   
    23   14   15 ar  
    24   14   37 1   
    25   15   16 1   
    26   15   29 ar  
    27   16   17 1   
    28   17   18 ar  
    29   17   22 ar  
    30   18   19 ar  
    31   19   20 ar  
    32   19   38 1   
    33   20   21 ar  
    34   20   39 1   
    35   21   22 ar  
    36   22   23 1   
    37   23   24 1   
    38   23   28 1   
    39   24   25 1   
    40   24   40 1   
    41   24   41 1   
    42   25   26 1   
    43   25   42 1   
    44   25   43 1   
    45   26   27 1   
    46   27   28 1   
    47   27   44 1   
    48   27   45 1   
    49   28   46 1   
    50   28   47 1   
    51   29   30 ar  
    52   29   48 1   
    53   30   49 1   
@<TRIPOS>SUBSTRUCTURE
     1 2F5         1 TEMP              0 ****  ****    0 ROOT
