@<TRIPOS>MOLECULE
2F5
   49    53     1     0     0
SMALL
bcc


@<TRIPOS>ATOM
      1 O01         3.5870   -2.9620   -0.5080 o         1 2F5     -0.529100
      2 C02         3.1880   -1.8120   -0.2820 c         1 2F5      0.537400
      3 C03         4.1740   -0.7440    0.0480 cc        1 2F5      0.329800
      4 N04         5.5570   -0.9480   -0.1730 na        1 2F5     -0.248300
      5 C05         6.2050    0.1970    0.2770 ca        1 2F5     -0.061200
      6 C06         7.5570    0.5750    0.3180 ca        1 2F5     -0.137000
      7 C07         7.8510    1.8240    0.8370 ca        1 2F5     -0.101000
      8 C08         6.8440    2.6920    1.3070 ca        1 2F5     -0.156000
      9 C09         5.5050    2.3440    1.2760 ca        1 2F5     -0.060000
     10 C10         5.1570    1.0850    0.7580 ca        1 2F5      0.050400
     11 N11         3.9090    0.4630    0.5990 nd        1 2F5     -0.524100
     12 C12         1.7610   -1.4470   -0.2940 ca        1 2F5     -0.163600
     13 C13         0.8380   -2.3700    0.2220 ca        1 2F5     -0.058500
     14 C14        -0.5220   -2.0800    0.2270 ca        1 2F5     -0.143500
     15 C15        -0.9520   -0.8520   -0.2970 ca        1 2F5      0.132100
     16 O16        -2.3060   -0.5490   -0.1340 os        1 2F5     -0.357400
     17 C17        -3.0500   -0.2370   -1.2620 ca        1 2F5      0.499300
     18 N18        -2.5300   -0.3940   -2.4990 nb        1 2F5     -0.671000
     19 C19        -3.3380   -0.0980   -3.5370 ca        1 2F5      0.286900
     20 C20        -4.6570    0.3620   -3.3380 ca        1 2F5      0.278900
     21 N21        -5.1860    0.5330   -2.1130 nb        1 2F5     -0.664000
     22 C22        -4.4140    0.2300   -1.0300 ca        1 2F5      0.508900
     23 N23        -4.9410    0.2700    0.2890 nh        1 2F5     -0.709300
     24 C24        -4.2680    1.2060    1.1850 c3        1 2F5      0.145300
     25 C25        -4.7830    1.0790    2.6250 c3        1 2F5      0.124400
     26 O26        -6.1990    1.1940    2.6910 os        1 2F5     -0.414600
     27 C27        -6.8510    0.2400    1.8610 c3        1 2F5      0.124400
     28 C28        -6.3940    0.3520    0.4000 c3        1 2F5      0.145300
     29 C29        -0.0480    0.0710   -0.8330 ca        1 2F5     -0.143500
     30 C30         1.3130   -0.2340   -0.8290 ca        1 2F5     -0.058500
     31 H1          5.9650   -1.7800   -0.5100 hn        1 2F5      0.321700
     32 H2          8.3450   -0.0960   -0.0460 ha        1 2F5      0.140000
     33 H3          8.9000    2.1540    0.8870 ha        1 2F5      0.135000
     34 H4          7.1400    3.6730    1.7100 ha        1 2F5      0.136000
     35 H5          4.7250    3.0260    1.6450 ha        1 2F5      0.150000
     36 H7          1.1980   -3.3330    0.6170 ha        1 2F5      0.153000
     37 H8         -1.2550   -2.7900    0.6360 ha        1 2F5      0.153500
     38 H9         -2.9110   -0.2400   -4.5430 h4        1 2F5      0.039100
     39 H10        -5.3160    0.6120   -4.1870 h4        1 2F5      0.037100
     40 H11        -3.1650    0.9850    1.1810 h1        1 2F5      0.058450
     41 H12        -4.4210    2.2710    0.8430 h1        1 2F5      0.058450
     42 H13        -4.4620    0.1030    3.0750 h1        1 2F5      0.057950
     43 H14        -4.4020    1.9350    3.2410 h1        1 2F5      0.057950
     44 H15        -6.6680   -0.7930    2.2590 h1        1 2F5      0.057950
     45 H16        -7.9400    0.4970    1.9390 h1        1 2F5      0.057950
     46 H17        -6.7900    1.3200   -0.0230 h1        1 2F5      0.058450
     47 H18        -6.8440   -0.4990   -0.1830 h1        1 2F5      0.058450
     48 H19        -0.4050    1.0200   -1.2570 ha        1 2F5      0.153500
     49 H20         2.0260    0.4880   -1.2540 ha        1 2F5      0.153000
@<TRIPOS>BOND
     1    1    2 2   
     2    2    3 1   
     3    2   12 1   
     4    3    4 1   
     5    3   11 2   
     6    4    5 1   
     7    4   31 1   
     8    5    6 ar  
     9    5   10 ar  
    10    6    7 ar  
    11    6   32 1   
    12    7    8 ar  
    13    7   33 1   
    14    8    9 ar  
    15    8   34 1   
    16    9   10 ar  
    17    9   35 1   
    18   10   11 1   
    19   12   13 ar  
    20   12   30 ar  
    21   13   14 ar  
    22   13   36 1   
    23   14   15 ar  
    24   14   37 1   
    25   15   16 1   
    26   15   29 ar  
    27   16   17 1   
    28   17   18 ar  
    29   17   22 ar  
    30   18   19 ar  
    31   19   20 ar  
    32   19   38 1   
    33   20   21 ar  
    34   20   39 1   
    35   21   22 ar  
    36   22   23 1   
    37   23   24 1   
    38   23   28 1   
    39   24   25 1   
    40   24   40 1   
    41   24   41 1   
    42   25   26 1   
    43   25   42 1   
    44   25   43 1   
    45   26   27 1   
    46   27   28 1   
    47   27   44 1   
    48   27   45 1   
    49   28   46 1   
    50   28   47 1   
    51   29   30 ar  
    52   29   48 1   
    53   30   49 1   
@<TRIPOS>SUBSTRUCTURE
     1 2F5         1 TEMP              0 ****  ****    0 ROOT
