@<TRIPOS>MOLECULE
2F5
   49    53     1     0     0
SMALL
bcc


@<TRIPOS>ATOM
      1 O01         0.0520   -0.5590    0.1510 o         1 2F5     -0.529100
      2 C02         1.2760   -0.3970    0.0610 c         1 2F5      0.537400
      3 C03         2.0680   -0.0900    1.2860 cc        1 2F5      0.329800
      4 N04         1.5020   -0.2650    2.5720 na        1 2F5     -0.248300
      5 C05         2.4620    0.1490    3.4890 ca        1 2F5     -0.061200
      6 C06         2.4800    0.2090    4.8910 ca        1 2F5     -0.137000
      7 C07         3.6350    0.6780    5.4920 ca        1 2F5     -0.101000
      8 C08         4.7560    1.0810    4.7390 ca        1 2F5     -0.156000
      9 C09         4.7660    1.0310    3.3570 ca        1 2F5     -0.060000
     10 C10         3.6140    0.5610    2.7000 ca        1 2F5      0.050400
     11 N11         3.3290    0.3980    1.3360 nd        1 2F5     -0.524100
     12 C12         1.9960   -0.4650   -1.2220 ca        1 2F5     -0.163600
     13 C13         1.3710    0.0680   -2.3610 ca        1 2F5     -0.058500
     14 C14         2.0030    0.0220   -3.5980 ca        1 2F5     -0.143500
     15 C15         3.2720   -0.5680   -3.6860 ca        1 2F5      0.132100
     16 O16         3.9220   -0.4560   -4.9180 os        1 2F5     -0.357400
     17 C17         4.3580   -1.6170   -5.5390 ca        1 2F5      0.499300
     18 N18         4.0090   -2.8310   -5.0590 nb        1 2F5     -0.671000
     19 C19         4.4510   -3.9020   -5.7480 ca        1 2F5      0.286900
     20 C20         5.2470   -3.7610   -6.9050 ca        1 2F5      0.278900
     21 N21         5.6100   -2.5600   -7.3890 nb        1 2F5     -0.664000
     22 C22         5.1740   -1.4440   -6.7380 ca        1 2F5      0.508900
     23 N23         5.4150   -0.1430   -7.2560 nh        1 2F5     -0.709300
     24 C24         6.1900    0.7280   -6.3760 c3        1 2F5      0.145300
     25 C25         6.2740    2.1580   -6.9270 c3        1 2F5      0.124400
     26 O26         6.7540    2.1800   -8.2650 os        1 2F5     -0.414600
     27 C27         5.9610    1.3770   -9.1310 c3        1 2F5      0.124400
     28 C28         5.8770   -0.0750   -8.6390 c3        1 2F5      0.145300
     29 C29         3.9010   -1.1210   -2.5660 ca        1 2F5     -0.143500
     30 C30         3.2550   -1.0660   -1.3320 ca        1 2F5     -0.058500
     31 H1          0.5760   -0.5520    2.7550 hn        1 2F5      0.321700
     32 H2          1.6100   -0.1040    5.4830 ha        1 2F5      0.140000
     33 H3          3.6840    0.7400    6.5900 ha        1 2F5      0.135000
     34 H4          5.6460    1.4460    5.2740 ha        1 2F5      0.136000
     35 H5          5.6430    1.3470    2.7750 ha        1 2F5      0.150000
     36 H7          0.3680    0.5160   -2.2680 ha        1 2F5      0.153000
     37 H8          1.5280    0.4430   -4.4960 ha        1 2F5      0.153500
     38 H9          4.1530   -4.8900   -5.3570 h4        1 2F5      0.039100
     39 H10         5.6140   -4.6380   -7.4640 h4        1 2F5      0.037100
     40 H11         5.6910    0.7640   -5.3680 h1        1 2F5      0.058450
     41 H12         7.2390    0.3340   -6.2420 h1        1 2F5      0.058450
     42 H13         5.2720    2.6600   -6.8770 h1        1 2F5      0.057950
     43 H14         7.0320    2.7450   -6.3460 h1        1 2F5      0.057950
     44 H15         4.9370    1.8250   -9.2280 h1        1 2F5      0.057950
     45 H16         6.4950    1.4130  -10.1160 h1        1 2F5      0.057950
     46 H17         6.8920   -0.5520   -8.7630 h1        1 2F5      0.058450
     47 H18         5.1430   -0.6310   -9.2860 h1        1 2F5      0.058450
     48 H19         4.8870   -1.5970   -2.6580 ha        1 2F5      0.153500
     49 H20         3.7450   -1.5040   -0.4490 ha        1 2F5      0.153000
@<TRIPOS>BOND
     1    1    2 2   
     2    2    3 1   
     3    2   12 1   
     4    3    4 1   
     5    3   11 2   
     6    4    5 1   
     7    4   31 1   
     8    5    6 ar  
     9    5   10 ar  
    10    6    7 ar  
    11    6   32 1   
    12    7    8 ar  
    13    7   33 1   
    14    8    9 ar  
    15    8   34 1   
    16    9   10 ar  
    17    9   35 1   
    18   10   11 1   
    19   12   13 ar  
    20   12   30 ar  
    21   13   14 ar  
    22   13   36 1   
    23   14   15 ar  
    24   14   37 1   
    25   15   16 1   
    26   15   29 ar  
    27   16   17 1   
    28   17   18 ar  
    29   17   22 ar  
    30   18   19 ar  
    31   19   20 ar  
    32   19   38 1   
    33   20   21 ar  
    34   20   39 1   
    35   21   22 ar  
    36   22   23 1   
    37   23   24 1   
    38   23   28 1   
    39   24   25 1   
    40   24   40 1   
    41   24   41 1   
    42   25   26 1   
    43   25   42 1   
    44   25   43 1   
    45   26   27 1   
    46   27   28 1   
    47   27   44 1   
    48   27   45 1   
    49   28   46 1   
    50   28   47 1   
    51   29   30 ar  
    52   29   48 1   
    53   30   49 1   
@<TRIPOS>SUBSTRUCTURE
     1 2F5         1 TEMP              0 ****  ****    0 ROOT
