@<TRIPOS>MOLECULE
2F6
   22    23     1     0     0
SMALL
bcc


@<TRIPOS>ATOM
      1 N3         -0.0490    0.0710    0.0130 nc        1 2F6     -0.519800
      2 C5         -1.8130   -0.0030    1.7190 c3        1 2F6      0.042600
      3 C6          0.6570   -0.0360    2.1700 cc        1 2F6     -0.129300
      4 C7          1.8140   -0.0020    1.3680 cd        1 2F6     -0.291800
      5 C8          3.1650   -0.0290    1.8300 cd        1 2F6      0.404800
      6 C10         4.9710   -0.1020    3.1940 cc        1 2F6     -0.148300
      7 C1          2.1430    0.1230   -1.2170 c3        1 2F6     -0.121400
      8 C2          1.3150    0.0670    0.0010 cd        1 2F6      0.346600
      9 N4         -0.4340    0.0090    1.3000 na        1 2F6      0.088400
     10 C9          3.5720   -0.0990    3.2250 cd        1 2F6     -0.295300
     11 N11         5.3320   -0.0370    1.8460 na        1 2F6     -0.021600
     12 N13         4.2800    0.0070    1.0310 nc        1 2F6     -0.516800
     13 H1         -2.3260    0.9400    1.3880 h1        1 2F6      0.056367
     14 H2         -1.8490   -0.0750    2.8370 h1        1 2F6      0.056367
     15 H3         -2.3460   -0.8830    1.2690 h1        1 2F6      0.056367
     16 H4          0.5450   -0.0890    3.2510 h4        1 2F6      0.174000
     17 H5          5.7100   -0.1440    3.9920 h4        1 2F6      0.174000
     18 H6          1.5220    0.1700   -2.1450 hc        1 2F6      0.054700
     19 H7          2.7950   -0.7850   -1.2670 hc        1 2F6      0.054700
     20 H8          2.8010    1.0270   -1.1790 hc        1 2F6      0.054700
     21 H9          2.9190   -0.1400    4.0870 ha        1 2F6      0.161000
     22 H10         6.2510   -0.0210    1.4720 hn        1 2F6      0.319700
@<TRIPOS>BOND
     1    1    8 2   
     2    1    9 1   
     3    2    9 1   
     4    2   13 1   
     5    2   14 1   
     6    2   15 1   
     7    3    4 2   
     8    3    9 1   
     9    3   16 1   
    10    4    5 1   
    11    4    8 1   
    12    5   10 1   
    13    5   12 2   
    14    6   10 2   
    15    6   11 1   
    16    6   17 1   
    17    7    8 1   
    18    7   18 1   
    19    7   19 1   
    20    7   20 1   
    21   10   21 1   
    22   11   12 1   
    23   11   22 1   
@<TRIPOS>SUBSTRUCTURE
     1 2F6         1 TEMP              0 ****  ****    0 ROOT
