@<TRIPOS>MOLECULE
2F7
   65    65     1     0     0
SMALL
bcc


@<TRIPOS>ATOM
      1 OE1         0.0000    0.0000    0.0000 o         1 2F7     -0.790800
      2 CD          1.2090    0.0000    0.0000 c         1 2F7      0.984600
      3 OE2         1.8790    0.0000    1.1630 o         1 2F7     -0.790800
      4 CG          1.9620   -0.0070   -1.3050 c3        1 2F7     -0.152400
      5 CB          0.9680   -0.0120   -2.4670 c3        1 2F7     -0.017400
      6 CA          1.7330   -0.0190   -3.7930 c3        1 2F7     -0.090500
      7 C           0.7590   -0.1470   -4.9350 c         1 2F7      0.986600
      8 O           0.6980    0.7170   -5.7770 o         1 2F7     -0.840800
      9 OXT        -0.0410   -1.2220   -5.0170 o         1 2F7     -0.840800
     10 N           2.4860    1.2350   -3.9300 ny        1 2F7     -0.166100
     11 PBK         3.9510    0.9760   -4.7150 p5        1 2F7      0.693700
     12 OAL         3.6750    0.3770   -6.1840 o         1 2F7     -0.565000
     13 OAH         4.6800    2.2590   -4.8350 o         1 2F7     -0.565000
     14 OAY         4.8370   -0.0670   -3.8680 os        1 2F7     -0.473200
     15 CAU         5.4250    0.2560   -2.6060 c3        1 2F7      0.278400
     16 CBI         6.1960   -0.9550   -2.0780 c3        1 2F7     -0.184500
     17 CBB         5.2800   -2.1500   -2.0260 c         1 2F7      0.955600
     18 OAK         4.5180   -2.3650   -0.9420 o         1 2F7     -0.785800
     19 OAE         5.2310   -2.9160   -2.9600 o         1 2F7     -0.785800
     20 NAW         7.3240   -1.2420   -2.9680 ny        1 2F7      0.148200
     21 CBD         8.4170   -1.8700   -2.4900 c         1 2F7      0.358100
     22 OAG         8.4310   -2.2790   -1.3480 o         1 2F7     -0.456100
     23 CBJ         9.6210   -2.0620   -3.3750 c3        1 2F7     -0.145500
     24 CBG         9.3710   -3.2320   -4.3300 c3        1 2F7     -0.060700
     25 CAB         9.2520   -4.5290   -3.5270 c3        1 2F7     -0.026100
     26 CAR        10.5380   -3.3460   -5.3120 c3        1 2F7     -0.048400
     27 CAA        10.5650   -2.1130   -6.2180 c3        1 2F7      0.004900
     28 NAV        10.7940   -2.3520   -2.5460 ny        1 2F7      0.177200
     29 CBC        12.0300   -2.0730   -3.0040 c         1 2F7      0.293700
     30 OAF        12.1720   -1.5800   -4.1070 o         1 2F7     -0.511100
     31 CBF        13.2130   -2.3640   -2.1690 ca        1 2F7     -0.206600
     32 CAP        14.4950   -2.0750   -2.6420 ca        1 2F7     -0.034000
     33 CAN        15.5940   -2.3500   -1.8590 ca        1 2F7     -0.121000
     34 CBE        15.4290   -2.9120   -0.6010 ca        1 2F7      0.149900
     35 FAM        16.5110   -3.1780    0.1630 f         1 2F7     -0.112900
     36 CAO        14.1600   -3.1990   -0.1270 ca        1 2F7     -0.121000
     37 CAQ        13.0520   -2.9240   -0.9000 ca        1 2F7     -0.034000
     38 H2          2.5840   -0.8920   -1.3580 hc        1 2F7      0.023200
     39 H3          2.5850    0.8770   -1.3660 hc        1 2F7      0.023200
     40 H4          0.3440   -0.8960   -2.4060 hc        1 2F7      0.051200
     41 H5          0.3450    0.8730   -2.4140 hc        1 2F7      0.051200
     42 H6          2.4200   -0.8560   -3.8080 hx        1 2F7      0.088700
     43 H8          1.9420    1.8890   -4.4570 hn        1 2F7      0.288800
     44 H10         6.1040    1.0920   -2.7270 h1        1 2F7      0.010700
     45 H11         4.6460    0.5240   -1.9020 h1        1 2F7      0.010700
     46 H12         6.5670   -0.7410   -1.0830 hx        1 2F7      0.084700
     47 H14         6.9690   -1.8050   -3.7160 hn        1 2F7      0.269300
     48 H15         9.7980   -1.1590   -3.9470 hx        1 2F7      0.124700
     49 H16         8.4530   -3.0600   -4.8780 hc        1 2F7      0.086700
     50 H17         8.7800   -5.2890   -4.1380 hc        1 2F7      0.031033
     51 H18        10.2390   -4.8630   -3.2320 hc        1 2F7      0.031033
     52 H19         8.6510   -4.3520   -2.6430 hc        1 2F7      0.031033
     53 H20        10.4150   -4.2360   -5.9180 hc        1 2F7      0.032200
     54 H21        11.4690   -3.4100   -4.7620 hc        1 2F7      0.032200
     55 H22        10.3800   -1.2250   -5.6260 hc        1 2F7      0.015700
     56 H23        11.5360   -2.0340   -6.6930 hc        1 2F7      0.015700
     57 H24         9.7980   -2.2060   -6.9780 hc        1 2F7      0.015700
     58 H25        10.7730   -3.3330   -2.3450 hn        1 2F7      0.259300
     59 H26        14.6240   -1.6360   -3.6240 ha        1 2F7      0.114500
     60 H27        16.5890   -2.1270   -2.2250 ha        1 2F7      0.134000
     61 H28        14.0370   -3.6360    0.8570 ha        1 2F7      0.134000
     62 H29        12.0600   -3.1500   -0.5280 ha        1 2F7      0.114500
     63 H2A         2.6630    1.6130   -3.0200 hn        1 2F7      0.288800
     64 HAW2        7.6310   -0.3660   -3.3410 hn        1 2F7      0.269300
     65 HAV2       10.6780   -1.8460   -1.6900 hn        1 2F7      0.259300
@<TRIPOS>BOND
     1    1    2 1   
     2    2    3 1   
     3    2    4 1   
     4    4    5 1   
     5    4   38 1   
     6    4   39 1   
     7    5    6 1   
     8    5   40 1   
     9    5   41 1   
    10    6    7 1   
    11    6   10 1   
    12    6   42 1   
    13    7    8 1   
    14    7    9 1   
    15   10   11 1   
    16   10   43 1   
    17   10   63 1   
    18   11   12 1   
    19   11   13 1   
    20   11   14 1   
    21   14   15 1   
    22   15   16 1   
    23   15   44 1   
    24   15   45 1   
    25   16   17 1   
    26   16   20 1   
    27   16   46 1   
    28   17   18 1   
    29   17   19 1   
    30   20   21 1   
    31   20   47 1   
    32   20   64 1   
    33   21   22 2   
    34   21   23 1   
    35   23   24 1   
    36   23   28 1   
    37   23   48 1   
    38   24   25 1   
    39   24   26 1   
    40   24   49 1   
    41   25   50 1   
    42   25   51 1   
    43   25   52 1   
    44   26   27 1   
    45   26   53 1   
    46   26   54 1   
    47   27   55 1   
    48   27   56 1   
    49   27   57 1   
    50   28   29 1   
    51   28   58 1   
    52   28   65 1   
    53   29   30 2   
    54   29   31 1   
    55   31   32 ar  
    56   31   37 ar  
    57   32   33 ar  
    58   32   59 1   
    59   33   34 ar  
    60   33   60 1   
    61   34   35 1   
    62   34   36 ar  
    63   36   37 ar  
    64   36   61 1   
    65   37   62 1   
@<TRIPOS>SUBSTRUCTURE
     1 2F7         1 TEMP              0 ****  ****    0 ROOT
