@<TRIPOS>MOLECULE
2F8
   33    33     1     0     0
SMALL
bcc


@<TRIPOS>ATOM
      1 O6         -2.6680    0.6540   -3.2900 oh        1 2F8     -0.595800
      2 C6         -1.2570    0.6540   -3.2900 c3        1 2F8      0.139400
      3 C5         -0.7610    0.6540   -1.8870 c3        1 2F8      0.105100
      4 O5         -1.3650   -0.4900   -1.1660 os        1 2F8     -0.449600
      5 C1         -0.9350   -0.5730    0.2250 c3        1 2F8      0.314900
      6 O1         -1.4810    0.4960    0.9300 os        1 2F8     -0.452600
      7 CM         -2.7600    0.2300    1.4780 c3        1 2F8      0.119700
      8 C2          0.5800   -0.5370    0.3710 c3        1 2F8      0.097700
      9 N2          0.9140   -0.4430    1.7800 n         1 2F8     -0.560900
     10 C7          1.5870   -1.5240    2.4280 c         1 2F8      0.666100
     11 O7          1.8790   -2.5220    1.7990 o         1 2F8     -0.604100
     12 C8          1.9620   -1.4150    3.8950 c3        1 2F8     -0.174100
     13 C3          1.1890    0.6140   -0.3450 c3        1 2F8      0.088100
     14 O3          2.6240    0.3780   -0.2550 oh        1 2F8     -0.591800
     15 C4          0.7540    0.5960   -1.9030 c3        1 2F8      0.087100
     16 O4          1.2610    1.8260   -2.4600 oh        1 2F8     -0.593800
     17 H1         -2.9640    0.6710   -4.1260 ho        1 2F8      0.409000
     18 H2         -0.9320    1.4510   -3.7500 h1        1 2F8      0.061200
     19 H3         -0.9320   -0.1430   -3.7500 h1        1 2F8      0.061200
     20 H4         -1.0400    1.4820   -1.4540 h1        1 2F8      0.080700
     21 H5         -1.2680   -1.4070    0.6090 h2        1 2F8      0.091700
     22 H6         -3.2180    1.0720    1.6600 h1        1 2F8      0.040700
     23 H7         -2.6590   -0.2720    2.3090 h1        1 2F8      0.040700
     24 H8         -3.2830   -0.2940    0.8420 h1        1 2F8      0.040700
     25 H9          0.9510   -1.3650    0.0120 h1        1 2F8      0.114700
     26 H10         0.7230    0.3180    2.2440 hn        1 2F8      0.315500
     27 H11         2.6110   -2.1090    4.1180 hc        1 2F8      0.067367
     28 H12         2.3530   -0.5370    4.0660 hc        1 2F8      0.067367
     29 H13         1.1630   -1.5270    4.4450 hc        1 2F8      0.067367
     30 H14         0.9450    1.4590    0.0780 h1        1 2F8      0.066700
     31 H15         3.0470    1.1540   -0.1780 ho        1 2F8      0.405000
     32 H16         1.0900   -0.1920   -2.3720 h1        1 2F8      0.063700
     33 H17         1.8870    1.6430   -3.0620 ho        1 2F8      0.408000
@<TRIPOS>BOND
     1    1    2 1   
     2    1   17 1   
     3    2    3 1   
     4    2   18 1   
     5    2   19 1   
     6    3    4 1   
     7    3   15 1   
     8    3   20 1   
     9    4    5 1   
    10    5    6 1   
    11    5    8 1   
    12    5   21 1   
    13    6    7 1   
    14    7   22 1   
    15    7   23 1   
    16    7   24 1   
    17    8    9 1   
    18    8   13 1   
    19    8   25 1   
    20    9   10 1   
    21    9   26 1   
    22   10   11 2   
    23   10   12 1   
    24   12   27 1   
    25   12   28 1   
    26   12   29 1   
    27   13   14 1   
    28   13   15 1   
    29   13   30 1   
    30   14   31 1   
    31   15   16 1   
    32   15   32 1   
    33   16   33 1   
@<TRIPOS>SUBSTRUCTURE
     1 2F8         1 TEMP              0 ****  ****    0 ROOT
