@<TRIPOS>MOLECULE
2F8
   33    33     1     0     0
SMALL
bcc


@<TRIPOS>ATOM
      1 O6          4.0610    1.1800   -0.6370 oh        1 2F8     -0.592800
      2 C6          3.3850   -0.0530   -0.7480 c3        1 2F8      0.136400
      3 C5          2.0510   -0.0250    0.0030 c3        1 2F8      0.071100
      4 O5          1.2770    0.9850   -0.6500 os        1 2F8     -0.448600
      5 C1         -0.0360    1.1550   -0.1530 c3        1 2F8      0.316900
      6 O1          0.0890    1.5550    1.1960 os        1 2F8     -0.447600
      7 CM          0.5590    2.8870    1.3590 c3        1 2F8      0.118700
      8 C2         -0.8610   -0.1640   -0.2120 c3        1 2F8      0.094700
      9 N2         -2.1990    0.0280    0.2730 n         1 2F8     -0.553900
     10 C7         -3.3080   -0.1180   -0.5480 c         1 2F8      0.664100
     11 O7         -3.1880   -0.2050   -1.7850 o         1 2F8     -0.605100
     12 C8         -4.6600   -0.1130    0.1210 c3        1 2F8     -0.174100
     13 C3         -0.0730   -1.2500    0.5610 c3        1 2F8      0.131100
     14 O3         -0.7790   -2.4700    0.4430 oh        1 2F8     -0.595800
     15 C4          1.3310   -1.3770   -0.0610 c3        1 2F8      0.081100
     16 O4          2.0010   -2.3550    0.7200 oh        1 2F8     -0.600800
     17 H1          3.4640    1.8610   -0.9740 ho        1 2F8      0.416000
     18 H2          3.2130   -0.3080   -1.8280 h1        1 2F8      0.051200
     19 H3          4.0720   -0.8050   -0.2760 h1        1 2F8      0.051200
     20 H4          2.2110    0.2740    1.0760 h1        1 2F8      0.081700
     21 H5         -0.4830    1.9570   -0.8060 h2        1 2F8      0.092700
     22 H6         -0.1750    3.6120    0.9300 h1        1 2F8      0.040700
     23 H7          0.6430    3.0160    2.4660 h1        1 2F8      0.040700
     24 H8          1.5560    3.0090    0.8680 h1        1 2F8      0.040700
     25 H9         -0.9110   -0.4660   -1.3030 h1        1 2F8      0.112700
     26 H10        -2.3200   -0.0010    1.2570 hn        1 2F8      0.315500
     27 H11        -4.7630   -1.0050    0.7850 hc        1 2F8      0.067367
     28 H12        -4.8000    0.8130    0.7280 hc        1 2F8      0.067367
     29 H13        -5.4500   -0.1540   -0.6680 hc        1 2F8      0.067367
     30 H14         0.0270   -0.9680    1.6470 h1        1 2F8      0.066700
     31 H15        -0.2140   -3.1510    0.8350 ho        1 2F8      0.422000
     32 H16         1.2450   -1.7260   -1.1270 h1        1 2F8      0.061700
     33 H17         2.8470   -2.5270    0.2920 ho        1 2F8      0.411000
@<TRIPOS>BOND
     1    1    2 1   
     2    1   17 1   
     3    2    3 1   
     4    2   18 1   
     5    2   19 1   
     6    3    4 1   
     7    3   15 1   
     8    3   20 1   
     9    4    5 1   
    10    5    6 1   
    11    5    8 1   
    12    5   21 1   
    13    6    7 1   
    14    7   22 1   
    15    7   23 1   
    16    7   24 1   
    17    8    9 1   
    18    8   13 1   
    19    8   25 1   
    20    9   10 1   
    21    9   26 1   
    22   10   11 2   
    23   10   12 1   
    24   12   27 1   
    25   12   28 1   
    26   12   29 1   
    27   13   14 1   
    28   13   15 1   
    29   13   30 1   
    30   14   31 1   
    31   15   16 1   
    32   15   32 1   
    33   16   33 1   
@<TRIPOS>SUBSTRUCTURE
     1 2F8         1 TEMP              0 ****  ****    0 ROOT
