@<TRIPOS>MOLECULE
2F9
   62    62     1     0     0
SMALL
bcc


@<TRIPOS>ATOM
      1 OE1         0.0000    0.0000    0.0000 o         1 2F9     -0.782300
      2 CD          1.3420    0.0000    0.0000 c         1 2F9      0.987600
      3 OE2         1.9470    0.0000    1.0460 o         1 2F9     -0.782300
      4 CG          2.0950   -0.0000   -1.3050 c3        1 2F9     -0.169400
      5 CB          3.6000    0.0000   -1.0260 c3        1 2F9     -0.015400
      6 CA          4.3650   -0.0000   -2.3500 c3        1 2F9     -0.087500
      7 C           5.8420    0.1240   -2.0780 c         1 2F9      0.986600
      8 OXT         6.3170    1.1990   -1.4290 o         1 2F9     -0.833800
      9 O           6.5980   -0.7440   -2.4430 o         1 2F9     -0.833800
     10 N           4.1030   -1.2550   -3.0670 ny        1 2F9     -0.166100
     11 PBJ         4.0520   -1.0000   -4.7310 p5        1 2F9      0.695700
     12 OAL         5.4650   -0.4080   -5.2260 o         1 2F9     -0.565000
     13 OAH         3.7870   -2.2840   -5.4180 o         1 2F9     -0.565000
     14 OAX         2.8790    0.0460   -5.0770 os        1 2F9     -0.481200
     15 CAT         1.4910   -0.2710   -4.9540 c3        1 2F9      0.280400
     16 CBH         0.6530    0.9420   -5.3620 c3        1 2F9     -0.185500
     17 CBA         1.0700    2.1390   -4.5450 c         1 2F9      0.979600
     18 OAK         0.9670    2.1070   -3.2080 o         1 2F9     -0.805800
     19 OAE         1.4980    3.1260   -5.0950 o         1 2F9     -0.805800
     20 NAV         0.8610    1.2250   -6.7840 ny        1 2F9      0.126200
     21 CBC        -0.0870    1.8750   -7.4880 c         1 2F9      0.392100
     22 OAG        -1.1480    2.1470   -6.9690 o         1 2F9     -0.444100
     23 CBI         0.1710    2.2620   -8.9210 c3        1 2F9     -0.144500
     24 CBF         0.8820    3.6160   -8.9630 c3        1 2F9     -0.052700
     25 CAB         1.0390    4.0640  -10.4170 c3        1 2F9     -0.035100
     26 CAA         2.2640    3.4870   -8.3180 c3        1 2F9     -0.035100
     27 NAU        -1.1010    2.3560   -9.6390 ny        1 2F9      0.207200
     28 CBB        -1.1360    2.1870  -10.9750 c         1 2F9      0.288700
     29 OAF        -0.1100    1.9570  -11.5860 o         1 2F9     -0.517100
     30 CBE        -2.4200    2.2820  -11.7000 ca        1 2F9     -0.165600
     31 CAP        -3.6010    2.5410  -11.0010 ca        1 2F9     -0.087000
     32 CAN        -3.6600    2.1970  -13.7560 ca        1 2F9     -0.088500
     33 CBD        -4.8280    2.4600  -13.0570 ca        1 2F9     -0.028100
     34 FAM        -6.0020    2.5470  -13.7190 f         1 2F9     -0.115900
     35 CAO        -4.7960    2.6340  -11.6820 ca        1 2F9     -0.088500
     36 CAQ        -2.4590    2.1080  -13.0850 ca        1 2F9     -0.087000
     37 H2          1.8330    0.8840   -1.8730 hc        1 2F9      0.037200
     38 H3          1.8330   -0.8850   -1.8730 hc        1 2F9      0.037200
     39 H4          3.8620   -0.8840   -0.4570 hc        1 2F9      0.049700
     40 H5          3.8620    0.8850   -0.4580 hc        1 2F9      0.049700
     41 H6          4.0390    0.8370   -2.9560 hx        1 2F9      0.088700
     42 H8          3.2250   -1.6290   -2.7650 hn        1 2F9      0.289300
     43 H10         1.2700   -0.5330   -3.9260 h1        1 2F9      0.013700
     44 H11         1.2530   -1.1070   -5.5990 h1        1 2F9      0.013700
     45 H12        -0.3950    0.7320   -5.1850 hx        1 2F9      0.084700
     46 H14         1.6990    1.7690   -6.8530 hn        1 2F9      0.282800
     47 H15         0.7960    1.5120   -9.3910 hx        1 2F9      0.116700
     48 H16         0.2970    4.3480   -8.4200 hc        1 2F9      0.061700
     49 H17         1.4550    3.2530  -11.0020 hc        1 2F9      0.038700
     50 H18         0.0700    4.3380  -10.8170 hc        1 2F9      0.038700
     51 H19         1.7030    4.9190  -10.4620 hc        1 2F9      0.038700
     52 H20         2.9420    4.2000   -8.7710 hc        1 2F9      0.038700
     53 H21         2.1870    3.6870   -7.2560 hc        1 2F9      0.038700
     54 H22         2.6410    2.4830   -8.4700 hc        1 2F9      0.038700
     55 H23        -1.4750    3.2660   -9.4520 hn        1 2F9      0.251300
     56 H24        -4.0230    1.7830  -10.3520 ha        1 2F9      0.144000
     57 H25        -4.2180    2.1580  -14.6830 ha        1 2F9      0.153000
     58 H26        -5.8680    2.7930  -11.6730 ha        1 2F9      0.153000
     59 H27        -2.0370    2.8620  -13.7380 ha        1 2F9      0.144000
     60 H28         4.8290   -1.9120   -2.8580 hn        1 2F9      0.289300
     61 HAV2        1.0090    0.3450   -7.2370 hn        1 2F9      0.282800
     62 HAU2       -1.7110    1.6700   -9.2410 hn        1 2F9      0.251300
@<TRIPOS>BOND
     1    1    2 1   
     2    2    3 1   
     3    2    4 1   
     4    4    5 1   
     5    4   37 1   
     6    4   38 1   
     7    5    6 1   
     8    5   39 1   
     9    5   40 1   
    10    6    7 1   
    11    6   10 1   
    12    6   41 1   
    13    7    8 1   
    14    7    9 1   
    15   10   11 1   
    16   10   42 1   
    17   10   60 1   
    18   11   12 1   
    19   11   13 1   
    20   11   14 1   
    21   14   15 1   
    22   15   16 1   
    23   15   43 1   
    24   15   44 1   
    25   16   17 1   
    26   16   20 1   
    27   16   45 1   
    28   17   18 1   
    29   17   19 1   
    30   20   21 1   
    31   20   46 1   
    32   20   61 1   
    33   21   22 2   
    34   21   23 1   
    35   23   24 1   
    36   23   27 1   
    37   23   47 1   
    38   24   25 1   
    39   24   26 1   
    40   24   48 1   
    41   25   49 1   
    42   25   50 1   
    43   25   51 1   
    44   26   52 1   
    45   26   53 1   
    46   26   54 1   
    47   27   28 1   
    48   27   55 1   
    49   27   62 1   
    50   28   29 2   
    51   28   30 1   
    52   30   31 ar  
    53   30   36 ar  
    54   31   35 ar  
    55   31   56 1   
    56   32   33 ar  
    57   32   36 ar  
    58   32   57 1   
    59   33   34 1   
    60   33   35 ar  
    61   35   58 1   
    62   36   59 1   
@<TRIPOS>SUBSTRUCTURE
     1 2F9         1 TEMP              0 ****  ****    0 ROOT
