@<TRIPOS>MOLECULE
2FA
   32    29     1     0     0
SMALL
bcc


@<TRIPOS>ATOM
      1 O5'        -2.9260    2.0640   -2.9440 oh        1 2FA     -0.589800
      2 C5'        -1.5270    2.0580   -2.9160 c3        1 2FA      0.109400
      3 C4'        -1.0690    2.0560   -1.5140 c3        1 2FA      0.126100
      4 O4'        -1.2020    0.8550   -0.9930 os        1 2FA     -0.392600
      5 C1'         0.0160    0.6770    0.0330 c3        1 2FA      0.400300
      6 N9          0.2820   -0.6420    0.2250 n3        1 2FA     -0.475800
      7 C4          0.2660   -1.2320    1.4740 c1        1 2FA      0.403600
      8 N3          0.2210   -0.7060    2.7470 n1        1 2FA     -0.511800
      9 C2          0.1790   -1.5360    3.8270 c1        1 2FA      0.564900
     10 F          -0.0610   -1.2940    5.0740 f         1 2FA     -0.059100
     11 N1          0.1820   -2.8920    3.6480 n1        1 2FA     -0.609800
     12 C6          0.2260   -3.4040    2.4120 c1        1 2FA      0.321800
     13 N6          0.3420   -4.8370    2.5150 n3        1 2FA     -0.814400
     14 C5          0.2700   -2.5520    1.3010 c1        1 2FA     -0.248000
     15 N7          0.2870   -2.7990   -0.0230 n1        1 2FA     -0.511800
     16 C8          0.2950   -1.6010   -0.6790 c1        1 2FA      0.403600
     17 C2'         1.0880    1.2910   -0.5360 c3        1 2FA      0.084100
     18 O2'         1.9080    1.8790    0.4770 oh        1 2FA     -0.595800
     19 C3'         0.4910    2.3760   -1.4380 c3        1 2FA      0.130100
     20 O3'         0.6860    3.5700   -0.9060 oh        1 2FA     -0.585800
     21 H5'        -3.1950    2.0210   -3.7520 ho        1 2FA      0.405000
     22 H5'1       -1.1650    2.8990   -3.3950 h1        1 2FA      0.033700
     23 H5'2       -1.1950    1.2570   -3.3700 h1        1 2FA      0.033700
     24 H4'        -1.5810    2.7180   -0.9860 h1        1 2FA      0.125700
     25 H1'        -0.1990    1.0980    0.8790 h2        1 2FA      0.108700
     26 HN61        0.4150   -5.2190    3.3070 hn        1 2FA      0.455300
     27 HN62        0.3950   -5.3630    1.7310 hn        1 2FA      0.455300
     28 H8          0.2180   -1.4850   -1.5960 DU        1 2FA      0.225000
     29 H2'         1.6130    0.6410   -1.0760 h1        1 2FA      0.075700
     30 H1          2.7710    1.6970    0.3090 ho        1 2FA      0.442000
     31 H3'         0.9050    2.3330   -2.3610 h1        1 2FA      0.058700
     32 H2          1.0640    4.0720   -1.4730 ho        1 2FA      0.433000
@<TRIPOS>BOND
     1    1    2 1   
     2    1   21 1   
     3    2    3 1   
     4    2   22 1   
     5    2   23 1   
     6    3    4 1   
     7    3   19 1   
     8    3   24 1   
     9    4    5 1   
    10    5    6 1   
    11    5   17 1   
    12    5   25 1   
    13    6    7 1   
    14    6   16 1   
    15    7    8 3   
    16    9   10 1   
    17    9   11 3   
    18   12   13 1   
    19   12   14 3   
    20   13   26 1   
    21   13   27 1   
    22   15   16 3   
    23   17   18 1   
    24   17   19 1   
    25   17   29 1   
    26   18   30 1   
    27   19   20 1   
    28   19   31 1   
    29   20   32 1   
@<TRIPOS>SUBSTRUCTURE
     1 2FA         1 TEMP              0 ****  ****    0 ROOT
