@<TRIPOS>MOLECULE
2FA
   32    34     1     0     0
SMALL
bcc


@<TRIPOS>ATOM
      1 O5'         0.6380   -1.5120    0.2700 oh        1 2FA     -0.590800
      2 C5'         2.0140   -1.1860    0.3620 c3        1 2FA      0.107400
      3 C4'         2.1470   -0.0210    1.3430 c3        1 2FA      0.091100
      4 O4'         1.4920   -0.3190    2.5830 os        1 2FA     -0.383600
      5 C1'         2.4380   -0.7610    3.5570 c3        1 2FA      0.218800
      6 N9          2.3580   -2.1960    3.7160 na        1 2FA     -0.292000
      7 C4          3.1010   -2.9550    4.6300 ca        1 2FA      0.465800
      8 N3          4.1010   -2.5750    5.4790 nb        1 2FA     -0.772000
      9 C2          4.5740   -3.6330    6.2150 ca        1 2FA      0.901200
     10 F           5.5710   -3.3320    7.0880 f         1 2FA     -0.198200
     11 N1          4.1940   -4.9570    6.2060 nb        1 2FA     -0.810000
     12 C6          3.1930   -5.3160    5.3370 ca        1 2FA      0.786200
     13 N6          2.7810   -6.6170    5.2550 nv        1 2FA     -0.952500
     14 C5          2.5950   -4.3130    4.5020 ca        1 2FA     -0.239200
     15 N7          1.5710   -4.3560    3.5420 nc        1 2FA     -0.547100
     16 C8          1.4500   -3.0960    3.1000 cd        1 2FA      0.424700
     17 C2'         3.8470   -0.2550    3.0950 c3        1 2FA      0.082100
     18 O2'         4.2290    0.8340    3.9060 oh        1 2FA     -0.590800
     19 C3'         3.6340    0.2630    1.6530 c3        1 2FA      0.128100
     20 O3'         3.9480    1.6220    1.4830 oh        1 2FA     -0.573800
     21 H5'         0.5450   -2.1020   -0.4870 ho        1 2FA      0.406000
     22 H5'1        2.5820   -2.0820    0.7330 h1        1 2FA      0.036200
     23 H5'2        2.4180   -0.8730   -0.6370 h1        1 2FA      0.036200
     24 H4'         1.6130    0.8860    0.9510 h1        1 2FA      0.107700
     25 H1'         2.1300   -0.2680    4.5280 h2        1 2FA      0.109700
     26 HN61        3.1560   -7.3080    5.8580 hn        1 2FA      0.454300
     27 HN62        2.0170   -6.8390    4.6650 hn        1 2FA      0.454300
     28 H8          0.7420   -2.7290    2.3380 h5        1 2FA      0.105800
     29 H2'         4.6230   -1.0630    3.1190 h1        1 2FA      0.083700
     30 H1          4.6010    0.4630    4.7190 ho        1 2FA      0.434000
     31 H3'         4.3120   -0.2750    0.9350 h1        1 2FA      0.091700
     32 H2          3.5870    2.1130    2.2340 ho        1 2FA      0.427000
@<TRIPOS>BOND
     1    1    2 1   
     2    1   21 1   
     3    2    3 1   
     4    2   22 1   
     5    2   23 1   
     6    3    4 1   
     7    3   19 1   
     8    3   24 1   
     9    4    5 1   
    10    5    6 1   
    11    5   17 1   
    12    5   25 1   
    13    6    7 1   
    14    6   16 1   
    15    7    8 ar  
    16    7   14 ar  
    17    8    9 ar  
    18    9   10 1   
    19    9   11 ar  
    20   11   12 ar  
    21   12   13 1   
    22   12   14 ar  
    23   13   26 1   
    24   13   27 1   
    25   14   15 1   
    26   15   16 2   
    27   16   28 1   
    28   17   18 1   
    29   17   19 1   
    30   17   29 1   
    31   18   30 1   
    32   19   20 1   
    33   19   31 1   
    34   20   32 1   
@<TRIPOS>SUBSTRUCTURE
     1 2FA         1 TEMP              0 ****  ****    0 ROOT
