@<TRIPOS>MOLECULE
2FA
   32    34     1     0     0
SMALL
bcc


@<TRIPOS>ATOM
      1 O5'        -3.2880    2.2250   -1.3970 oh        1 2FA     -0.587800
      2 C5'        -3.3470    1.5350   -0.1700 c3        1 2FA      0.122400
      3 C4'        -3.2450    0.0240   -0.3810 c3        1 2FA      0.053100
      4 O4'        -1.9730   -0.2920   -0.9610 os        1 2FA     -0.414600
      5 C1'        -1.1060   -0.9430   -0.0180 c3        1 2FA      0.250800
      6 N9         -0.0330   -0.0730    0.3930 na        1 2FA     -0.284000
      7 C4          1.2330    0.0040   -0.2170 ca        1 2FA      0.495800
      8 N3          1.7920   -0.7790   -1.1830 nb        1 2FA     -0.747000
      9 C2          3.0740   -0.3860   -1.4850 ca        1 2FA      0.906200
     10 F           3.6950   -1.1210   -2.4440 f         1 2FA     -0.193200
     11 N1          3.8280    0.6440   -0.9680 nb        1 2FA     -0.810000
     12 C6          3.2460    1.4170    0.0070 ca        1 2FA      0.789200
     13 N6          3.9390    2.4490    0.5760 nh        1 2FA     -0.953500
     14 C5          1.9050    1.1250    0.4250 ca        1 2FA     -0.252200
     15 N7          1.0560    1.7160    1.3740 nc        1 2FA     -0.526100
     16 C8         -0.0750    1.0040    1.3210 cd        1 2FA      0.396700
     17 C2'        -2.0020   -1.4200    1.1670 c3        1 2FA      0.076100
     18 O2'        -2.0800   -2.8260    1.0490 oh        1 2FA     -0.584800
     19 C3'        -3.3850   -0.7670    0.9300 c3        1 2FA      0.086100
     20 O3'        -4.3960   -1.7460    0.8680 oh        1 2FA     -0.583800
     21 H5'        -2.4750    1.9480   -1.8430 ho        1 2FA      0.417000
     22 H5'1       -4.3470    1.7970    0.2670 h1        1 2FA      0.050200
     23 H5'2       -2.5260    1.8860    0.5120 h1        1 2FA      0.050200
     24 H4'        -4.0030   -0.3040   -1.1450 h1        1 2FA      0.100700
     25 H1'        -0.6620   -1.8220   -0.5800 h2        1 2FA      0.147700
     26 HN61        4.8590    2.6670    0.2830 hn        1 2FA      0.454800
     27 HN62        3.4900    3.0080    1.2590 hn        1 2FA      0.454800
     28 H8         -0.9640    1.1860    1.9370 h5        1 2FA      0.069800
     29 H2'        -1.5860   -1.1420    2.1710 h1        1 2FA      0.069700
     30 H1         -2.6940   -3.1310    1.7330 ho        1 2FA      0.426000
     31 H3'        -3.6840   -0.1050    1.7870 h1        1 2FA      0.096700
     32 H2         -4.1980   -2.3260    0.1170 ho        1 2FA      0.422000
@<TRIPOS>BOND
     1    1    2 1   
     2    1   21 1   
     3    2    3 1   
     4    2   22 1   
     5    2   23 1   
     6    3    4 1   
     7    3   19 1   
     8    3   24 1   
     9    4    5 1   
    10    5    6 1   
    11    5   17 1   
    12    5   25 1   
    13    6    7 1   
    14    6   16 1   
    15    7    8 ar  
    16    7   14 ar  
    17    8    9 ar  
    18    9   10 1   
    19    9   11 ar  
    20   11   12 ar  
    21   12   13 1   
    22   12   14 ar  
    23   13   26 1   
    24   13   27 1   
    25   14   15 1   
    26   15   16 2   
    27   16   28 1   
    28   17   18 1   
    29   17   19 1   
    30   17   29 1   
    31   18   30 1   
    32   19   20 1   
    33   19   31 1   
    34   20   32 1   
@<TRIPOS>SUBSTRUCTURE
     1 2FA         1 TEMP              0 ****  ****    0 ROOT
