@<TRIPOS>MOLECULE
2FA
   32    34     1     0     0
SMALL
bcc


@<TRIPOS>ATOM
      1 O5'         0.6510   -1.5720    0.2570 oh        1 2FA     -0.590800
      2 C5'         2.0280   -1.2480    0.3460 c3        1 2FA      0.107400
      3 C4'         2.1620   -0.0690    1.3090 c3        1 2FA      0.091100
      4 O4'         1.5040   -0.3450    2.5520 os        1 2FA     -0.383600
      5 C1'         2.4470   -0.7740    3.5340 c3        1 2FA      0.218800
      6 N9          2.3620   -2.2070    3.7160 na        1 2FA     -0.292000
      7 C4          3.1020   -2.9530    4.6430 ca        1 2FA      0.465800
      8 N3          4.1010   -2.5620    5.4890 nb        1 2FA     -0.772000
      9 C2          4.5700   -3.6090    6.2420 ca        1 2FA      0.901200
     10 F           5.5660   -3.2970    7.1120 f         1 2FA     -0.198200
     11 N1          4.1860   -4.9330    6.2530 nb        1 2FA     -0.810000
     12 C6          3.1860   -5.3030    5.3870 ca        1 2FA      0.786200
     13 N6          2.7710   -6.6040    5.3250 nh        1 2FA     -0.952500
     14 C5          2.5920   -4.3120    4.5350 ca        1 2FA     -0.239200
     15 N7          1.5710   -4.3670    3.5740 nc        1 2FA     -0.547100
     16 C8          1.4540   -3.1140    3.1130 cd        1 2FA      0.424700
     17 C2'         3.8580   -0.2780    3.0680 c3        1 2FA      0.082100
     18 O2'         4.2410    0.8220    3.8630 oh        1 2FA     -0.590800
     19 C3'         3.6490    0.2180    1.6180 c3        1 2FA      0.128100
     20 O3'         3.9670    1.5730    1.4270 oh        1 2FA     -0.573800
     21 H5'         0.5590   -2.1740   -0.4910 ho        1 2FA      0.406000
     22 H5'1        2.4350   -0.9510   -0.6560 h1        1 2FA      0.036200
     23 H5'2        2.5940   -2.1390    0.7330 h1        1 2FA      0.036200
     24 H4'         1.6320    0.8340    0.9010 h1        1 2FA      0.107700
     25 H1'         2.1380   -0.2650    4.4980 h2        1 2FA      0.109700
     26 HN61        2.0080   -6.8330    4.7370 hn        1 2FA      0.454300
     27 HN62        3.1430   -7.2860    5.9390 hn        1 2FA      0.454300
     28 H8          0.7480   -2.7570    2.3430 h5        1 2FA      0.105800
     29 H2'         4.6320   -1.0880    3.1060 h1        1 2FA      0.083700
     30 H1          4.6090    0.4620    4.6820 ho        1 2FA      0.434000
     31 H3'         4.3270   -0.3340    0.9100 h1        1 2FA      0.091700
     32 H2          3.6060    2.0770    2.1700 ho        1 2FA      0.427000
@<TRIPOS>BOND
     1    1    2 1   
     2    1   21 1   
     3    2    3 1   
     4    2   22 1   
     5    2   23 1   
     6    3    4 1   
     7    3   19 1   
     8    3   24 1   
     9    4    5 1   
    10    5    6 1   
    11    5   17 1   
    12    5   25 1   
    13    6    7 1   
    14    6   16 1   
    15    7    8 ar  
    16    7   14 ar  
    17    8    9 ar  
    18    9   10 1   
    19    9   11 ar  
    20   11   12 ar  
    21   12   13 1   
    22   12   14 ar  
    23   13   26 1   
    24   13   27 1   
    25   14   15 1   
    26   15   16 2   
    27   16   28 1   
    28   17   18 1   
    29   17   19 1   
    30   17   29 1   
    31   18   30 1   
    32   19   20 1   
    33   19   31 1   
    34   20   32 1   
@<TRIPOS>SUBSTRUCTURE
     1 2FA         1 TEMP              0 ****  ****    0 ROOT
