@<TRIPOS>MOLECULE
2FA
   33    35     1     0     0
SMALL
bcc


@<TRIPOS>ATOM
      1 O5'         0.7150   -1.8520    0.4490 oh        1 2FA     -0.603800
      2 C5'         1.9430   -1.1930    0.2220 c3        1 2FA      0.110400
      3 C4'         2.1990   -0.1110    1.2720 c3        1 2FA      0.082100
      4 O4'         1.6010   -0.4930    2.5260 os        1 2FA     -0.395600
      5 C1'         2.5860   -0.8590    3.4820 c3        1 2FA      0.213800
      6 N9          2.5140   -2.2990    3.7220 na        1 2FA     -0.274000
      7 C4          3.1470   -2.9760    4.7740 ca        1 2FA      0.474800
      8 N3          4.0320   -2.5630    5.7060 nb        1 2FA     -0.631000
      9 C2          4.4230   -3.5630    6.5750 ca        1 2FA      0.892200
     10 F           5.3090   -3.2130    7.5340 f         1 2FA     -0.144200
     11 N1          4.0240   -4.8880    6.5940 nb        1 2FA     -0.707000
     12 C6          3.1340   -5.2580    5.6420 ca        1 2FA      0.540200
     13 N6          2.6630   -6.6560    5.6150 n4        1 2FA     -0.815300
     14 C5          2.6370   -4.3680    4.6810 ca        1 2FA     -0.144200
     15 N7          1.7330   -4.4780    3.6210 nc        1 2FA     -0.592100
     16 C8          1.6770   -3.2430    3.0840 cd        1 2FA      0.522700
     17 C2'         3.9750   -0.3660    2.9550 c3        1 2FA      0.089100
     18 O2'         4.4700    0.6540    3.7800 oh        1 2FA     -0.562800
     19 C3'         3.6980    0.1270    1.5140 c3        1 2FA      0.089100
     20 O3'         3.9160    1.5210    1.4280 oh        1 2FA     -0.582800
     21 H5'         0.0160   -1.1860    0.4390 ho        1 2FA      0.424000
     22 H5'1        1.9620   -0.7270   -0.7990 h1        1 2FA      0.066200
     23 H5'2        2.7120   -2.0110    0.2740 h1        1 2FA      0.066200
     24 H4'         1.6750    0.8490    0.9950 h1        1 2FA      0.119700
     25 H1'         2.3080   -0.3370    4.4490 h2        1 2FA      0.126700
     26 HN61        1.6500   -6.6600    5.7940 hn        1 2FA      0.480800
     27 HN62        2.8410   -7.0420    4.6790 hn        1 2FA      0.480800
     28 H8          1.0460   -2.9450    2.2170 h5        1 2FA      0.146800
     29 H2'         4.7610   -1.1670    2.9850 h1        1 2FA      0.107700
     30 H1          3.9220    1.4450    3.6520 ho        1 2FA      0.431000
     31 H3'         4.3340   -0.4210    0.7700 h1        1 2FA      0.076700
     32 H2          4.8730    1.6650    1.4640 ho        1 2FA      0.433000
     33 H63         3.1420   -7.2270    6.3250 hn        1 2FA      0.480800
@<TRIPOS>BOND
     1    1    2 1   
     2    1   21 1   
     3    2    3 1   
     4    2   22 1   
     5    2   23 1   
     6    3    4 1   
     7    3   19 1   
     8    3   24 1   
     9    4    5 1   
    10    5    6 1   
    11    5   17 1   
    12    5   25 1   
    13    6    7 1   
    14    6   16 1   
    15    7    8 ar  
    16    7   14 ar  
    17    8    9 ar  
    18    9   10 1   
    19    9   11 ar  
    20   11   12 ar  
    21   12   13 1   
    22   12   14 ar  
    23   13   26 1   
    24   13   27 1   
    25   13   33 1   
    26   14   15 1   
    27   15   16 2   
    28   16   28 1   
    29   17   18 1   
    30   17   19 1   
    31   17   29 1   
    32   18   30 1   
    33   19   20 1   
    34   19   31 1   
    35   20   32 1   
@<TRIPOS>SUBSTRUCTURE
     1 2FA         1 TEMP              0 ****  ****    0 ROOT
