@<TRIPOS>MOLECULE
2FB
   49    45     1     0     0
SMALL
bcc


@<TRIPOS>ATOM
      1 C1         -5.8400    1.0340    1.7000 c3        1 2FB     -0.156000
      2 C2         -4.3460    0.9490    1.7280 c2        1 2FB     -0.288000
      3 N3         -3.5130    0.8470    2.9250 n2        1 2FB     -0.062000
      4 C4         -2.0240    0.7670    2.4850 c1        1 2FB     -0.134000
      5 C5         -1.9690    0.8230    0.9910 c1        1 2FB     -0.438000
      6 S6         -3.4000    0.9380    0.4790 ss        1 2FB      0.572000
      7 C7         -0.4010    0.4650    0.6190 c2        1 2FB      0.182000
      8 N8          0.1390    0.2650    1.9090 n2        1 2FB     -0.245000
      9 C9         -0.6960    0.4240    2.8810 c1        1 2FB      0.168000
     10 N10        -0.2290    0.7930    4.1540 n3        1 2FB     -0.325000
     11 C11         0.3080    1.5350   -0.2110 c2        1 2FB     -0.072500
     12 C12        -0.4340    2.3690   -1.0490 c2        1 2FB     -0.103000
     13 C13         0.2210    3.3040   -1.8650 c1        1 2FB     -0.167500
     14 C14         1.6030    3.3970   -1.8380 c1        1 2FB      0.083000
     15 C15         2.3430    2.5640   -1.0010 c1        1 2FB     -0.159000
     16 C16         1.6930    1.6320   -0.1860 c1        1 2FB     -0.076500
     17 O17         2.2700    4.2740   -2.7240 os        1 2FB     -0.209000
     18 C18         2.4040    5.6200   -2.2240 c3        1 2FB     -0.076000
     19 C19        -0.2620   -0.7800   -0.2780 c2        1 2FB     -0.072500
     20 C20        -0.8490   -0.7970   -1.5590 c2        1 2FB     -0.103000
     21 C21        -0.6680   -1.8810   -2.3820 c1        1 2FB     -0.167500
     22 C22         0.0850   -2.9490   -1.9560 c1        1 2FB     -0.115000
     23 C23         0.6680   -2.9330   -0.6820 c1        1 2FB     -0.040000
     24 C24         0.4870   -1.8430    0.1450 c1        1 2FB     -0.076500
     25 C25         1.5790   -4.0570   -0.2550 c2        1 2FB     -0.131000
     26 C26         1.1270   -5.0110    0.6190 c2        1 2FB     -0.031000
     27 N27         1.9180   -6.0480    0.9530 n1        1 2FB     -0.164000
     28 C28         3.1740   -6.1510    0.4200 c1        1 2FB     -0.038000
     29 N29         3.6280   -5.2010   -0.4530 n1        1 2FB     -0.165000
     30 C30         2.8370   -4.1600   -0.7890 c1        1 2FB     -0.034000
     31 H11C       -6.2230    0.1430    1.8730 hc        1 2FB      0.100667
     32 H12C       -6.1440    1.3620    0.7910 hc        1 2FB      0.100667
     33 H13C       -6.1520    1.6740    2.4090 hc        1 2FB      0.100667
     34 H101       -0.8020    1.1540    4.7610 hn        1 2FB      0.219000
     35 H102        0.6380    0.6260    4.3880 hn        1 2FB      0.219000
     36 H12        -1.4340    2.2990   -1.0700 ha        1 2FB      0.127500
     37 H16         2.2320    1.0290    0.4210 ha        1 2FB      0.154000
     38 H13        -0.3000    3.8930   -2.4570 ha        1 2FB      0.135500
     39 H15         3.2700    2.6280   -0.9850 ha        1 2FB      0.151000
     40 H181        1.5100    5.9950   -2.0450 h1        1 2FB      0.083333
     41 H182        2.9380    5.6100   -1.3780 h1        1 2FB      0.083333
     42 H183        2.8570    6.1650   -2.8830 h1        1 2FB      0.083333
     43 H20        -1.4130    0.0030   -1.8780 ha        1 2FB      0.127500
     44 H24         0.8770   -1.8310    0.9970 ha        1 2FB      0.154000
     45 H21        -1.0600   -1.8920   -3.2410 ha        1 2FB      0.135500
     46 H22         0.2100   -3.7000   -2.5270 ha        1 2FB      0.135000
     47 H26         0.2140   -4.9380    1.0070 h4        1 2FB      0.175000
     48 H30         3.1610   -3.4790   -1.4120 ha        1 2FB      0.168000
     49 H28         3.7660   -6.9300    0.6710 ha        1 2FB      0.192000
@<TRIPOS>BOND
     1    1    2 1   
     2    1   31 1   
     3    1   32 1   
     4    1   33 1   
     5    2    3 1   
     6    2    6 1   
     7    3    4 1   
     8    4    5 1   
     9    5    6 1   
    10    7    8 1   
    11    7   11 1   
    12    7   19 1   
    13    8    9 1   
    14    9   10 1   
    15   10   34 1   
    16   10   35 1   
    17   11   12 1   
    18   11   16 1   
    19   12   13 1   
    20   12   36 1   
    21   13   38 1   
    22   14   15 1   
    23   14   17 1   
    24   15   39 1   
    25   16   37 1   
    26   17   18 1   
    27   18   40 1   
    28   18   41 1   
    29   18   42 1   
    30   19   20 1   
    31   19   24 1   
    32   20   21 1   
    33   20   43 1   
    34   21   45 1   
    35   22   23 1   
    36   22   46 1   
    37   23   25 1   
    38   24   44 1   
    39   25   26 1   
    40   25   30 1   
    41   26   27 1   
    42   26   47 1   
    43   28   29 1   
    44   28   49 1   
    45   30   48 1   
@<TRIPOS>SUBSTRUCTURE
     1 2FB         1 TEMP              0 ****  ****    0 ROOT
