@<TRIPOS>MOLECULE
2FB
   50    54     1     0     0
SMALL
bcc


@<TRIPOS>ATOM
      1 C1         -0.0190   -0.2850    0.1140 c3        1 2FB     -0.146400
      2 C2          1.4520   -0.1840    0.1940 cc        1 2FB      0.397700
      3 N3          2.1640   -0.1800    1.3360 nd        1 2FB     -0.601000
      4 C4          3.4810   -0.0720    0.9810 cd        1 2FB      0.168000
      5 C5          3.7860    0.0110   -0.4100 cc        1 2FB     -0.237700
      6 S6          2.3950   -0.0590   -1.2620 ss        1 2FB      0.140700
      7 C7          5.3080    0.0970   -0.5490 c3        1 2FB      0.347100
      8 N8          5.8090    0.0570    0.8900 n2        1 2FB     -0.482900
      9 C9          4.7690   -0.0290    1.6860 cf        1 2FB      0.402200
     10 N10         4.8030   -0.0790    3.1470 nz        1 2FB     -0.770600
     11 C11         5.8170   -1.1160   -1.2930 ca        1 2FB     -0.154300
     12 C12         5.4590   -2.3980   -0.8430 ca        1 2FB     -0.069000
     13 C13         5.8970   -3.5330   -1.5040 ca        1 2FB     -0.181500
     14 C14         6.7150   -3.3940   -2.6460 ca        1 2FB      0.164100
     15 C15         7.0780   -2.1220   -3.1040 ca        1 2FB     -0.181500
     16 C16         6.6290   -0.9910   -2.4220 ca        1 2FB     -0.069000
     17 O17         7.0960   -4.5770   -3.2310 os        1 2FB     -0.313900
     18 C18         7.9300   -4.4800   -4.3840 c3        1 2FB      0.107700
     19 C19         5.7560    1.4030   -1.1710 ca        1 2FB     -0.098300
     20 C20         4.8710    2.2000   -1.9030 ca        1 2FB     -0.113000
     21 C21         5.3100    3.3960   -2.4690 ca        1 2FB     -0.118000
     22 C22         6.6290    3.8110   -2.3080 ca        1 2FB     -0.097000
     23 C23         7.5310    3.0180   -1.5810 cp        1 2FB     -0.018000
     24 C24         7.0880    1.8120   -1.0200 ca        1 2FB     -0.100000
     25 C25         8.9120    3.4380   -1.4120 cp        1 2FB     -0.291600
     26 C26         9.6250    4.1060   -2.4380 ca        1 2FB      0.441700
     27 N27        10.9030    4.5000   -2.2910 nb        1 2FB     -0.681500
     28 C28        11.4840    4.2220   -1.0910 ca        1 2FB      0.644900
     29 N29        10.9010    3.5890   -0.0360 nb        1 2FB     -0.681500
     30 C30         9.6220    3.2050   -0.2100 ca        1 2FB      0.441700
     31 H11C       -0.3740   -1.2400    0.5820 hc        1 2FB      0.078033
     32 H12C       -0.5020    0.5680    0.6570 hc        1 2FB      0.078033
     33 H13C       -0.3510   -0.2650   -0.9540 hc        1 2FB      0.078033
     34 H101        4.3360    0.7640    3.5080 hn        1 2FB      0.479133
     35 H102        4.2790   -0.9110    3.4510 hn        1 2FB      0.479133
     36 H12         4.8150   -2.5100    0.0430 ha        1 2FB      0.137000
     37 H16         6.9280    0.0030   -2.7920 ha        1 2FB      0.137000
     38 H13         5.6210   -4.5400   -1.1590 ha        1 2FB      0.159000
     39 H15         7.7140   -2.0000   -3.9930 ha        1 2FB      0.159000
     40 H181        8.1010   -5.5510   -4.6640 h1        1 2FB      0.056033
     41 H182        7.4040   -3.9350   -5.2040 h1        1 2FB      0.056033
     42 H183        8.8950   -3.9780   -4.1290 h1        1 2FB      0.056033
     43 H20         3.8230    1.8930   -2.0500 ha        1 2FB      0.130000
     44 H24         7.8060    1.1780   -0.4750 ha        1 2FB      0.153000
     45 H21         4.6060    4.0170   -3.0460 ha        1 2FB      0.152000
     46 H22         6.9650    4.7640   -2.7470 ha        1 2FB      0.153000
     47 H26         9.1530    4.3240   -3.4140 h4        1 2FB      0.029600
     48 H30         9.1430    2.6980    0.6460 h4        1 2FB      0.029600
     49 H28        12.5390    4.5450   -0.9600 h5        1 2FB      0.069100
     50 H103        5.7660   -0.1230    3.5040 hn        1 2FB      0.479133
@<TRIPOS>BOND
     1    1    2 1   
     2    1   31 1   
     3    1   32 1   
     4    1   33 1   
     5    2    3 2   
     6    2    6 1   
     7    3    4 1   
     8    4    5 2   
     9    4    9 1   
    10    5    6 1   
    11    5    7 1   
    12    7    8 1   
    13    7   11 1   
    14    7   19 1   
    15    8    9 2   
    16    9   10 1   
    17   10   34 1   
    18   10   35 1   
    19   10   50 1   
    20   11   12 ar  
    21   11   16 ar  
    22   12   13 ar  
    23   12   36 1   
    24   13   14 ar  
    25   13   38 1   
    26   14   15 ar  
    27   14   17 1   
    28   15   16 ar  
    29   15   39 1   
    30   16   37 1   
    31   17   18 1   
    32   18   40 1   
    33   18   41 1   
    34   18   42 1   
    35   19   20 ar  
    36   19   24 ar  
    37   20   21 ar  
    38   20   43 1   
    39   21   22 ar  
    40   21   45 1   
    41   22   23 ar  
    42   22   46 1   
    43   23   24 ar  
    44   23   25 1   
    45   24   44 1   
    46   25   26 ar  
    47   25   30 ar  
    48   26   27 ar  
    49   26   47 1   
    50   27   28 ar  
    51   28   29 ar  
    52   28   49 1   
    53   29   30 ar  
    54   30   48 1   
@<TRIPOS>SUBSTRUCTURE
     1 2FB         1 TEMP              0 ****  ****    0 ROOT
