@<TRIPOS>MOLECULE
2FB
   50    54     1     0     0
SMALL
bcc


@<TRIPOS>ATOM
      1 C1         -0.0160   -0.3030    0.1160 c3        1 2FB     -0.146400
      2 C2          1.4550   -0.1980    0.1950 cc        1 2FB      0.397700
      3 N3          2.1670   -0.1950    1.3370 nd        1 2FB     -0.601000
      4 C4          3.4830   -0.0820    0.9820 cd        1 2FB      0.168000
      5 C5          3.7880    0.0040   -0.4090 cc        1 2FB     -0.237700
      6 S6          2.3970   -0.0680   -1.2610 ss        1 2FB      0.140700
      7 C7          5.3100    0.0950   -0.5480 c3        1 2FB      0.347100
      8 N8          5.8110    0.0540    0.8910 n2        1 2FB     -0.482900
      9 C9          4.7720   -0.0360    1.6870 cf        1 2FB      0.402200
     10 N10         4.8060   -0.0890    3.1480 n4        1 2FB     -0.770600
     11 C11         5.8220   -1.1150   -1.2950 ca        1 2FB     -0.154300
     12 C12         5.4680   -2.3990   -0.8470 ca        1 2FB     -0.069000
     13 C13         5.9090   -3.5320   -1.5100 ca        1 2FB     -0.181500
     14 C14         6.7260   -3.3890   -2.6530 ca        1 2FB      0.164100
     15 C15         7.0830   -2.1140   -3.1090 ca        1 2FB     -0.181500
     16 C16         6.6320   -0.9860   -2.4250 ca        1 2FB     -0.069000
     17 O17         7.1090   -4.5690   -3.2400 os        1 2FB     -0.313900
     18 C18         7.9420   -4.4680   -4.3940 c3        1 2FB      0.107700
     19 C19         5.7550    1.4030   -1.1680 ca        1 2FB     -0.098300
     20 C20         4.8660    2.2000   -1.8970 ca        1 2FB     -0.113000
     21 C21         5.3030    3.3980   -2.4610 ca        1 2FB     -0.118000
     22 C22         6.6210    3.8160   -2.3000 ca        1 2FB     -0.097000
     23 C23         7.5260    3.0230   -1.5770 cp        1 2FB     -0.018000
     24 C24         7.0850    1.8150   -1.0180 ca        1 2FB     -0.100000
     25 C25         8.9050    3.4460   -1.4080 cp        1 2FB     -0.291600
     26 C26         9.6160    4.1170   -2.4340 ca        1 2FB      0.441700
     27 N27        10.8930    4.5140   -2.2870 nb        1 2FB     -0.681500
     28 C28        11.4760    4.2340   -1.0890 ca        1 2FB      0.644900
     29 N29        10.8960    3.5970   -0.0340 nb        1 2FB     -0.681500
     30 C30         9.6180    3.2110   -0.2070 ca        1 2FB      0.441700
     31 H11C       -0.3680   -1.2600    0.5810 hc        1 2FB      0.078033
     32 H12C       -0.3480   -0.2820   -0.9530 hc        1 2FB      0.078033
     33 H13C       -0.5020    0.5470    0.6590 hc        1 2FB      0.078033
     34 H101        4.3370    0.7510    3.5100 hn        1 2FB      0.479133
     35 H102        5.7690   -0.1310    3.5040 hn        1 2FB      0.479133
     36 H12         4.8260   -2.5140    0.0400 ha        1 2FB      0.137000
     37 H16         6.9270    0.0100   -2.7940 ha        1 2FB      0.137000
     38 H13         5.6370   -4.5410   -1.1660 ha        1 2FB      0.159000
     39 H15         7.7180   -1.9890   -3.9990 ha        1 2FB      0.159000
     40 H181        8.1160   -5.5380   -4.6760 h1        1 2FB      0.056033
     41 H182        8.9050   -3.9630   -4.1390 h1        1 2FB      0.056033
     42 H183        7.4130   -3.9230   -5.2120 h1        1 2FB      0.056033
     43 H20         3.8190    1.8920   -2.0430 ha        1 2FB      0.130000
     44 H24         7.8050    1.1810   -0.4750 ha        1 2FB      0.153000
     45 H21         4.5970    4.0190   -3.0350 ha        1 2FB      0.152000
     46 H22         6.9540    4.7710   -2.7370 ha        1 2FB      0.153000
     47 H26         9.1420    4.3370   -3.4080 h4        1 2FB      0.029600
     48 H30         9.1410    2.7010    0.6480 h4        1 2FB      0.029600
     49 H28        12.5310    4.5590   -0.9580 h5        1 2FB      0.069100
     50 H103        4.2840   -0.9230    3.4500 hn        1 2FB      0.479133
@<TRIPOS>BOND
     1    1    2 1   
     2    1   31 1   
     3    1   32 1   
     4    1   33 1   
     5    2    3 2   
     6    2    6 1   
     7    3    4 1   
     8    4    5 2   
     9    4    9 1   
    10    5    6 1   
    11    5    7 1   
    12    7    8 1   
    13    7   11 1   
    14    7   19 1   
    15    8    9 2   
    16    9   10 1   
    17   10   34 1   
    18   10   35 1   
    19   10   50 1   
    20   11   12 ar  
    21   11   16 ar  
    22   12   13 ar  
    23   12   36 1   
    24   13   14 ar  
    25   13   38 1   
    26   14   15 ar  
    27   14   17 1   
    28   15   16 ar  
    29   15   39 1   
    30   16   37 1   
    31   17   18 1   
    32   18   40 1   
    33   18   41 1   
    34   18   42 1   
    35   19   20 ar  
    36   19   24 ar  
    37   20   21 ar  
    38   20   43 1   
    39   21   22 ar  
    40   21   45 1   
    41   22   23 ar  
    42   22   46 1   
    43   23   24 ar  
    44   23   25 1   
    45   24   44 1   
    46   25   26 ar  
    47   25   30 ar  
    48   26   27 ar  
    49   26   47 1   
    50   27   28 ar  
    51   28   29 ar  
    52   28   49 1   
    53   29   30 ar  
    54   30   48 1   
@<TRIPOS>SUBSTRUCTURE
     1 2FB         1 TEMP              0 ****  ****    0 ROOT
