@<TRIPOS>MOLECULE
2FB
   50    54     1     0     0
SMALL
bcc


@<TRIPOS>ATOM
      1 C1         -0.0180   -0.3240    0.1060 c3        1 2FB     -0.146400
      2 C2          1.4510   -0.2110    0.1890 cc        1 2FB      0.397700
      3 N3          2.1610   -0.2000    1.3330 nd        1 2FB     -0.601000
      4 C4          3.4770   -0.0820    0.9810 cd        1 2FB      0.168000
      5 C5          3.7850   -0.0000   -0.4100 cc        1 2FB     -0.237700
      6 S6          2.3970   -0.0820   -1.2650 ss        1 2FB      0.140700
      7 C7          5.3070    0.0970   -0.5450 c3        1 2FB      0.347100
      8 N8          5.8050    0.0630    0.8950 n2        1 2FB     -0.482900
      9 C9          4.7640   -0.0280    1.6890 cf        1 2FB      0.402200
     10 N10         4.7940   -0.0740    3.1500 n4        1 2FB     -0.770600
     11 C11         5.8250   -1.1140   -1.2870 ca        1 2FB     -0.154300
     12 C12         5.4850   -2.3980   -0.8290 ca        1 2FB     -0.068500
     13 C13         5.9320   -3.5310   -1.4880 ca        1 2FB     -0.181500
     14 C14         6.7400   -3.3880   -2.6360 ca        1 2FB      0.164100
     15 C15         7.0850   -2.1130   -3.1030 ca        1 2FB     -0.181500
     16 C16         6.6280   -0.9850   -2.4220 ca        1 2FB     -0.068500
     17 O17         7.1310   -4.5680   -3.2180 os        1 2FB     -0.313900
     18 C18         7.9570   -4.4670   -4.3770 c3        1 2FB      0.107700
     19 C19         5.7490    1.4050   -1.1680 ca        1 2FB     -0.098300
     20 C20         4.8570    2.2020   -1.8920 ca        1 2FB     -0.113000
     21 C21         5.2920    3.4010   -2.4570 ca        1 2FB     -0.118000
     22 C22         6.6110    3.8170   -2.3030 ca        1 2FB     -0.097000
     23 C23         7.5190    3.0240   -1.5840 cp        1 2FB     -0.018000
     24 C24         7.0800    1.8160   -1.0230 ca        1 2FB     -0.100000
     25 C25         8.8990    3.4460   -1.4210 cp        1 2FB     -0.291600
     26 C26         9.6050    4.1170   -2.4500 ca        1 2FB      0.441700
     27 N27        10.8840    4.5130   -2.3100 nb        1 2FB     -0.681500
     28 C28        11.4720    4.2320   -1.1140 ca        1 2FB      0.644900
     29 N29        10.8960    3.5950   -0.0580 nb        1 2FB     -0.681500
     30 C30         9.6170    3.2100   -0.2240 ca        1 2FB      0.441700
     31 H11C       -0.3670   -1.2800    0.5750 hc        1 2FB      0.078033
     32 H12C       -0.5100    0.5270    0.6450 hc        1 2FB      0.078033
     33 H13C       -0.3480   -0.3090   -0.9630 hc        1 2FB      0.078033
     34 H101        4.2740   -0.9080    3.4550 hn        1 2FB      0.479133
     35 H102        5.7570   -0.1110    3.5090 hn        1 2FB      0.479133
     36 H12         4.8490   -2.5130    0.0620 ha        1 2FB      0.136500
     37 H16         6.9120    0.0110   -2.8000 ha        1 2FB      0.136500
     38 H13         5.6700   -4.5400   -1.1360 ha        1 2FB      0.159000
     39 H15         7.7130   -1.9880   -3.9970 ha        1 2FB      0.159000
     40 H181        8.1380   -5.5380   -4.6540 h1        1 2FB      0.056033
     41 H182        7.4180   -3.9330   -5.1960 h1        1 2FB      0.056033
     42 H183        8.9160   -3.9530   -4.1310 h1        1 2FB      0.056033
     43 H20         3.8090    1.8950   -2.0330 ha        1 2FB      0.130000
     44 H24         7.8020    1.1810   -0.4840 ha        1 2FB      0.153000
     45 H21         4.5830    4.0220   -3.0280 ha        1 2FB      0.152000
     46 H22         6.9420    4.7720   -2.7410 ha        1 2FB      0.153000
     47 H26         9.1270    4.3380   -3.4220 h4        1 2FB      0.029100
     48 H30         9.1450    2.6990    0.6330 h4        1 2FB      0.029100
     49 H28        12.5280    4.5560   -0.9890 h5        1 2FB      0.069100
     50 H103        4.3210    0.7660    3.5080 hn        1 2FB      0.479133
@<TRIPOS>BOND
     1    1    2 1   
     2    1   31 1   
     3    1   32 1   
     4    1   33 1   
     5    2    3 2   
     6    2    6 1   
     7    3    4 1   
     8    4    5 2   
     9    4    9 1   
    10    5    6 1   
    11    5    7 1   
    12    7    8 1   
    13    7   11 1   
    14    7   19 1   
    15    8    9 2   
    16    9   10 1   
    17   10   34 1   
    18   10   35 1   
    19   10   50 1   
    20   11   12 ar  
    21   11   16 ar  
    22   12   13 ar  
    23   12   36 1   
    24   13   14 ar  
    25   13   38 1   
    26   14   15 ar  
    27   14   17 1   
    28   15   16 ar  
    29   15   39 1   
    30   16   37 1   
    31   17   18 1   
    32   18   40 1   
    33   18   41 1   
    34   18   42 1   
    35   19   20 ar  
    36   19   24 ar  
    37   20   21 ar  
    38   20   43 1   
    39   21   22 ar  
    40   21   45 1   
    41   22   23 ar  
    42   22   46 1   
    43   23   24 ar  
    44   23   25 1   
    45   24   44 1   
    46   25   26 ar  
    47   25   30 ar  
    48   26   27 ar  
    49   26   47 1   
    50   27   28 ar  
    51   28   29 ar  
    52   28   49 1   
    53   29   30 ar  
    54   30   48 1   
@<TRIPOS>SUBSTRUCTURE
     1 2FB         1 TEMP              0 ****  ****    0 ROOT
