@<TRIPOS>MOLECULE
2FB
   49    53     1     0     0
SMALL
bcc


@<TRIPOS>ATOM
      1 C1          5.1250    3.2910    1.0760 c3        1 2FB     -0.131400
      2 C2          3.9450    2.6600    0.4540 cc        1 2FB      0.378700
      3 N3          3.4790    2.9360   -0.7750 nd        1 2FB     -0.588000
      4 C4          2.3800    2.1470   -0.9850 cd        1 2FB      0.218000
      5 C5          1.9970    1.2800    0.0720 cc        1 2FB     -0.242700
      6 S6          3.0450    1.4540    1.3260 ss        1 2FB      0.003700
      7 C7          0.7760    0.4930   -0.4020 c3        1 2FB      0.329100
      8 N8          0.5110    1.0020   -1.7890 n2        1 2FB     -0.654900
      9 C9          1.4200    1.9220   -2.1060 cf        1 2FB      0.575200
     10 N10         1.5730    2.5640   -3.3190 nh        1 2FB     -0.887800
     11 C11         1.1190   -0.9850   -0.3690 ca        1 2FB     -0.107300
     12 C12         1.6150   -1.6560   -1.4950 ca        1 2FB     -0.079000
     13 C13         1.9430   -3.0050   -1.4300 ca        1 2FB     -0.184000
     14 C14         1.7770   -3.7010   -0.2190 ca        1 2FB      0.129100
     15 C15         1.2860   -3.0430    0.9140 ca        1 2FB     -0.184000
     16 C16         0.9610   -1.6910    0.8290 ca        1 2FB     -0.079000
     17 O17         2.1350   -5.0340   -0.2590 os        1 2FB     -0.325900
     18 C18         1.9370   -5.7730    0.9410 c3        1 2FB      0.113700
     19 C19        -0.4530    0.7490    0.4540 ca        1 2FB     -0.060300
     20 C20        -0.3780    1.4050    1.6850 ca        1 2FB     -0.123000
     21 C21        -1.5320    1.6220    2.4370 ca        1 2FB     -0.132000
     22 C22        -2.7700    1.1910    1.9690 ca        1 2FB     -0.115000
     23 C23        -2.8610    0.5310    0.7340 cp        1 2FB     -0.041000
     24 C24        -1.6980    0.3120   -0.0160 ca        1 2FB     -0.080000
     25 C25        -4.1490    0.0810    0.2350 cp        1 2FB     -0.260600
     26 C26        -5.1520   -0.4260    1.0960 ca        1 2FB      0.432700
     27 N27        -6.3510   -0.8430    0.6460 nb        1 2FB     -0.691000
     28 C28        -6.5500   -0.7520   -0.6970 ca        1 2FB      0.624900
     29 N29        -5.6660   -0.2850   -1.6190 nb        1 2FB     -0.691000
     30 C30        -4.4750    0.1260   -1.1430 ca        1 2FB      0.432700
     31 H11C        4.9860    4.4000    1.1490 hc        1 2FB      0.060700
     32 H12C        5.2850    2.8810    2.1040 hc        1 2FB      0.060700
     33 H13C        6.0430    3.0940    0.4650 hc        1 2FB      0.060700
     34 H101        2.0950    3.4090   -3.2860 hn        1 2FB      0.424300
     35 H102        0.7980    2.5500   -3.9410 hn        1 2FB      0.424300
     36 H12         1.7520   -1.1280   -2.4520 ha        1 2FB      0.144000
     37 H16         0.5660   -1.1780    1.7200 ha        1 2FB      0.144000
     38 H13         2.3290   -3.5370   -2.3110 ha        1 2FB      0.144500
     39 H15         1.1490   -3.5750    1.8650 ha        1 2FB      0.144500
     40 H181        2.2680   -6.8070    0.6670 h1        1 2FB      0.044367
     41 H182        2.5680   -5.3620    1.7660 h1        1 2FB      0.044367
     42 H183        0.8590   -5.7690    1.2340 h1        1 2FB      0.044367
     43 H20         0.5910    1.7600    2.0720 ha        1 2FB      0.132000
     44 H24        -1.7620   -0.2160   -0.9820 ha        1 2FB      0.157000
     45 H21        -1.4640    2.1420    3.4040 ha        1 2FB      0.135000
     46 H22        -3.6780    1.3760    2.5620 ha        1 2FB      0.135000
     47 H26        -4.9800   -0.5050    2.1850 h4        1 2FB      0.034100
     48 H30        -3.7510    0.5100   -1.8870 h4        1 2FB      0.034100
     49 H28        -7.5350   -1.0930   -1.0780 h5        1 2FB      0.055100
@<TRIPOS>BOND
     1    1    2 1   
     2    1   31 1   
     3    1   32 1   
     4    1   33 1   
     5    2    3 2   
     6    2    6 1   
     7    3    4 1   
     8    4    5 2   
     9    4    9 1   
    10    5    6 1   
    11    5    7 1   
    12    7    8 1   
    13    7   11 1   
    14    7   19 1   
    15    8    9 2   
    16    9   10 1   
    17   10   34 1   
    18   10   35 1   
    19   11   12 ar  
    20   11   16 ar  
    21   12   13 ar  
    22   12   36 1   
    23   13   14 ar  
    24   13   38 1   
    25   14   15 ar  
    26   14   17 1   
    27   15   16 ar  
    28   15   39 1   
    29   16   37 1   
    30   17   18 1   
    31   18   40 1   
    32   18   41 1   
    33   18   42 1   
    34   19   20 ar  
    35   19   24 ar  
    36   20   21 ar  
    37   20   43 1   
    38   21   22 ar  
    39   21   45 1   
    40   22   23 ar  
    41   22   46 1   
    42   23   24 ar  
    43   23   25 1   
    44   24   44 1   
    45   25   26 ar  
    46   25   30 ar  
    47   26   27 ar  
    48   26   47 1   
    49   27   28 ar  
    50   28   29 ar  
    51   28   49 1   
    52   29   30 ar  
    53   30   48 1   
@<TRIPOS>SUBSTRUCTURE
     1 2FB         1 TEMP              0 ****  ****    0 ROOT
