@<TRIPOS>MOLECULE
2FC
   58    57     1     0     0
SMALL
bcc


@<TRIPOS>ATOM
      1 C4         -0.3420   -0.9280   -0.1860 c2        1 2FC     -0.006000
      2 C5         -1.1230   -2.6510    5.4330 c1        1 2FC      0.402000
      3 C6         -6.8060   -2.4120    2.5510 c2        1 2FC     -0.048000
      4 C7         -6.0720   -3.4530    2.1430 cu        1 2FC     -0.203000
      5 C8         -4.6260   -3.1080    1.9090 cx        1 2FC     -0.267000
      6 C10        -5.8860   -1.1940    2.6260 c3        1 2FC     -0.123000
      7 C13        -1.0490   -1.3920    2.0850 c2        1 2FC      0.306000
      8 C15        -6.4960    1.9140    0.4180 c1        1 2FC     -0.221000
      9 C17        -3.2030    0.0770    3.6380 c3        1 2FC     -0.187000
     10 C20        -0.7080   -5.8120    0.1770 c3        1 2FC     -0.137000
     11 C21        -1.5540   -6.2490   -2.0680 c2        1 2FC     -0.226000
     12 C22        -3.3260   -1.2650    3.0070 c2        1 2FC     -0.119000
     13 C1         -0.1620   -3.2740    7.7360 c1        1 2FC      0.402000
     14 C2         -0.2560   -1.1920   -1.6320 c3        1 2FC     -0.222000
     15 C3         -0.6530   -2.9580    6.5670 c1        1 2FC     -0.710000
     16 C9         -1.0150   -1.7240    0.6650 c2        1 2FC     -0.315000
     17 C11        -4.4850   -1.7840    2.5620 c2        1 2FC     -0.014000
     18 C12        -5.0700   -4.4310    2.5810 cx        1 2FC      0.124000
     19 C14        -3.3320   -5.8690    1.7940 c2        1 2FC      0.406000
     20 C16        -6.4430    0.9210   -0.2460 c1        1 2FC     -0.221000
     21 C18        -1.4790   -7.0400    0.6940 c3        1 2FC     -0.010000
     22 C19        -0.7790   -6.6650   -3.0710 c2        1 2FC     -0.186000
     23 N24        -2.8800   -6.8650    0.9310 n         1 2FC     -0.371000
     24 N25        -1.1880   -5.1990   -1.1010 n4        1 2FC      0.183000
     25 N26        -4.7290   -5.6610    1.9460 n         1 2FC     -0.315000
     26 N27        -2.1010   -2.0700    2.9180 n4        1 2FC     -0.116000
     27 O28        -0.2970   -0.6340    2.6980 o         1 2FC     -0.253000
     28 O29        -2.5160   -5.1960    2.4840 o         1 2FC     -0.450000
     29 H1          0.1790   -0.0190    0.1710 ha        1 2FC      0.141000
     30 H2         -1.5410   -2.6510    0.2950 ha        1 2FC      0.242000
     31 H3         -6.0690   -0.6540    3.5890 hc        1 2FC      0.134500
     32 H4         -7.8500   -2.3610    2.8590 ha        1 2FC      0.177000
     33 H5         -4.9700   -4.5420    3.6900 h1        1 2FC      0.156000
     34 H6         -6.0460   -0.4790    1.7740 hc        1 2FC      0.134500
     35 H7         -6.5510    2.8030    0.9960 ha        1 2FC      0.222500
     36 H8         -4.1390    0.6620    3.4580 hc        1 2FC      0.109333
     37 H9         -3.0530   -0.0260    4.7430 hc        1 2FC      0.109333
     38 H12        -1.1400   -7.4170   -3.7890 ha        1 2FC      0.139500
     39 H13        -2.5870   -6.6120   -1.9150 hx        1 2FC      0.161000
     40 H14        -4.1340   -3.1890    0.9190 hc        1 2FC      0.176000
     41 H15        -0.7620   -2.1500   -1.9120 hc        1 2FC      0.109000
     42 H16         0.8180   -1.2400   -1.9460 hc        1 2FC      0.109000
     43 H17        -0.7420   -0.3540   -2.1960 hc        1 2FC      0.109000
     44 H18        -2.3390    0.6530    3.2190 hc        1 2FC      0.109333
     45 H19        -6.4050    0.0500   -0.8510 ha        1 2FC      0.222500
     46 H20        -0.9790   -7.3170    1.6700 h1        1 2FC      0.116500
     47 H21        -1.3590   -7.8960   -0.0300 h1        1 2FC      0.116500
     48 H22        -3.5150   -7.3290    0.3270 hn        1 2FC      0.239000
     49 H23         0.2400   -6.2990   -3.2570 ha        1 2FC      0.139500
     50 H24        -3.0580   -4.5340   -0.2950 hx        1 2FC      0.090000
     51 H25        -0.3840   -4.6920   -1.4960 hn        1 2FC      0.212000
     52 H26        -2.4240   -3.6110   -1.7710 hx        1 2FC      0.090000
     53 H28        -5.3320   -5.9540    1.2080 hn        1 2FC      0.229000
     54 H29        -2.3120   -2.9960    2.5120 hn        1 2FC      0.294000
     55 H10        -0.7440   -4.9990    0.9590 hx        1 2FC      0.132500
     56 C23        -2.1950   -4.2110   -0.8830 c2        1 2FC     -0.749000
     57 H272       -1.7170   -2.2230    3.9310 hn        1 2FC      0.294000
     58 H11         0.3590   -6.1410    0.0220 hx        1 2FC      0.132500
@<TRIPOS>BOND
     1    1   14 1   
     2    1   16 1   
     3    1   29 1   
     4    2   15 1   
     5    3    4 1   
     6    3    6 1   
     7    3   32 1   
     8    4    5 1   
     9    4   18 1   
    10    5   17 1   
    11    5   18 1   
    12    5   40 1   
    13    6   17 1   
    14    6   31 1   
    15    6   34 1   
    16    7   16 1   
    17    7   26 1   
    18    7   27 1   
    19    8   20 1   
    20    8   35 1   
    21    9   12 1   
    22    9   36 1   
    23    9   37 1   
    24    9   44 1   
    25   10   21 1   
    26   10   24 1   
    27   10   55 1   
    28   10   58 1   
    29   11   22 1   
    30   11   24 1   
    31   11   39 1   
    32   12   17 1   
    33   12   26 1   
    34   13   15 1   
    35   14   41 1   
    36   14   42 1   
    37   14   43 1   
    38   16   30 1   
    39   18   25 1   
    40   18   33 1   
    41   19   23 1   
    42   19   25 1   
    43   19   28 1   
    44   20   45 1   
    45   21   23 1   
    46   21   46 1   
    47   21   47 1   
    48   22   38 1   
    49   22   49 1   
    50   23   48 1   
    51   24   51 1   
    52   24   56 1   
    53   25   53 1   
    54   26   54 1   
    55   26   57 1   
    56   50   56 1   
    57   52   56 1   
@<TRIPOS>SUBSTRUCTURE
     1 2FC         1 TEMP              0 ****  ****    0 ROOT
