@<TRIPOS>MOLECULE
2FC
   58    56     1     0     0
SMALL
bcc


@<TRIPOS>ATOM
      1 C4          0.6670    0.5380    0.2530 c2        1 2FC     -0.041000
      2 C5         -0.8370    1.7720    4.5080 c1        1 2FC      0.385500
      3 C6         -4.9430   -3.4500    3.6790 c2        1 2FC      0.001000
      4 C7         -4.7360   -4.2990    2.6450 c2        1 2FC     -0.229000
      5 C8         -3.9620   -2.3900    1.2730 c2        1 2FC     -0.265000
      6 C10        -4.7040   -2.0000    3.6060 c3        1 2FC     -0.200000
      7 C13        -1.5710    0.0620    1.1350 c2        1 2FC      0.350000
      8 C15        -7.8840   -0.6850    4.8490 c1        1 2FC     -0.223500
      9 C17        -4.6410    0.8150    3.0770 c3        1 2FC     -0.239000
     10 C20        -2.5940   -8.8960   -0.6810 c3        1 2FC     -0.157000
     11 C21        -0.9250   -7.4370   -1.6820 c2        1 2FC     -0.229000
     12 C22        -3.8270   -0.0610    2.1280 c3        1 2FC      0.042000
     13 C1          0.6160    3.2040    6.0790 c1        1 2FC      0.385500
     14 C2          2.0610    1.0080    0.3340 c3        1 2FC     -0.214000
     15 C3         -0.1150    2.4800    5.2870 c1        1 2FC     -0.761000
     16 C9         -0.1810    0.5390    1.2930 c2        1 2FC     -0.251000
     17 C11        -4.1690   -1.5360    2.3120 c2        1 2FC      0.068000
     18 C12        -4.2390   -3.8080    1.3770 c2        1 2FC      0.302000
     19 C14        -4.2570   -6.0090    0.1840 c2        1 2FC      0.393000
     20 C16        -7.9810   -0.4230    3.6860 c1        1 2FC     -0.223500
     21 C18        -3.8520   -8.0920   -1.0360 c3        1 2FC     -0.054000
     22 C19        -0.9550   -6.6020   -2.7240 c2        1 2FC     -0.259000
     23 N24        -3.7260   -6.6590   -0.9190 ns        1 2FC     -0.348000
     24 N25        -1.4820   -8.8160   -1.6880 nx        1 2FC      0.235000
     25 N26        -3.9940   -4.5850    0.2980 ns        1 2FC     -0.264000
     26 N27        -2.4050    0.1550    2.2440 ns        1 2FC     -0.390000
     27 O28        -2.0050   -0.4400    0.0720 o         1 2FC     -0.409000
     28 O29        -4.9920   -6.5660    1.0210 o         1 2FC     -0.326000
     29 H1          0.3340    0.1740   -0.7380 ha        1 2FC      0.148000
     30 H2          0.1200    0.9000    2.2900 ha        1 2FC      0.142000
     31 H3         -3.9940   -1.6900    4.4330 hc        1 2FC      0.186500
     32 H4         -5.3220   -3.8360    4.6450 ha        1 2FC      0.174000
     33 H5         -4.9510   -5.3790    2.7640 ha        1 2FC      0.211000
     34 H6         -5.6850   -1.4610    3.8270 hc        1 2FC      0.186500
     35 H7         -7.8220   -0.9050    5.8870 ha        1 2FC      0.227000
     36 H8         -5.7310    0.6010    2.9430 hc        1 2FC      0.099333
     37 H9         -4.3660    0.6390    4.1440 hc        1 2FC      0.099333
     38 H12        -0.3940   -5.6580   -2.7110 ha        1 2FC      0.130000
     39 H13        -0.3460   -7.2360   -0.7620 hx        1 2FC      0.163000
     40 H14        -4.1370    0.1990    1.0620 h1        1 2FC      0.136000
     41 H15         2.3370    1.3450    1.3630 hc        1 2FC      0.101333
     42 H16         2.2110    1.8650   -0.3730 hc        1 2FC      0.101333
     43 H17         2.7570    0.1850    0.0310 hc        1 2FC      0.101333
     44 H18        -4.4660    1.8940    2.8420 hc        1 2FC      0.099333
     45 H19        -8.1040   -0.1810    2.6590 ha        1 2FC      0.227000
     46 H20        -4.6810   -8.4510   -0.3560 h1        1 2FC      0.134500
     47 H21        -4.1620   -8.3020   -2.1020 h1        1 2FC      0.134500
     48 H22        -3.0030   -6.2300   -1.4580 hn        1 2FC      0.249000
     49 H23        -1.4840   -6.8120   -3.6640 ha        1 2FC      0.130000
     50 H24        -0.1170   -9.8740   -0.4240 hx        1 2FC      0.140500
     51 H25        -0.0060  -10.2300   -2.2840 hx        1 2FC      0.140500
     52 H26        -1.8820   -8.9790   -2.6180 hn        1 2FC      0.204000
     53 H28        -3.6320   -4.1200   -0.5160 hn        1 2FC      0.267000
     54 H29        -3.5420   -1.9860    0.3260 ha        1 2FC      0.207000
     55 H10        -2.1810   -8.5850    0.3170 hx        1 2FC      0.144500
     56 C23        -0.5100   -9.7840   -1.4320 c2        1 2FC     -0.773000
     57 H272       -2.0770    0.6320    3.0610 hn        1 2FC      0.262000
     58 H11        -2.8830   -9.9850   -0.6140 hx        1 2FC      0.144500
@<TRIPOS>BOND
     1    1   14 1   
     2    1   16 1   
     3    1   29 1   
     4    2   15 1   
     5    3    4 1   
     6    3    6 1   
     7    3   32 1   
     8    4   18 1   
     9    4   33 1   
    10    5   17 1   
    11    5   18 1   
    12    5   54 1   
    13    6   17 1   
    14    6   31 1   
    15    6   34 1   
    16    7   16 1   
    17    7   26 1   
    18    7   27 1   
    19    8   20 1   
    20    8   35 1   
    21    9   12 1   
    22    9   36 1   
    23    9   37 1   
    24    9   44 1   
    25   10   21 1   
    26   10   24 1   
    27   10   55 1   
    28   10   58 1   
    29   11   22 1   
    30   11   24 1   
    31   11   39 1   
    32   12   17 1   
    33   12   26 1   
    34   12   40 1   
    35   13   15 1   
    36   14   41 1   
    37   14   42 1   
    38   14   43 1   
    39   16   30 1   
    40   18   25 1   
    41   19   23 1   
    42   19   25 1   
    43   19   28 1   
    44   20   45 1   
    45   21   23 1   
    46   21   46 1   
    47   21   47 1   
    48   22   38 1   
    49   22   49 1   
    50   23   48 1   
    51   24   52 1   
    52   24   56 1   
    53   25   53 1   
    54   26   57 1   
    55   50   56 1   
    56   51   56 1   
@<TRIPOS>SUBSTRUCTURE
     1 2FC         1 TEMP              0 ****  ****    0 ROOT
