@<TRIPOS>MOLECULE
2FC
   57    55     1     0     0
SMALL
bcc


@<TRIPOS>ATOM
      1 C4          1.3470   -0.5840   -0.7510 c2        1 2FC     -0.220500
      2 C5         -0.9940    2.5910    3.0280 c1        1 2FC      0.036000
      3 C6         -4.8720   -3.7850    3.3430 c3        1 2FC     -0.219000
      4 C7         -5.0210   -4.6850    2.2200 c1        1 2FC     -0.056000
      5 C8         -4.5150   -2.8080    0.6970 c2        1 2FC     -0.136000
      6 C10        -4.0770   -2.4950    3.1050 c3        1 2FC     -0.075000
      7 C13        -3.1090    1.5870    1.8110 c2        1 2FC      0.428000
      8 C15        -4.3880   -1.5180    4.1870 c2        1 2FC     -0.162000
      9 C17        -5.4780    0.0160    0.8320 c2        1 2FC     -0.251000
     10 C20        -3.3690   -9.0820   -1.7840 cu        1 2FC     -0.470000
     11 C21        -0.5300   -4.2570    0.5150 c1        1 2FC     -0.231500
     12 C22        -4.4330   -0.4990    1.5150 c2        1 2FC      0.055000
     13 C1          1.0430    3.6140    4.1780 c1        1 2FC     -0.131000
     14 C2          2.6240   -0.2810   -0.9390 c2        1 2FC     -0.220500
     15 C3          0.0870    3.1320    3.6400 c1        1 2FC     -0.081000
     16 C9         -1.9500    2.1100    2.4880 c1        1 2FC     -0.173000
     17 C11        -4.3540   -1.9640    1.7320 c2        1 2FC     -0.104000
     18 C12        -4.4410   -4.2970    0.9150 c3        1 2FC     -0.039000
     19 C14        -4.2110   -6.1210   -0.7180 c2        1 2FC      0.376000
     20 C16        -3.5500   -1.2260    5.1790 c2        1 2FC     -0.221000
     21 C18        -4.0170   -7.9340   -2.4060 c3        1 2FC      0.071000
     22 C19         0.2810   -3.5860    1.0830 c1        1 2FC     -0.231500
     23 N24        -4.8100   -7.0520   -1.5520 n         1 2FC     -0.389000
     24 N25        -2.3880   -9.0250   -0.7060 n4        1 2FC     -0.084000
     25 N26        -4.9840   -5.0420   -0.2100 n         1 2FC     -0.316000
     26 N27        -3.3670    0.2460    2.0520 n         1 2FC     -0.314000
     27 O28        -3.8050    2.3040    1.0680 o         1 2FC     -0.327000
     28 O29        -2.9830   -6.2010   -0.4240 o         1 2FC     -0.476000
     29 H1          1.0170   -1.5570   -0.3590 ha        1 2FC      0.110250
     30 H2          0.5310    0.1160   -0.9790 ha        1 2FC      0.110250
     31 H3         -4.4150   -4.3590    4.1980 hc        1 2FC      0.152000
     32 H4         -5.9260   -3.5320    3.6680 hc        1 2FC      0.152000
     33 H5         -3.3220   -4.5580    1.0070 h1        1 2FC      0.184000
     34 H6         -2.9770   -2.7590    3.1410 hc        1 2FC      0.102000
     35 H7         -5.3830   -1.0470    4.1140 ha        1 2FC      0.135000
     36 H8         -3.8120   -0.5130    5.9720 ha        1 2FC      0.116500
     37 H9         -5.6040    1.0860    0.6230 ha        1 2FC      0.140000
     38 H11        -1.5540   -6.5700    1.4060 ha        1 2FC      0.002000
     39 H12        -2.2770   -8.1930   -0.1340 hn        1 2FC      0.218500
     40 H13        -1.2490   -4.8560   -0.0000 ha        1 2FC      0.231000
     41 H14        -4.6920   -2.4490   -0.3290 ha        1 2FC      0.160000
     42 H15         2.9520    0.6900   -1.3330 ha        1 2FC      0.110250
     43 H16         3.4390   -0.9820   -0.7150 ha        1 2FC      0.110250
     44 H17         1.8900    4.0430    4.6540 ha        1 2FC      0.235000
     45 H18        -6.2600   -0.6460    0.4410 ha        1 2FC      0.140000
     46 H19        -2.5530   -1.6760    5.2720 ha        1 2FC      0.116500
     47 H20        -4.7250   -8.3420   -3.1860 h1        1 2FC      0.099500
     48 H21        -3.2250   -7.3150   -2.9230 h1        1 2FC      0.099500
     49 H22        -5.7600   -6.9160   -1.8070 hn        1 2FC      0.210000
     50 H23         1.0020   -2.9940    1.5870 ha        1 2FC      0.231000
     51 H24        -4.2930   -9.4830    0.2650 hx        1 2FC      0.101500
     52 H25        -3.5240  -10.9410   -0.5590 hx        1 2FC      0.101500
     53 H26        -1.5160   -9.4970   -0.8750 hn        1 2FC      0.218500
     54 H28        -5.9650   -5.2090   -0.1260 hn        1 2FC      0.207000
     55 H29        -2.7690   -0.2410    2.6840 hn        1 2FC      0.242000
     56 H10        -1.5900   -7.1970    1.6600 ha        1 2FC      0.002000
     57 C23        -3.6260   -9.8340   -0.5550 cx        1 2FC     -0.076000
@<TRIPOS>BOND
     1    1   14 1   
     2    1   29 1   
     3    1   30 1   
     4    2   15 1   
     5    2   16 1   
     6    3    4 1   
     7    3    6 1   
     8    3   31 1   
     9    3   32 1   
    10    4   18 1   
    11    5   17 1   
    12    5   18 1   
    13    5   41 1   
    14    6    8 1   
    15    6   17 1   
    16    6   34 1   
    17    7   16 1   
    18    7   26 1   
    19    7   27 1   
    20    8   20 1   
    21    8   35 1   
    22    9   12 1   
    23    9   37 1   
    24    9   45 1   
    25   10   21 1   
    26   10   24 1   
    27   10   57 1   
    28   11   22 1   
    29   11   40 1   
    30   12   17 1   
    31   12   26 1   
    32   13   15 1   
    33   13   44 1   
    34   14   42 1   
    35   14   43 1   
    36   18   25 1   
    37   18   33 1   
    38   19   23 1   
    39   19   25 1   
    40   19   28 1   
    41   20   36 1   
    42   20   46 1   
    43   21   23 1   
    44   21   47 1   
    45   21   48 1   
    46   22   50 1   
    47   23   49 1   
    48   24   39 1   
    49   24   53 1   
    50   24   57 1   
    51   25   54 1   
    52   26   55 1   
    53   38   56 1   
    54   51   57 1   
    55   52   57 1   
@<TRIPOS>SUBSTRUCTURE
     1 2FC         1 TEMP              0 ****  ****    0 ROOT
