@<TRIPOS>MOLECULE
2FD
   31    28     1     0     0
SMALL
bcc


@<TRIPOS>ATOM
      1 O5'        -2.7420    1.7200   -2.3390 oh        1 2FD     -0.588800
      2 C5'        -1.3620    1.5840   -2.1380 c3        1 2FD      0.121400
      3 C4'        -1.0180    2.1900   -0.9670 c3        1 2FD      0.086100
      4 O4'        -1.2730    1.2530    0.2050 os        1 2FD     -0.416600
      5 C1'        -0.0710    0.8630    0.5940 c3        1 2FD      0.434300
      6 N9          0.2860   -0.3210   -0.0630 n3        1 2FD     -0.472800
      7 C4         -0.0410   -1.2280    0.9060 c1        1 2FD      0.403600
      8 N3         -0.9250   -1.1790    1.9390 n1        1 2FD     -0.489300
      9 C2         -1.0840   -2.2580    2.7490 c1        1 2FD      0.565900
     10 F          -1.7530   -2.3480    3.9050 f         1 2FD     -0.056100
     11 N1         -0.3440   -3.4130    2.5250 n1        1 2FD     -0.609800
     12 C6          0.5220   -3.4650    1.5160 c1        1 2FD      0.322800
     13 N6          1.1590   -4.6970    1.5760 n3        1 2FD     -0.816400
     14 C5          0.6870   -2.3640    0.6860 c1        1 2FD     -0.259000
     15 N7          1.4590   -2.1590   -0.4140 n1        1 2FD     -0.489300
     16 C8          1.2080   -0.8900   -0.8780 c1        1 2FD      0.403600
     17 C2'         0.9360    2.0370    0.1850 c3        1 2FD     -0.155400
     18 C3'         0.5210    2.4860   -0.9470 c3        1 2FD      0.119100
     19 O3'         0.7680    3.9390   -1.0330 oh        1 2FD     -0.581800
     20 H5'        -2.8910    2.1250   -3.1150 ho        1 2FD      0.417000
     21 H5'1       -0.8830    2.0040   -2.8700 h1        1 2FD      0.049700
     22 H5'2       -1.1150    0.5760   -2.0950 h1        1 2FD      0.049700
     23 H4'        -1.5200    3.0140   -0.8550 h1        1 2FD      0.111700
     24 H1'        -0.0580    0.7210    1.6090 h2        1 2FD      0.127700
     25 HN61        0.9330   -5.3080    2.2520 hn        1 2FD      0.454300
     26 HN62        1.7520   -4.9400    0.9170 hn        1 2FD      0.454300
     27 H8          1.5460   -0.5140   -1.6850 DU        1 2FD      0.199000
     28 H2'1        0.9130    2.7520    0.8610 hc        1 2FD      0.080200
     29 H2'2        1.8300    1.6950    0.0970 hc        1 2FD      0.080200
     30 H3'         0.9530    2.0330   -1.6630 h1        1 2FD      0.047700
     31 H1          1.6090    4.0910   -1.4600 ho        1 2FD      0.408000
@<TRIPOS>BOND
     1    1    2 1   
     2    1   20 1   
     3    2    3 1   
     4    2   21 1   
     5    2   22 1   
     6    3    4 1   
     7    3   18 1   
     8    3   23 1   
     9    4    5 1   
    10    5    6 1   
    11    5   17 1   
    12    5   24 1   
    13    6    7 1   
    14    6   16 1   
    15    7    8 3   
    16    9   10 1   
    17    9   11 3   
    18   12   13 1   
    19   12   14 3   
    20   13   25 1   
    21   13   26 1   
    22   15   16 3   
    23   17   18 1   
    24   17   28 1   
    25   17   29 1   
    26   18   19 1   
    27   18   30 1   
    28   19   31 1   
@<TRIPOS>SUBSTRUCTURE
     1 2FD         1 TEMP              0 ****  ****    0 ROOT
