@<TRIPOS>MOLECULE
2FD
   31    33     1     0     0
SMALL
bcc


@<TRIPOS>ATOM
      1 O5'         0.9540   -1.2810   -0.4460 oh        1 2FD     -0.589800
      2 C5'         2.2310   -0.9330    0.0450 c3        1 2FD      0.113400
      3 C4'         2.1310   -0.0280    1.2700 c3        1 2FD      0.089100
      4 O4'         1.4550   -0.7390    2.3220 os        1 2FD     -0.422600
      5 C1'         2.3560   -1.0530    3.3910 c3        1 2FD      0.270800
      6 N9          2.6640   -2.4720    3.3750 na        1 2FD     -0.293000
      7 C4          3.4610   -3.1440    4.3130 ca        1 2FD      0.472800
      8 N3          4.1770   -2.6590    5.3700 nb        1 2FD     -0.760000
      9 C2          4.8270   -3.6590    6.0480 ca        1 2FD      0.901200
     10 F           5.5610   -3.2520    7.1170 f         1 2FD     -0.197200
     11 N1          4.8530   -5.0180    5.8150 nb        1 2FD     -0.811000
     12 C6          4.1290   -5.4810    4.7440 ca        1 2FD      0.787200
     13 N6          4.1200   -6.8140    4.4410 nh        1 2FD     -0.953500
     14 C5          3.3900   -4.5500    3.9400 ca        1 2FD     -0.243200
     15 N7          2.5660   -4.7080    2.8160 nc        1 2FD     -0.538100
     16 C8          2.1510   -3.4710    2.5100 cd        1 2FD      0.416700
     17 C2'         3.5870   -0.1340    3.2320 c3        1 2FD     -0.151400
     18 C3'         3.5130    0.3990    1.7980 c3        1 2FD      0.122100
     19 O3'         3.5550    1.8140    1.7510 oh        1 2FD     -0.587800
     20 H5'         0.4330   -1.5960    0.3050 ho        1 2FD      0.409000
     21 H5'1        2.7310   -0.3870   -0.7990 h1        1 2FD      0.056200
     22 H5'2        2.8100   -1.8630    0.2950 h1        1 2FD      0.056200
     23 H4'         1.4800    0.8650    1.0520 h1        1 2FD      0.112700
     24 H1'         1.7850   -0.8340    4.3430 h2        1 2FD      0.103700
     25 HN61        4.6030   -7.4680    5.0060 hn        1 2FD      0.454300
     26 HN62        3.5610   -7.1290    3.6870 hn        1 2FD      0.454300
     27 H8          1.4760   -3.2030    1.6860 h5        1 2FD      0.081800
     28 H2'1        3.5020    0.7070    3.9660 hc        1 2FD      0.088200
     29 H2'2        4.5500   -0.6650    3.4240 hc        1 2FD      0.088200
     30 H3'         4.3380   -0.0250    1.1630 h1        1 2FD      0.056700
     31 H1          4.4160    2.0800    2.0980 ho        1 2FD      0.411000
@<TRIPOS>BOND
     1    1    2 1   
     2    1   20 1   
     3    2    3 1   
     4    2   21 1   
     5    2   22 1   
     6    3    4 1   
     7    3   18 1   
     8    3   23 1   
     9    4    5 1   
    10    5    6 1   
    11    5   17 1   
    12    5   24 1   
    13    6    7 1   
    14    6   16 1   
    15    7    8 ar  
    16    7   14 ar  
    17    8    9 ar  
    18    9   10 1   
    19    9   11 ar  
    20   11   12 ar  
    21   12   13 1   
    22   12   14 ar  
    23   13   25 1   
    24   13   26 1   
    25   14   15 1   
    26   15   16 2   
    27   16   27 1   
    28   17   18 1   
    29   17   28 1   
    30   17   29 1   
    31   18   19 1   
    32   18   30 1   
    33   19   31 1   
@<TRIPOS>SUBSTRUCTURE
     1 2FD         1 TEMP              0 ****  ****    0 ROOT
