@<TRIPOS>MOLECULE
2FD
   31    33     1     0     0
SMALL
bcc


@<TRIPOS>ATOM
      1 O5'         1.0080   -1.5680   -0.0660 oh        1 2FD     -0.589800
      2 C5'         2.2760   -1.0080    0.2250 c3        1 2FD      0.105400
      3 C4'         2.0860   -0.0110    1.3690 c3        1 2FD      0.132100
      4 O4'         1.4170   -0.6250    2.4780 os        1 2FD     -0.388600
      5 C1'         2.3570   -0.9730    3.5010 c3        1 2FD      0.261800
      6 N9          2.6370   -2.3960    3.4390 na        1 2FD     -0.293000
      7 C4          3.4780   -3.1150    4.2980 ca        1 2FD      0.469800
      8 N3          4.2920   -2.6820    5.3060 nb        1 2FD     -0.758000
      9 C2          4.9550   -3.7190    5.9100 ca        1 2FD      0.896200
     10 F           5.7830   -3.3640    6.9280 f         1 2FD     -0.199200
     11 N1          4.9130   -5.0720    5.6470 nb        1 2FD     -0.811000
     12 C6          4.0960   -5.4830    4.6230 ca        1 2FD      0.782200
     13 N6          4.0290   -6.8070    4.2800 nv        1 2FD     -0.953500
     14 C5          3.3300   -4.5090    3.9000 ca        1 2FD     -0.241200
     15 N7          2.4160   -4.6120    2.8410 nc        1 2FD     -0.549100
     16 C8          2.0200   -3.3550    2.5960 cd        1 2FD      0.419700
     17 C2'         3.5920   -0.0660    3.2990 c3        1 2FD     -0.150400
     18 C3'         3.4530    0.4950    1.8790 c3        1 2FD      0.115100
     19 O3'         3.4020    1.9100    1.8580 oh        1 2FD     -0.588800
     20 H5'         1.1090   -2.0630   -0.8890 ho        1 2FD      0.405000
     21 H5'1        2.9850   -1.8260    0.5260 h1        1 2FD      0.035700
     22 H5'2        2.6870   -0.4650   -0.6680 h1        1 2FD      0.035700
     23 H4'         1.4100    0.8310    1.0550 h1        1 2FD      0.114700
     24 H1'         1.8320   -0.7600    4.4800 h2        1 2FD      0.103700
     25 HN61        3.3680   -7.0860    3.5990 hn        1 2FD      0.452300
     26 HN62        4.5030   -7.4920    4.8150 hn        1 2FD      0.452300
     27 H8          1.2920   -3.0330    1.8320 h5        1 2FD      0.104800
     28 H2'1        3.5540    0.7600    4.0530 hc        1 2FD      0.086200
     29 H2'2        4.5560   -0.6140    3.4310 hc        1 2FD      0.086200
     30 H3'         4.2930    0.1420    1.2200 h1        1 2FD      0.052700
     31 H1          4.2300    2.2270    2.2390 ho        1 2FD      0.410000
@<TRIPOS>BOND
     1    1    2 1   
     2    1   20 1   
     3    2    3 1   
     4    2   21 1   
     5    2   22 1   
     6    3    4 1   
     7    3   18 1   
     8    3   23 1   
     9    4    5 1   
    10    5    6 1   
    11    5   17 1   
    12    5   24 1   
    13    6    7 1   
    14    6   16 1   
    15    7    8 ar  
    16    7   14 ar  
    17    8    9 ar  
    18    9   10 1   
    19    9   11 ar  
    20   11   12 ar  
    21   12   13 1   
    22   12   14 ar  
    23   13   25 1   
    24   13   26 1   
    25   14   15 1   
    26   15   16 2   
    27   16   27 1   
    28   17   18 1   
    29   17   28 1   
    30   17   29 1   
    31   18   19 1   
    32   18   30 1   
    33   19   31 1   
@<TRIPOS>SUBSTRUCTURE
     1 2FD         1 TEMP              0 ****  ****    0 ROOT
