@<TRIPOS>MOLECULE
2FD
   31    33     1     0     0
SMALL
bcc


@<TRIPOS>ATOM
      1 O5'        -4.5120    1.2300    1.1670 oh        1 2FD     -0.595800
      2 C5'        -3.4760    1.2550    0.2020 c3        1 2FD      0.107400
      3 C4'        -3.3800   -0.1500   -0.3970 c3        1 2FD      0.132100
      4 O4'        -2.3250   -0.1580   -1.3700 os        1 2FD     -0.412600
      5 C1'        -1.1630   -0.8210   -0.8550 c3        1 2FD      0.266800
      6 N9         -0.1380    0.1620   -0.5530 na        1 2FD     -0.289000
      7 C4          1.1330   -0.1040   -0.0250 ca        1 2FD      0.473800
      8 N3          1.6900   -1.2810    0.3880 nb        1 2FD     -0.757000
      9 C2          2.9740   -1.1100    0.8400 ca        1 2FD      0.899200
     10 F           3.5940   -2.2410    1.2670 f         1 2FD     -0.197200
     11 N1          3.7380    0.0350    0.9280 nb        1 2FD     -0.811000
     12 C6          3.1570    1.2070    0.5120 ca        1 2FD      0.785200
     13 N6          3.8450    2.3860    0.5910 nh        1 2FD     -0.954500
     14 C5          1.8130    1.1850    0.0070 ca        1 2FD     -0.243200
     15 N7          0.9700    2.1860   -0.4960 nc        1 2FD     -0.544100
     16 C8         -0.1670    1.5530   -0.8220 cd        1 2FD      0.415700
     17 C2'        -1.6140   -1.6690    0.3560 c3        1 2FD     -0.148400
     18 C3'        -3.0480   -1.2200    0.6610 c3        1 2FD      0.123100
     19 O3'        -3.9670   -2.2830    0.4770 oh        1 2FD     -0.586800
     20 H5'        -4.6690    2.1460    1.4240 ho        1 2FD      0.409000
     21 H5'1       -2.5050    1.5420    0.6890 h1        1 2FD      0.035200
     22 H5'2       -3.7070    1.9910   -0.6140 h1        1 2FD      0.035200
     23 H4'        -4.3170   -0.4110   -0.9590 h1        1 2FD      0.111700
     24 H1'        -0.7840   -1.4660   -1.7040 h2        1 2FD      0.101700
     25 HN61        4.7860    2.4050    0.8980 hn        1 2FD      0.453300
     26 HN62        3.4250    3.2080    0.2320 hn        1 2FD      0.453300
     27 H8         -1.0600    2.0140   -1.2630 h5        1 2FD      0.084800
     28 H2'1       -1.5950   -2.7490    0.0640 hc        1 2FD      0.086700
     29 H2'2       -0.9510   -1.5380    1.2440 hc        1 2FD      0.086700
     30 H3'        -3.1440   -0.7970    1.6970 h1        1 2FD      0.071700
     31 H1         -3.8870   -2.8560    1.2490 ho        1 2FD      0.408000
@<TRIPOS>BOND
     1    1    2 1   
     2    1   20 1   
     3    2    3 1   
     4    2   21 1   
     5    2   22 1   
     6    3    4 1   
     7    3   18 1   
     8    3   23 1   
     9    4    5 1   
    10    5    6 1   
    11    5   17 1   
    12    5   24 1   
    13    6    7 1   
    14    6   16 1   
    15    7    8 ar  
    16    7   14 ar  
    17    8    9 ar  
    18    9   10 1   
    19    9   11 ar  
    20   11   12 ar  
    21   12   13 1   
    22   12   14 ar  
    23   13   25 1   
    24   13   26 1   
    25   14   15 1   
    26   15   16 2   
    27   16   27 1   
    28   17   18 1   
    29   17   28 1   
    30   17   29 1   
    31   18   19 1   
    32   18   30 1   
    33   19   31 1   
@<TRIPOS>SUBSTRUCTURE
     1 2FD         1 TEMP              0 ****  ****    0 ROOT
