@<TRIPOS>MOLECULE
2FD
   32    34     1     0     0
SMALL
bcc


@<TRIPOS>ATOM
      1 O5'         1.1320   -1.9010    0.0890 oh        1 2FD     -0.605800
      2 C5'         2.1890   -0.9640    0.0540 c3        1 2FD      0.110400
      3 C4'         2.1430   -0.0260    1.2600 c3        1 2FD      0.083100
      4 O4'         1.5600   -0.7120    2.3840 os        1 2FD     -0.396600
      5 C1'         2.5350   -0.9890    3.3810 c3        1 2FD      0.260800
      6 N9          2.7870   -2.4350    3.4100 na        1 2FD     -0.278000
      7 C4          3.5460   -3.1060    4.3770 ca        1 2FD      0.472800
      8 N3          4.2970   -2.6530    5.4040 nb        1 2FD     -0.644000
      9 C2          4.8950   -3.6620    6.1340 ca        1 2FD      0.891200
     10 F           5.6630   -3.2730    7.1770 f         1 2FD     -0.147200
     11 N1          4.8120   -5.0280    5.9380 nb        1 2FD     -0.706000
     12 C6          4.0470   -5.4380    4.8970 ca        1 2FD      0.539200
     13 N6          3.9120   -6.8850    4.6420 n4        1 2FD     -0.815300
     14 C5          3.3730   -4.5460    4.0540 ca        1 2FD     -0.142200
     15 N7          2.5390   -4.6900    2.9430 nc        1 2FD     -0.594100
     16 C8          2.2080   -3.4310    2.5920 cd        1 2FD      0.525700
     17 C2'         3.7820   -0.1330    3.0780 c3        1 2FD     -0.153400
     18 C3'         3.5420    0.4640    1.6830 c3        1 2FD      0.127100
     19 O3'         3.4800    1.8760    1.7270 oh        1 2FD     -0.578800
     20 H5'         0.3020   -1.4070    0.1180 ho        1 2FD      0.423000
     21 H5'1        3.1190   -1.5950    0.0530 h1        1 2FD      0.065200
     22 H5'2        2.1500   -0.3560   -0.8880 h1        1 2FD      0.065200
     23 H4'         1.4520    0.8430    1.0700 h1        1 2FD      0.119700
     24 H1'         2.0580   -0.7210    4.3730 h2        1 2FD      0.118700
     25 HN61        4.1630   -7.0670    3.6610 hn        1 2FD      0.481133
     26 HN62        2.9300   -7.1510    4.7930 hn        1 2FD      0.481133
     27 H8          1.5480   -3.1490    1.7410 h5        1 2FD      0.147800
     28 H2'1        3.8490    0.6830    3.8420 hc        1 2FD      0.091700
     29 H2'2        4.7310   -0.7190    3.1120 hc        1 2FD      0.091700
     30 H3'         4.3310    0.1310    0.9570 h1        1 2FD      0.063700
     31 H1          4.3810    2.2010    1.8490 ho        1 2FD      0.421000
     32 H63         4.5180   -7.4350    5.2650 hn        1 2FD      0.481133
@<TRIPOS>BOND
     1    1    2 1   
     2    1   20 1   
     3    2    3 1   
     4    2   21 1   
     5    2   22 1   
     6    3    4 1   
     7    3   18 1   
     8    3   23 1   
     9    4    5 1   
    10    5    6 1   
    11    5   17 1   
    12    5   24 1   
    13    6    7 1   
    14    6   16 1   
    15    7    8 ar  
    16    7   14 ar  
    17    8    9 ar  
    18    9   10 1   
    19    9   11 ar  
    20   11   12 ar  
    21   12   13 1   
    22   12   14 ar  
    23   13   25 1   
    24   13   26 1   
    25   13   32 1   
    26   14   15 1   
    27   15   16 2   
    28   16   27 1   
    29   17   18 1   
    30   17   28 1   
    31   17   29 1   
    32   18   19 1   
    33   18   30 1   
    34   19   31 1   
@<TRIPOS>SUBSTRUCTURE
     1 2FD         1 TEMP              0 ****  ****    0 ROOT
