@<TRIPOS>MOLECULE
2FE
   36    30     1     0     0
SMALL
bcc


@<TRIPOS>ATOM
      1 O3P        -3.9370   -5.7190    0.7200 o         1 2FE     -0.928833
      2 P          -2.4190   -5.6080    0.8150 p5        1 2FE      1.567500
      3 O1P        -1.9880   -5.6900    2.2850 o         1 2FE     -0.928833
      4 O2P        -1.7750   -6.7610    0.0270 o         1 2FE     -0.928833
      5 O5'        -1.9450   -4.1970    0.1920 os        1 2FE     -0.713000
      6 F1'         2.1040   -0.6750    0.7470 f         1 2FE     -0.166000
      7 N9          0.2260    0.7390    0.3110 n2        1 2FE     -0.131000
      8 C8         -0.0400    0.7720    1.6570 c1        1 2FE     -0.005000
      9 N7         -0.2170    2.0900    2.0270 n2        1 2FE     -0.123000
     10 C5         -0.0600    2.8760    0.9030 c1        1 2FE     -0.072000
     11 C4          0.2140    2.0470   -0.1590 c1        1 2FE     -0.064000
     12 N3          0.4510    2.5830   -1.3950 n1        1 2FE     -0.100000
     13 C2          0.4150    3.9750   -1.5770 c1        1 2FE     -0.014000
     14 N1          0.1380    4.8080   -0.5040 n1        1 2FE     -0.121000
     15 C6         -0.0960    4.2820    0.7160 c1        1 2FE      0.074000
     16 C10         0.0980    6.1720   -0.3900 c1        1 2FE     -0.220000
     17 C11        -0.1650    6.4810    0.9230 c1        1 2FE     -0.146000
     18 N6         -0.2850    5.3260    1.6050 n1        1 2FE     -0.136000
     19 C2'         1.5290   -0.9010   -0.5090 c3        1 2FE      0.005000
     20 C5'        -0.5490   -3.8060    0.3340 c3        1 2FE      0.081000
     21 C4'        -0.2520   -2.6290   -0.6080 c3        1 2FE     -0.060000
     22 O4'        -0.7140   -1.5110   -0.1080 os        1 2FE     -0.285000
     23 C1'         0.3120   -0.3600   -0.5630 c2        1 2FE      0.130000
     24 C3'         1.3000   -2.4150   -0.7350 c3        1 2FE      0.036000
     25 O3'         1.7070   -2.7620   -1.9290 oh        1 2FE     -0.399000
     26 H8         -0.0920   -0.0040    2.2540 DU        1 2FE      0.195667
     27 H2          0.5410    4.3730   -2.5120 ha        1 2FE      0.176000
     28 H10         0.2150    6.8070   -1.1100 DU        1 2FE      0.195667
     29 H11        -0.1830    7.3410    1.2920 DU        1 2FE      0.195667
     30 H2'         2.1380   -0.5080   -1.2630 h1        1 2FE      0.104000
     31 H5'        -0.3790   -3.5370    1.2560 h1        1 2FE      0.036500
     32 H5'A        0.0210   -4.5530    0.1050 h1        1 2FE      0.036500
     33 H4'        -0.6310   -2.7870   -1.4600 h1        1 2FE      0.127000
     34 H1'         0.1170   -0.0870   -1.4500 h4        1 2FE      0.115000
     35 H3'         1.7820   -2.9480   -0.0340 h1        1 2FE      0.157000
     36 HO3'        2.4200   -3.2160   -1.8630 ho        1 2FE      0.309000
@<TRIPOS>BOND
     1    1    2 1   
     2    2    3 1   
     3    2    4 1   
     4    2    5 1   
     5    5   20 1   
     6    6   19 1   
     7    7    8 1   
     8    7   11 1   
     9    8    9 1   
    10    9   10 1   
    11   10   15 1   
    12   11   12 1   
    13   13   14 1   
    14   13   27 1   
    15   16   17 1   
    16   17   18 1   
    17   19   23 1   
    18   19   24 1   
    19   19   30 1   
    20   20   21 1   
    21   20   31 1   
    22   20   32 1   
    23   21   22 1   
    24   21   24 1   
    25   21   33 1   
    26   22   23 1   
    27   23   34 1   
    28   24   25 1   
    29   24   35 1   
    30   25   36 1   
@<TRIPOS>SUBSTRUCTURE
     1 2FE         1 TEMP              0 ****  ****    0 ROOT
