@<TRIPOS>MOLECULE
2FE
   36    39     1     0     0
SMALL
bcc


@<TRIPOS>ATOM
      1 O3P        -6.2090    0.1690    0.7940 o         1 2FE     -0.928833
      2 P          -4.7600    0.0790    1.1530 p5        1 2FE      1.333900
      3 O1P        -4.1920    1.0750    2.1210 o         1 2FE     -0.928833
      4 O2P        -4.1680   -1.3120    1.2780 o         1 2FE     -0.928833
      5 O5'        -3.9380    0.5380   -0.3230 os        1 2FE     -0.551200
      6 F1'         0.4900   -2.6690    0.8910 f         1 2FE     -0.237300
      7 N9          1.2230   -0.2800   -0.4040 na        1 2FE     -0.214000
      8 C8          0.9050    0.8310    0.3910 cc        1 2FE      0.450700
      9 N7          1.9950    1.5100    0.8340 nd        1 2FE     -0.550100
     10 C5          3.0810    0.8240    0.3090 cd        1 2FE      0.002100
     11 C4          2.6230   -0.3110   -0.4850 cc        1 2FE      0.327800
     12 N3          3.4540   -1.1990   -1.1480 nc        1 2FE     -0.626000
     13 C2          4.7480   -0.9710   -1.0260 cd        1 2FE      0.474400
     14 N1          5.3130    0.0740   -0.2970 na        1 2FE     -0.158100
     15 C6          4.4930    1.0280    0.4080 cd        1 2FE      0.049700
     16 C10         6.6380    0.4480   -0.0740 cd        1 2FE     -0.247100
     17 C11         6.5820    1.5960    0.7430 cc        1 2FE     -0.005400
     18 N6          5.2720    1.9520    1.0370 nc        1 2FE     -0.276600
     19 C2'        -0.2620   -2.3630   -0.2210 c3        1 2FE      0.115600
     20 C5'        -2.5780    0.5060   -0.2160 c3        1 2FE      0.231400
     21 C4'        -2.0150   -0.7780   -0.8770 c3        1 2FE      0.051100
     22 O4'        -0.7910   -0.4670   -1.5990 os        1 2FE     -0.428600
     23 C1'         0.3120   -1.1890   -1.0930 c3        1 2FE      0.221800
     24 C3'        -1.7120   -1.9110    0.1170 c3        1 2FE      0.147100
     25 O3'        -2.5560   -3.0160   -0.0960 oh        1 2FE     -0.671800
     26 H8         -0.1510    1.0910    0.6050 h5        1 2FE      0.128800
     27 H2          5.4540   -1.6540   -1.5350 h5        1 2FE      0.039100
     28 H10         7.4760   -0.1020   -0.4890 h4        1 2FE      0.165000
     29 H11         7.4190    2.1750    1.1280 h4        1 2FE      0.164000
     30 H2'        -0.3000   -3.2750   -0.8820 h1        1 2FE      0.064700
     31 H5'        -2.1270    1.3820   -0.7730 h1        1 2FE     -0.002800
     32 H5'A       -2.2550    0.5510    0.8640 h1        1 2FE     -0.002800
     33 H4'        -2.7320   -1.1300   -1.6680 h1        1 2FE      0.087700
     34 H1'         0.8740   -1.5930   -1.9860 h2        1 2FE      0.075700
     35 H3'        -1.7970   -1.5600    1.1830 h1        1 2FE      0.117700
     36 HO3'       -3.4170   -2.7690    0.3210 ho        1 2FE      0.510000
@<TRIPOS>BOND
     1    1    2 1   
     2    2    3 1   
     3    2    4 1   
     4    2    5 1   
     5    5   20 1   
     6    6   19 1   
     7    7    8 1   
     8    7   11 1   
     9    7   23 1   
    10    8    9 2   
    11    8   26 1   
    12    9   10 1   
    13   10   11 2   
    14   10   15 1   
    15   11   12 1   
    16   12   13 2   
    17   13   14 1   
    18   13   27 1   
    19   14   15 1   
    20   14   16 1   
    21   15   18 2   
    22   16   17 2   
    23   16   28 1   
    24   17   18 1   
    25   17   29 1   
    26   19   23 1   
    27   19   24 1   
    28   19   30 1   
    29   20   21 1   
    30   20   31 1   
    31   20   32 1   
    32   21   22 1   
    33   21   24 1   
    34   21   33 1   
    35   22   23 1   
    36   23   34 1   
    37   24   25 1   
    38   24   35 1   
    39   25   36 1   
@<TRIPOS>SUBSTRUCTURE
     1 2FE         1 TEMP              0 ****  ****    0 ROOT
