@<TRIPOS>MOLECULE
2FF
   55    49     1     0     0
SMALL
bcc


@<TRIPOS>ATOM
      1 C1         -1.5660   -2.6350    2.5050 c1        1 2FF     -0.066000
      2 C2         -0.1420   -2.6020    2.5490 c1        1 2FF     -0.153000
      3 C3          0.5130   -2.6260    3.7720 c1        1 2FF      0.077000
      4 C4         -0.2290   -2.6820    4.9640 c2        1 2FF     -0.151000
      5 C5         -1.6450   -2.7140    4.9190 c1        1 2FF     -0.094000
      6 C6         -2.3040   -2.6910    3.6970 c1        1 2FF     -0.160000
      7 O13         2.0000   -2.7490    3.5070 o         1 2FF     -0.203000
      8 C8          2.2070   -2.6410    2.1090 c3        1 2FF     -0.028000
      9 C7          0.9060   -2.5940    1.4660 c2        1 2FF     -0.024000
     10 C10         0.7030   -3.7240    0.5250 c3        1 2FF     -0.172000
     11 C11         1.4590   -3.5290   -0.7730 c3        1 2FF     -0.035500
     12 N22         1.1980   -2.2460   -1.3710 n         1 2FF     -0.304000
     13 C13         1.3900   -1.1130   -0.4600 c3        1 2FF     -0.035500
     14 C14         0.6350   -1.2850    0.8340 c3        1 2FF     -0.172000
     15 C15         0.7740   -2.0870   -2.7920 c2        1 2FF      0.374000
     16 C32         0.4280   -0.7060   -3.3370 c2        1 2FF     -0.086000
     17 O35         0.5340    0.4800   -2.6600 os        1 2FF     -0.081000
     18 C18         0.2020    1.4960   -3.5290 c1        1 2FF      0.090000
     19 C19        -0.1110    0.9270   -4.7520 c1        1 2FF     -0.174000
     20 C20         0.0260   -0.4230   -4.6380 c1        1 2FF     -0.124000
     21 C21         0.3070    2.9860   -3.2430 c1        1 2FF     -0.079000
     22 C22         0.3890    4.1460   -3.0220 c1        1 2FF     -0.079000
     23 C46         0.4950    5.6400   -2.7350 c1        1 2FF      0.011000
     24 C24         0.1520    6.5570   -3.7140 c2        1 2FF     -0.101000
     25 C25         0.3260    7.9120   -3.4860 c1        1 2FF     -0.133000
     26 C26         0.8390    8.3500   -2.2870 c1        1 2FF     -0.123500
     27 C27         1.1850    7.4320   -1.3020 c1        1 2FF     -0.123500
     28 C28         1.0120    6.0780   -1.5290 c1        1 2FF     -0.099000
     29 O61         0.6350   -3.0650   -3.4940 o         1 2FF     -0.349000
     30 C30        -3.8570   -2.9380    3.6480 c3        1 2FF     -0.045000
     31 N64        -4.5160   -1.8880    4.2990 n3        1 2FF     -0.333000
     32 H1         -2.0390   -2.6180    1.6270 ha        1 2FF      0.138000
     33 H4          0.2240   -2.6990    5.8070 ha        1 2FF      0.152000
     34 H5         -2.1490   -2.7510    5.7350 ha        1 2FF      0.134000
     35 H81         2.7260   -3.4480    1.7760 h1        1 2FF      0.102000
     36 H82         2.7090   -1.8140    1.9090 h1        1 2FF      0.102000
     37 H101        1.0130   -4.5500    0.9490 hc        1 2FF      0.100250
     38 H102       -0.2450   -3.8060    0.3290 hc        1 2FF      0.100250
     39 H111        1.1980   -4.2240   -1.3960 h1        1 2FF      0.105500
     40 H112        2.4040   -3.6040   -0.5990 h1        1 2FF      0.105500
     41 H131        1.0790   -0.2860   -0.9070 h1        1 2FF      0.105500
     42 H132        2.3310   -1.0280   -0.2620 h1        1 2FF      0.105500
     43 H141        0.9060   -0.5590    1.4630 hc        1 2FF      0.100250
     44 H142       -0.2940   -1.2130    0.6610 hc        1 2FF      0.100250
     45 H19        -0.3900    1.4210   -5.5760 DU        1 2FF      0.175500
     46 H20        -0.1310   -1.0810   -5.3500 DU        1 2FF      0.175500
     47 H24        -0.2110    6.2490   -4.5640 ha        1 2FF      0.141000
     48 H25         0.0840    8.5530   -4.1750 ha        1 2FF      0.137000
     49 H26         0.9650    9.3370   -2.1240 ha        1 2FF      0.136500
     50 H27         1.5420    7.7360   -0.4700 ha        1 2FF      0.136500
     51 H28         1.2610    5.4090   -0.8130 ha        1 2FF      0.142000
     52 H301       -4.1560   -2.9810    2.7060 h1        1 2FF      0.098000
     53 H302       -4.0730   -3.8060    4.1060 h1        1 2FF      0.098000
     54 H641       -4.7270   -2.1470    5.1740 hn        1 2FF      0.142000
     55 H642       -3.9720   -1.1570    4.3210 hn        1 2FF      0.142000
@<TRIPOS>BOND
     1    1    6 1   
     2    1   32 1   
     3    2    3 1   
     4    3    4 1   
     5    4    5 1   
     6    4   33 1   
     7    5   34 1   
     8    6   30 1   
     9    7    8 1   
    10    8    9 1   
    11    8   35 1   
    12    8   36 1   
    13    9   10 1   
    14    9   14 1   
    15   10   11 1   
    16   10   37 1   
    17   10   38 1   
    18   11   12 1   
    19   11   39 1   
    20   11   40 1   
    21   12   13 1   
    22   12   15 1   
    23   13   14 1   
    24   13   41 1   
    25   13   42 1   
    26   14   43 1   
    27   14   44 1   
    28   15   16 1   
    29   15   29 1   
    30   16   17 1   
    31   16   20 1   
    32   17   18 1   
    33   18   19 1   
    34   19   20 1   
    35   21   22 1   
    36   23   24 1   
    37   23   28 1   
    38   24   25 1   
    39   24   47 1   
    40   25   48 1   
    41   26   27 1   
    42   26   49 1   
    43   27   50 1   
    44   28   51 1   
    45   30   31 1   
    46   30   52 1   
    47   30   53 1   
    48   31   54 1   
    49   31   55 1   
@<TRIPOS>SUBSTRUCTURE
     1 2FF         1 TEMP              0 ****  ****    0 ROOT
