@<TRIPOS>MOLECULE
2FF
   55    59     1     0     0
SMALL
bcc


@<TRIPOS>ATOM
      1 C1         -4.7440   -0.5090   -0.8720 ca        1 2FF     -0.053000
      2 C2         -4.1650   -0.6470    0.3750 ca        1 2FF     -0.164300
      3 C3         -4.7450   -1.5190    1.3290 ca        1 2FF      0.122100
      4 C4         -5.8910   -2.2550    1.0620 ca        1 2FF     -0.156000
      5 C5         -6.4610   -2.1060   -0.2090 ca        1 2FF     -0.092000
      6 C6         -5.9050   -1.2500   -1.1620 ca        1 2FF     -0.131300
      7 O13        -4.0520   -1.5460    2.5280 os        1 2FF     -0.320900
      8 C8         -2.9230   -0.6390    2.4040 c3        1 2FF      0.122400
      9 C7         -2.9440   -0.0070    0.9810 c3        1 2FF     -0.015700
     10 C10        -1.6910   -0.3690    0.1940 c3        1 2FF     -0.093400
     11 C11        -0.4490    0.3620    0.7110 c3        1 2FF      0.081000
     12 N22        -0.6160    1.7910    0.8420 n         1 2FF     -0.445800
     13 C13        -1.8200    2.1890    1.5460 c3        1 2FF      0.081000
     14 C14        -3.0940    1.5080    1.0480 c3        1 2FF     -0.093400
     15 C15         0.0110    2.7060    0.0040 c         1 2FF      0.590600
     16 C32         1.2410    2.3320   -0.7220 cc        1 2FF      0.200200
     17 O35         2.1540    1.4560   -0.1260 os        1 2FF     -0.339800
     18 C18         3.2360    1.3580   -1.0190 cc        1 2FF      0.389700
     19 C19         3.0040    2.1470   -2.1370 cd        1 2FF     -0.238300
     20 C20         1.7240    2.7780   -1.9410 cd        1 2FF     -0.191300
     21 C21         4.2920    0.5370   -0.6450 cg        1 2FF     -0.216000
     22 C22         5.2130   -0.1670   -0.3370 ch        1 2FF     -0.046000
     23 C46         6.2960   -0.9900    0.0190 ca        1 2FF      0.008000
     24 C24         7.3570   -1.1930   -0.8790 ca        1 2FF     -0.100000
     25 C25         8.4260   -2.0100   -0.5200 ca        1 2FF     -0.133000
     26 C26         8.4490   -2.6290    0.7300 ca        1 2FF     -0.115000
     27 C27         7.3980   -2.4300    1.6260 ca        1 2FF     -0.133000
     28 C28         6.3240   -1.6150    1.2780 ca        1 2FF     -0.100000
     29 O61        -0.4170    3.8730   -0.1110 o         1 2FF     -0.588100
     30 C30        -6.5670   -1.0900   -2.5000 c3        1 2FF      0.208100
     31 N64        -5.6680   -1.2730   -3.6170 n3        1 2FF     -0.917800
     32 H1         -4.3120    0.1620   -1.6290 ha        1 2FF      0.153000
     33 H4         -6.3280   -2.9250    1.8120 ha        1 2FF      0.151000
     34 H5         -7.3700   -2.6780   -0.4510 ha        1 2FF      0.133000
     35 H81        -3.0490    0.1260    3.2090 h1        1 2FF      0.061700
     36 H82        -2.0080   -1.2560    2.5810 h1        1 2FF      0.061700
     37 H101       -1.5020   -1.4720    0.2610 hc        1 2FF      0.061700
     38 H102       -1.8620   -0.1170   -0.8850 hc        1 2FF      0.061700
     39 H111       -0.1930   -0.0370    1.7360 h1        1 2FF      0.065700
     40 H112        0.4110    0.1230    0.0250 h1        1 2FF      0.065700
     41 H131       -1.6650    1.9240    2.6320 h1        1 2FF      0.065700
     42 H132       -1.9510    3.3060    1.4710 h1        1 2FF      0.065700
     43 H141       -3.3570    1.8880    0.0260 hc        1 2FF      0.061700
     44 H142       -3.9340    1.7790    1.7380 hc        1 2FF      0.061700
     45 H19         3.6570    2.2770   -2.9970 ha        1 2FF      0.172000
     46 H20         1.2380    3.4780   -2.6190 ha        1 2FF      0.179000
     47 H24         7.3400   -0.7060   -1.8650 ha        1 2FF      0.141500
     48 H25         9.2550   -2.1660   -1.2260 ha        1 2FF      0.137000
     49 H26         9.2960   -3.2730    1.0100 ha        1 2FF      0.136000
     50 H27         7.4160   -2.9170    2.6120 ha        1 2FF      0.137000
     51 H28         5.4950   -1.4580    1.9840 ha        1 2FF      0.141500
     52 H301       -7.4580   -1.7880   -2.5470 h1        1 2FF      0.032200
     53 H302       -6.9730   -0.0380   -2.5710 h1        1 2FF      0.032200
     54 H641       -5.1170   -2.1010   -3.5070 hn        1 2FF      0.351800
     55 H642       -6.1870   -1.3330   -4.4710 hn        1 2FF      0.351800
@<TRIPOS>BOND
     1    1    2 ar  
     2    1    6 ar  
     3    1   32 1   
     4    2    3 ar  
     5    2    9 1   
     6    3    4 ar  
     7    3    7 1   
     8    4    5 ar  
     9    4   33 1   
    10    5    6 ar  
    11    5   34 1   
    12    6   30 1   
    13    7    8 1   
    14    8    9 1   
    15    8   35 1   
    16    8   36 1   
    17    9   10 1   
    18    9   14 1   
    19   10   11 1   
    20   10   37 1   
    21   10   38 1   
    22   11   12 1   
    23   11   39 1   
    24   11   40 1   
    25   12   13 1   
    26   12   15 1   
    27   13   14 1   
    28   13   41 1   
    29   13   42 1   
    30   14   43 1   
    31   14   44 1   
    32   15   16 1   
    33   15   29 2   
    34   16   17 1   
    35   16   20 2   
    36   17   18 1   
    37   18   19 2   
    38   18   21 1   
    39   19   20 1   
    40   19   45 1   
    41   20   46 1   
    42   21   22 3   
    43   22   23 1   
    44   23   24 ar  
    45   23   28 ar  
    46   24   25 ar  
    47   24   47 1   
    48   25   26 ar  
    49   25   48 1   
    50   26   27 ar  
    51   26   49 1   
    52   27   28 ar  
    53   27   50 1   
    54   28   51 1   
    55   30   31 1   
    56   30   52 1   
    57   30   53 1   
    58   31   54 1   
    59   31   55 1   
@<TRIPOS>SUBSTRUCTURE
     1 2FF         1 TEMP              0 ****  ****    0 ROOT
