@<TRIPOS>MOLECULE
2FF
   56    59     1     0     0
SMALL
bcc


@<TRIPOS>ATOM
      1 C1         -0.0450    0.4260   -0.1140 ca        1 2FF     -0.045000
      2 C2          1.2760    0.5450    0.2580 ca        1 2FF     -0.159000
      3 C3          1.6230    1.3120    1.4070 ca        1 2FF      0.144000
      4 C4          0.6600    1.9350    2.2010 ca        1 2FF     -0.160000
      5 C5         -0.6720    1.7970    1.8130 ca        1 2FF     -0.049000
      6 C6         -1.0280    1.0600    0.6740 ca        1 2FF     -0.255000
      7 O13         2.9720    1.3720    1.6230 os        1 2FF     -0.179000
      8 C8          3.6390    0.6520    0.5350 c3        1 2FF     -0.027000
      9 C7          2.5440    0.0240   -0.3740 c3        1 2FF     -0.006000
     10 C10         2.5940   -1.5010   -0.2940 c3        1 2FF     -0.226000
     11 C11         3.9370   -2.0200   -0.4880 c1        1 2FF     -0.052000
     12 N22         3.7350   -1.3270   -3.1310 n         1 2FF     -0.372000
     13 C13         3.8550    0.0010   -2.5840 c3        1 2FF     -0.023000
     14 C14         2.6450    0.5230   -1.8100 c3        1 2FF     -0.167000
     15 C15         2.7570   -1.6750   -4.0500 c2        1 2FF      0.375000
     16 C32         2.9240   -2.9350   -4.7900 c2        1 2FF     -0.126000
     17 O35         4.0320   -3.7480   -4.5070 os        1 2FF     -0.100000
     18 C18         3.9330   -4.8510   -5.3720 c2        1 2FF      0.128000
     19 C19         2.8000   -4.7320   -6.1690 c2        1 2FF     -0.188000
     20 C20         2.1550   -3.5020   -5.7940 c2        1 2FF     -0.094000
     21 C21         4.9280   -5.8140   -5.2830 c1        1 2FF     -0.145000
     22 C22         5.7820   -6.6560   -5.2260 c1        1 2FF     -0.010000
     23 C46         6.7770   -7.6470   -5.1670 ca        1 2FF     -0.007000
     24 C24         6.6750   -8.8010   -5.9630 ca        1 2FF     -0.094500
     25 C25         7.6650   -9.7770   -5.9010 ca        1 2FF     -0.132500
     26 C26         8.7610   -9.6150   -5.0520 ca        1 2FF     -0.104000
     27 C27         8.8670   -8.4710   -4.2610 ca        1 2FF     -0.132500
     28 C28         7.8830   -7.4870   -4.3140 ca        1 2FF     -0.094500
     29 O61         1.7300   -0.9830   -4.2220 o         1 2FF     -0.375000
     30 C30        -2.4460    1.0010    0.2460 c3        1 2FF     -0.055000
     31 N64        -3.1120   -0.2450    0.7670 n4        1 2FF     -0.076000
     32 H1         -0.3220   -0.1310   -1.0230 ha        1 2FF      0.146000
     33 H4          0.9470    2.5220    3.0840 ha        1 2FF      0.178000
     34 H5         -1.4520    2.2990    2.4080 ha        1 2FF      0.139000
     35 H81         4.2550    1.4140   -0.0030 h1        1 2FF      0.133500
     36 H82         4.2870   -0.1170    1.0240 h1        1 2FF      0.133500
     37 H101        2.2900   -1.8300    0.7460 hc        1 2FF      0.119000
     38 H102        1.8350   -1.9230   -1.0110 hc        1 2FF      0.119000
     39 H111        4.0060   -3.0900   -0.7350 ha        1 2FF      0.059000
     40 H112        4.5750   -1.8650   -3.1370 hn        1 2FF      0.243000
     41 H131        1.6970    0.2640   -2.3530 hc        1 2FF      0.111000
     42 H132        4.0520    0.7340   -3.4220 h1        1 2FF      0.102500
     43 H141        4.7510   -0.0080   -1.8940 h1        1 2FF      0.102500
     44 H142        2.7240    1.6430   -1.7910 hc        1 2FF      0.111000
     45 H19         2.4630   -5.4270   -6.9340 ha        1 2FF      0.179000
     46 H20         1.2420   -3.0930   -6.2230 ha        1 2FF      0.180000
     47 H24         5.8120   -8.9290   -6.6330 ha        1 2FF      0.141000
     48 H25         7.5830  -10.6800   -6.5260 ha        1 2FF      0.142000
     49 H26         9.5420  -10.3890   -5.0080 ha        1 2FF      0.142000
     50 H27         9.7320   -8.3420   -3.5930 ha        1 2FF      0.142000
     51 H28         7.9680   -6.5840   -3.6910 ha        1 2FF      0.141000
     52 H301       -3.0320    1.8810    0.6390 hx        1 2FF      0.149000
     53 H302       -2.5310    0.9750   -0.8800 hx        1 2FF      0.149000
     54 H641       -2.6130   -1.0710    0.4220 hn        1 2FF      0.249000
     55 H642       -4.0870   -0.2860    0.4620 hn        1 2FF      0.249000
     56 H643       -3.0770   -0.2540    1.7910 hn        1 2FF      0.249000
@<TRIPOS>BOND
     1    1    2 1   
     2    1    6 1   
     3    1   32 1   
     4    2    3 1   
     5    2    9 1   
     6    3    4 1   
     7    3    7 1   
     8    4    5 1   
     9    4   33 1   
    10    5    6 1   
    11    5   34 1   
    12    6   30 1   
    13    7    8 1   
    14    8    9 1   
    15    8   35 1   
    16    8   36 1   
    17    9   10 1   
    18    9   14 1   
    19   10   11 1   
    20   10   37 1   
    21   10   38 1   
    22   11   39 1   
    23   12   13 1   
    24   12   15 1   
    25   12   40 1   
    26   13   14 1   
    27   13   42 1   
    28   13   43 1   
    29   14   41 1   
    30   14   44 1   
    31   15   16 1   
    32   15   29 1   
    33   16   17 1   
    34   16   20 1   
    35   17   18 1   
    36   18   19 1   
    37   18   21 1   
    38   19   20 1   
    39   19   45 1   
    40   20   46 1   
    41   21   22 1   
    42   22   23 1   
    43   23   24 1   
    44   23   28 1   
    45   24   25 1   
    46   24   47 1   
    47   25   26 1   
    48   25   48 1   
    49   26   27 1   
    50   26   49 1   
    51   27   28 1   
    52   27   50 1   
    53   28   51 1   
    54   30   31 1   
    55   30   52 1   
    56   30   53 1   
    57   31   54 1   
    58   31   55 1   
    59   31   56 1   
@<TRIPOS>SUBSTRUCTURE
     1 2FF         1 TEMP              0 ****  ****    0 ROOT
