@<TRIPOS>MOLECULE
2FF
   56    60     1     0     0
SMALL
bcc


@<TRIPOS>ATOM
      1 C1         -0.0580    0.2620   -0.1160 ca        1 2FF     -0.044000
      2 C2          1.2760    0.1670    0.2140 ca        1 2FF     -0.154300
      3 C3          1.6920    0.4070    1.5540 ca        1 2FF      0.186100
      4 C4          0.7890    0.7340    2.5660 ca        1 2FF     -0.155000
      5 C5         -0.5560    0.8250    2.2130 ca        1 2FF     -0.053000
      6 C6         -0.9830    0.5920    0.8970 ca        1 2FF     -0.257300
      7 O13         3.0460    0.2900    1.7250 os        1 2FF     -0.290900
      8 C8          3.6380   -0.0310    0.4260 c3        1 2FF      0.117400
      9 C7          2.4920   -0.1410   -0.6210 c3        1 2FF     -0.020700
     10 C10         2.4140   -1.5490   -1.2020 c3        1 2FF     -0.098400
     11 C11         3.5600   -1.8360   -2.1790 c3        1 2FF      0.075500
     12 N22         3.7160   -0.8370   -3.2100 n         1 2FF     -0.439800
     13 C13         3.7890    0.5160   -2.6930 c3        1 2FF      0.075500
     14 C14         2.6570    0.8880   -1.7340 c3        1 2FF     -0.098400
     15 C15         3.1790   -1.0220   -4.4950 c         1 2FF      0.587600
     16 C32         3.2400   -2.3370   -5.1460 cc        1 2FF      0.172200
     17 O35         4.0390   -3.3590   -4.6180 os        1 2FF     -0.343800
     18 C18         3.9270   -4.4390   -5.5110 cc        1 2FF      0.418700
     19 C19         3.0840   -4.1040   -6.5640 cd        1 2FF     -0.250300
     20 C20         2.6490   -2.7520   -6.3320 cd        1 2FF     -0.165300
     21 C21         4.6420   -5.5890   -5.2050 cg        1 2FF     -0.246000
     22 C22         5.2580   -6.5900   -4.9650 ch        1 2FF     -0.014000
     23 C46         5.9780   -7.7670   -4.6920 ca        1 2FF     -0.008000
     24 C24         5.7210   -8.9380   -5.4240 ca        1 2FF     -0.096500
     25 C25         6.4390  -10.1000   -5.1520 ca        1 2FF     -0.132500
     26 C26         7.4150  -10.1050   -4.1540 ca        1 2FF     -0.105000
     27 C27         7.6740   -8.9440   -3.4260 ca        1 2FF     -0.132500
     28 C28         6.9620   -7.7770   -3.6890 ca        1 2FF     -0.096500
     29 O61         2.7110   -0.0550   -5.1300 o         1 2FF     -0.584100
     30 C30        -2.4150    0.7510    0.5500 c3        1 2FF      0.188100
     31 N64        -3.1500   -0.5550    0.7010 nz        1 2FF     -0.848600
     32 H1         -0.3910    0.1040   -1.1530 ha        1 2FF      0.144000
     33 H4          1.1330    0.9230    3.5940 ha        1 2FF      0.179000
     34 H5         -1.2900    1.1040    2.9870 ha        1 2FF      0.139000
     35 H81         4.3480    0.8030    0.2010 h1        1 2FF      0.085200
     36 H82         4.1830   -0.9960    0.5740 h1        1 2FF      0.085200
     37 H101        1.4300   -1.6650   -1.7280 hc        1 2FF      0.057700
     38 H102        2.4550   -2.3070   -0.3780 hc        1 2FF      0.057700
     39 H111        4.5290   -1.8710   -1.6010 h1        1 2FF      0.075700
     40 H112        3.3920   -2.8530   -2.6310 h1        1 2FF      0.075700
     41 H131        3.7910    1.2480   -3.5510 h1        1 2FF      0.075700
     42 H132        4.7740    0.6040   -2.1500 h1        1 2FF      0.075700
     43 H141        1.6930    0.9640   -2.3030 hc        1 2FF      0.057700
     44 H142        2.8770    1.8960   -1.2960 hc        1 2FF      0.057700
     45 H19         2.8110   -4.7300   -7.4090 ha        1 2FF      0.179000
     46 H20         1.9930   -2.1630   -6.9710 ha        1 2FF      0.181000
     47 H24         4.9540   -8.9350   -6.2130 ha        1 2FF      0.141000
     48 H25         6.2370  -11.0150   -5.7280 ha        1 2FF      0.141500
     49 H26         7.9820  -11.0250   -3.9440 ha        1 2FF      0.141000
     50 H27         8.4460   -8.9480   -2.6410 ha        1 2FF      0.141500
     51 H28         7.1700   -6.8600   -3.1170 ha        1 2FF      0.141000
     52 H301       -2.5420    1.0820   -0.5220 hx        1 2FF      0.109200
     53 H302       -2.9220    1.4980    1.2280 hx        1 2FF      0.109200
     54 H641       -3.0710   -0.8850    1.6680 hn        1 2FF      0.454800
     55 H642       -2.7310   -1.2600    0.0870 hn        1 2FF      0.454800
     56 H643       -4.1380   -0.4410    0.4610 hn        1 2FF      0.454800
@<TRIPOS>BOND
     1    1    2 ar  
     2    1    6 ar  
     3    1   32 1   
     4    2    3 ar  
     5    2    9 1   
     6    3    4 ar  
     7    3    7 1   
     8    4    5 ar  
     9    4   33 1   
    10    5    6 ar  
    11    5   34 1   
    12    6   30 1   
    13    7    8 1   
    14    8    9 1   
    15    8   35 1   
    16    8   36 1   
    17    9   10 1   
    18    9   14 1   
    19   10   11 1   
    20   10   37 1   
    21   10   38 1   
    22   11   12 1   
    23   11   39 1   
    24   11   40 1   
    25   12   13 1   
    26   12   15 1   
    27   13   14 1   
    28   13   41 1   
    29   13   42 1   
    30   14   43 1   
    31   14   44 1   
    32   15   16 1   
    33   15   29 2   
    34   16   17 1   
    35   16   20 2   
    36   17   18 1   
    37   18   19 2   
    38   18   21 1   
    39   19   20 1   
    40   19   45 1   
    41   20   46 1   
    42   21   22 3   
    43   22   23 1   
    44   23   24 ar  
    45   23   28 ar  
    46   24   25 ar  
    47   24   47 1   
    48   25   26 ar  
    49   25   48 1   
    50   26   27 ar  
    51   26   49 1   
    52   27   28 ar  
    53   27   50 1   
    54   28   51 1   
    55   30   31 1   
    56   30   52 1   
    57   30   53 1   
    58   31   54 1   
    59   31   55 1   
    60   31   56 1   
@<TRIPOS>SUBSTRUCTURE
     1 2FF         1 TEMP              0 ****  ****    0 ROOT
