@<TRIPOS>MOLECULE
2FG
   23    23     1     0     0
SMALL
bcc


@<TRIPOS>ATOM
      1 C1         -0.9590   -0.9350   -1.5070 c3        1 2FG      0.327900
      2 O1         -1.3940   -0.7360   -2.6260 oh        1 2FG     -0.573800
      3 C2          0.6300   -0.9350   -1.5070 c3        1 2FG      0.074600
      4 F2          1.0550   -2.0230   -2.1640 f         1 2FG     -0.229300
      5 C3          1.2440   -0.9350   -0.1420 c3        1 2FG      0.077100
      6 O3          2.7180   -0.8220   -0.2880 oh        1 2FG     -0.601800
      7 C4          0.7840    0.1350    0.6920 c3        1 2FG      0.125100
      8 O4          1.3340    1.4420    0.1390 oh        1 2FG     -0.591800
      9 C5         -0.6420    0.2470    0.7780 c3        1 2FG      0.111100
     10 O5         -1.3110    0.2890   -0.5280 os        1 2FG     -0.449600
     11 C6         -0.9890    1.5440    1.5520 c3        1 2FG      0.143400
     12 O6         -2.3690    1.5630    1.8420 oh        1 2FG     -0.597800
     13 H1         -1.3040   -1.7740   -1.1460 h2        1 2FG      0.088700
     14 HO1        -2.2590   -0.9350   -2.6480 ho        1 2FG      0.425000
     15 H2          0.9390   -0.1430   -1.9850 h1        1 2FG      0.087700
     16 H3          1.0360   -1.7830    0.2940 h1        1 2FG      0.058700
     17 HO3         3.1040   -1.5560    0.0280 ho        1 2FG      0.425000
     18 H4          1.1400    0.0030    1.5910 h1        1 2FG      0.061700
     19 HO4         2.0280    1.7020    0.6280 ho        1 2FG      0.426000
     20 H5         -0.9850   -0.5170    1.2790 h1        1 2FG      0.059700
     21 H6         -0.7610    2.3200    1.0050 h1        1 2FG      0.067200
     22 H6A        -0.4810    1.5720    2.3850 h1        1 2FG      0.067200
     23 HO6        -2.5590    2.2800    2.3290 ho        1 2FG      0.415000
@<TRIPOS>BOND
     1    1    2 1   
     2    1    3 1   
     3    1   10 1   
     4    1   13 1   
     5    2   14 1   
     6    3    4 1   
     7    3    5 1   
     8    3   15 1   
     9    5    6 1   
    10    5    7 1   
    11    5   16 1   
    12    6   17 1   
    13    7    8 1   
    14    7    9 1   
    15    7   18 1   
    16    8   19 1   
    17    9   10 1   
    18    9   11 1   
    19    9   20 1   
    20   11   12 1   
    21   11   21 1   
    22   11   22 1   
    23   12   23 1   
@<TRIPOS>SUBSTRUCTURE
     1 2FG         1 TEMP              0 ****  ****    0 ROOT
