@<TRIPOS>MOLECULE
2FG
   23    23     1     0     0
SMALL
bcc


@<TRIPOS>ATOM
      1 C1          0.3520   -1.4160    0.3880 c3        1 2FG      0.327900
      2 O1          0.4730   -2.6380   -0.2780 oh        1 2FG     -0.573800
      3 C2          1.4320   -0.3900   -0.0490 c3        1 2FG      0.074600
      4 F2          2.6920   -0.7930    0.3530 f         1 2FG     -0.229300
      5 C3          1.0860    0.9870    0.5620 c3        1 2FG      0.077100
      6 O3          1.9520    1.9910    0.0640 oh        1 2FG     -0.601800
      7 C4         -0.3370    1.4010    0.1520 c3        1 2FG      0.125100
      8 O4         -0.4250    1.6250   -1.2430 oh        1 2FG     -0.591800
      9 C5         -1.3230    0.2870    0.5270 c3        1 2FG      0.111100
     10 O5         -0.9380   -0.9780   -0.0120 os        1 2FG     -0.449600
     11 C6         -2.7190    0.5650   -0.0410 c3        1 2FG      0.143400
     12 O6         -3.6580   -0.3620    0.4570 oh        1 2FG     -0.597800
     13 H1          0.4080   -1.6330    1.4890 h2        1 2FG      0.088700
     14 HO1         0.1870   -2.5110   -1.1940 ho        1 2FG      0.425000
     15 H2          1.4210   -0.3000   -1.1740 h1        1 2FG      0.087700
     16 H3          1.1680    0.9350    1.6830 h1        1 2FG      0.058700
     17 HO3         2.8560    1.6830    0.2150 ho        1 2FG      0.425000
     18 H4         -0.6140    2.3460    0.7000 h1        1 2FG      0.061700
     19 HO4         0.2730    2.2580   -1.4670 ho        1 2FG      0.426000
     20 H5         -1.3640    0.2040    1.6500 h1        1 2FG      0.059700
     21 H6         -3.0740    1.5690    0.3110 h1        1 2FG      0.067200
     22 H6A        -2.6800    0.5380   -1.1620 h1        1 2FG      0.067200
     23 HO6        -3.3770   -1.2370    0.1610 ho        1 2FG      0.415000
@<TRIPOS>BOND
     1    1    2 1   
     2    1    3 1   
     3    1   10 1   
     4    1   13 1   
     5    2   14 1   
     6    3    4 1   
     7    3    5 1   
     8    3   15 1   
     9    5    6 1   
    10    5    7 1   
    11    5   16 1   
    12    6   17 1   
    13    7    8 1   
    14    7    9 1   
    15    7   18 1   
    16    8   19 1   
    17    9   10 1   
    18    9   11 1   
    19    9   20 1   
    20   11   12 1   
    21   11   21 1   
    22   11   22 1   
    23   12   23 1   
@<TRIPOS>SUBSTRUCTURE
     1 2FG         1 TEMP              0 ****  ****    0 ROOT
