@<TRIPOS>MOLECULE
2FI
   33    31     1     0     0
SMALL
bcc


@<TRIPOS>ATOM
      1 O3P        -1.2300   -4.2140    0.4450 o         1 2FI     -0.929167
      2 P           0.2360   -4.1980    0.1590 p5        1 2FI      1.567500
      3 O1P         0.9820   -4.8020    1.3220 o         1 2FI     -0.929167
      4 O2P         0.5150   -5.0050   -1.0940 o         1 2FI     -0.929167
      5 O5'         0.7170   -2.6950   -0.0590 os        1 2FI     -0.714000
      6 O6         -3.9620    2.0510   -2.8360 o         1 2FI     -0.368000
      7 C6         -2.7590    1.9950   -2.6610 c1        1 2FI      0.384000
      8 N1         -1.8840    2.3390   -3.6970 n3        1 2FI     -0.347000
      9 C2         -0.4850    2.1960   -3.5200 c2        1 2FI      0.026000
     10 N3          0.0320    1.7000   -2.2850 n1        1 2FI     -0.148000
     11 C4         -0.8810    1.3390   -1.1970 c1        1 2FI     -0.112000
     12 C5         -2.2140    1.4720   -1.3620 c1        1 2FI     -0.112000
     13 N7         -2.8170    1.1050   -0.2060 n2        1 2FI     -0.117000
     14 C8         -1.8550    0.7450    0.6720 c1        1 2FI     -0.030000
     15 N9         -0.6590    0.8890    0.0630 n2        1 2FI     -0.117000
     16 F1'        -0.1550    1.0680    2.5440 f         1 2FI     -0.167000
     17 C2'         0.9580    1.1390    1.9220 c3        1 2FI      0.006000
     18 C5'         0.5810   -1.7630    1.0310 c3        1 2FI      0.081000
     19 C4'         1.7280   -0.8050    1.0140 c3        1 2FI     -0.059000
     20 O4'         1.5040    0.3150   -0.1440 os        1 2FI     -0.284000
     21 C1'         0.7110    1.2060    0.3660 c2        1 2FI      0.129000
     22 C3'         1.7860   -0.1470    2.1580 c3        1 2FI      0.036000
     23 O3'         3.1810    0.1950    2.4820 oh        1 2FI     -0.400000
     24 HN1        -2.2250    2.6880   -4.5090 hn        1 2FI      0.231000
     25 H2          0.1290    2.4370   -4.2470 h5        1 2FI      0.161000
     26 H8         -2.0050    0.3670    1.5750 DU        1 2FI      0.255000
     27 H2'         1.4710    1.9420    2.2240 h1        1 2FI      0.104000
     28 H5'        -0.2720   -1.2600    0.9340 h1        1 2FI      0.037000
     29 H5'A        0.5760   -2.2390    1.8590 h1        1 2FI      0.037000
     30 H4'         2.5620   -1.2820    0.8600 h1        1 2FI      0.126000
     31 H1'         0.9370    2.0930    0.0250 h4        1 2FI      0.115000
     32 H3'         1.3860   -0.6830    2.8840 h1        1 2FI      0.156000
     33 HO3'        3.4110   -0.1880    3.2810 ho        1 2FI      0.309000
@<TRIPOS>BOND
     1    1    2 1   
     2    2    3 1   
     3    2    4 1   
     4    2    5 1   
     5    5   18 1   
     6    6    7 1   
     7    7    8 1   
     8    8    9 1   
     9    8   24 1   
    10    9   10 1   
    11    9   25 1   
    12   11   12 1   
    13   11   15 1   
    14   12   13 1   
    15   13   14 1   
    16   14   15 1   
    17   16   17 1   
    18   17   21 1   
    19   17   22 1   
    20   17   27 1   
    21   18   19 1   
    22   18   28 1   
    23   18   29 1   
    24   19   20 1   
    25   19   22 1   
    26   19   30 1   
    27   20   21 1   
    28   21   31 1   
    29   22   23 1   
    30   22   32 1   
    31   23   33 1   
@<TRIPOS>SUBSTRUCTURE
     1 2FI         1 TEMP              0 ****  ****    0 ROOT
