@<TRIPOS>MOLECULE
2FI
   33    35     1     0     0
SMALL
bcc


@<TRIPOS>ATOM
      1 O3P         3.9620   -1.0590    1.7860 o         1 2FI     -0.929167
      2 P           4.3990    0.0640    0.8930 p5        1 2FI      1.333900
      3 O1P         3.7220    1.3890    1.1890 o         1 2FI     -0.929167
      4 O2P         5.8260    0.1180    0.4500 o         1 2FI     -0.929167
      5 O5'         3.5230   -0.3100   -0.5760 os        1 2FI     -0.552200
      6 C6         -4.8330   -1.4680    0.5160 c         1 2FI      0.637000
      7 N1         -5.7250   -0.5150   -0.0440 n         1 2FI     -0.507400
      8 C2         -5.2670    0.6280   -0.6910 cc        1 2FI      0.449800
      9 N3         -4.0130    0.9880   -0.8780 nd        1 2FI     -0.575100
     10 C4         -3.0790    0.0980   -0.3460 cd        1 2FI      0.034800
     11 C5         -3.4340   -1.1250    0.3440 cc        1 2FI      0.208800
     12 N7         -2.2820   -1.7930    0.7510 nc        1 2FI     -0.631000
     13 C8         -1.2580   -1.0130    0.3310 cd        1 2FI      0.458400
     14 N9         -1.6860    0.1520   -0.3370 na        1 2FI     -0.173900
     15 F1'        -1.0360    2.4420    1.1640 f         1 2FI     -0.238300
     16 C2'        -0.3250    2.3010   -0.0070 c3        1 2FI      0.116600
     17 C5'         2.1720   -0.3830   -0.3970 c3        1 2FI      0.231400
     18 C4'         1.4910    0.9140   -0.8990 c3        1 2FI      0.052100
     19 O4'         0.2530    0.5890   -1.5910 os        1 2FI     -0.427600
     20 C1'        -0.8670    1.1820   -0.9670 c3        1 2FI      0.220800
     21 C3'         1.1670    1.9210    0.2170 c3        1 2FI      0.147100
     22 O3'         1.9240    3.0990    0.0770 oh        1 2FI     -0.672800
     23 H8         -0.1790   -1.2210    0.4660 h5        1 2FI      0.118100
     24 H2'        -0.3820    3.2760   -0.5710 h1        1 2FI      0.064700
     25 H5'         1.7480   -1.2320   -1.0130 h1        1 2FI     -0.002300
     26 H5'A        1.9150   -0.5530    0.6890 h1        1 2FI     -0.002300
     27 H4'         2.1400    1.3920   -1.6830 h1        1 2FI      0.086700
     28 H1'        -1.4960    1.6350   -1.7900 h2        1 2FI      0.075700
     29 H3'         1.3310    1.4760    1.2370 h1        1 2FI      0.116700
     30 HO3'        2.8220    2.8740    0.4240 ho        1 2FI      0.510000
     31 HN1        -6.7000   -0.6730    0.0450 hn        1 2FI      0.317500
     32 O6         -5.3290   -2.4640    1.0710 o         1 2FI     -0.643500
     33 H2         -6.0490    1.3040   -1.0910 h5        1 2FI      0.031800
@<TRIPOS>BOND
     1    1    2 1   
     2    2    3 1   
     3    2    4 1   
     4    2    5 1   
     5    5   17 1   
     6    6    7 1   
     7    6   11 1   
     8    6   32 2   
     9    7    8 1   
    10    7   31 1   
    11    8    9 2   
    12    8   33 1   
    13    9   10 1   
    14   10   11 2   
    15   10   14 1   
    16   11   12 1   
    17   12   13 2   
    18   13   14 1   
    19   13   23 1   
    20   14   20 1   
    21   15   16 1   
    22   16   20 1   
    23   16   21 1   
    24   16   24 1   
    25   17   18 1   
    26   17   25 1   
    27   17   26 1   
    28   18   19 1   
    29   18   21 1   
    30   18   27 1   
    31   19   20 1   
    32   20   28 1   
    33   21   22 1   
    34   21   29 1   
    35   22   30 1   
@<TRIPOS>SUBSTRUCTURE
     1 2FI         1 TEMP              0 ****  ****    0 ROOT
