@<TRIPOS>MOLECULE
2FL
   44    45     1     0     0
SMALL
bcc


@<TRIPOS>ATOM
      1 C1         -0.4560   -0.6090   -1.2090 c3        1 2FL      0.323900
      2 C2         -1.3360   -0.3830   -2.4660 c3        1 2FL      0.107600
      3 C3         -0.5350   -0.8750   -3.6960 c3        1 2FL      0.077100
      4 C4          0.8360   -0.1800   -3.7690 c3        1 2FL      0.128100
      5 C5          1.5620   -0.3320   -2.4250 c3        1 2FL      0.108100
      6 C6          2.8410    0.5100   -2.3640 c3        1 2FL      0.141400
      7 O1         -1.0730    0.0440   -0.1230 os        1 2FL     -0.398600
      8 F2         -2.5350   -1.0650   -2.3690 f         1 2FL     -0.233300
      9 O3         -1.2120   -0.5460   -4.8970 oh        1 2FL     -0.601800
     10 O4          0.7030    1.2000   -4.0540 oh        1 2FL     -0.589800
     11 O5          0.7580    0.1230   -1.3360 os        1 2FL     -0.432600
     12 O6          3.4050    0.4440   -1.0700 oh        1 2FL     -0.600800
     13 C1'         0.2320    0.3510    3.7680 c3        1 2FL      0.311900
     14 C2'         1.1640   -0.4960    2.8830 c3        1 2FL      0.092100
     15 C3'         0.8040   -0.3280    1.3990 c3        1 2FL      0.126100
     16 C4'        -0.7090   -0.4700    1.1650 c3        1 2FL      0.119100
     17 C5'        -1.5190    0.3780    2.1600 c3        1 2FL      0.114100
     18 C6'        -3.0120    0.0460    2.0670 c3        1 2FL      0.137400
     19 O1'         0.3860   -0.0800    5.0980 oh        1 2FL     -0.604800
     20 O2'         2.4990   -0.0420    3.0210 oh        1 2FL     -0.596800
     21 O3'         1.4260   -1.3700    0.6630 oh        1 2FL     -0.608800
     22 O5'        -1.1380    0.0820    3.5030 os        1 2FL     -0.462600
     23 O6'        -3.7770    0.9070    2.8800 oh        1 2FL     -0.591800
     24 H1         -0.2580   -1.6980   -1.0160 h2        1 2FL      0.075700
     25 H2         -1.5460    0.7200   -2.5740 h1        1 2FL      0.104700
     26 H3         -0.3980   -1.9900   -3.6320 h1        1 2FL      0.057700
     27 H4          1.4450   -0.6680   -4.5810 h1        1 2FL      0.058700
     28 H5          1.8040   -1.4210   -2.2650 h1        1 2FL      0.057700
     29 H61         2.6160    1.5700   -2.6520 h1        1 2FL      0.068700
     30 H62         3.6140    0.0740   -3.0500 h1        1 2FL      0.068700
     31 HO3        -2.1170   -0.8750   -4.8110 ho        1 2FL      0.425000
     32 HO4         0.1310    1.2710   -4.8310 ho        1 2FL      0.426000
     33 HO6         2.8100    0.9240   -0.4790 ho        1 2FL      0.413000
     34 H1'         0.4510    1.4520    3.6710 h2        1 2FL      0.055700
     35 H2'         1.0870   -1.5790    3.1790 h1        1 2FL      0.077700
     36 H3'         1.1480    0.6780    1.0300 h1        1 2FL      0.074700
     37 H4'        -1.0000   -1.5540    1.2310 h1        1 2FL      0.072700
     38 H5'        -1.3500    1.4720    1.9560 h1        1 2FL      0.075700
     39 H6'1       -3.3640    0.2320    1.0160 h1        1 2FL      0.065700
     40 H6'2       -3.1850   -1.0250    2.3540 h1        1 2FL      0.065700
     41 HO1'       -0.4390    0.1030    5.5690 ho        1 2FL      0.433000
     42 HO2'        2.7480   -0.2000    3.9410 ho        1 2FL      0.422000
     43 HO3'        2.3140   -1.0620    0.4340 ho        1 2FL      0.433000
     44 HO6'       -3.4790    0.7770    3.7890 ho        1 2FL      0.408000
@<TRIPOS>BOND
     1    1    2 1   
     2    1    7 1   
     3    1   11 1   
     4    1   24 1   
     5    2    3 1   
     6    2    8 1   
     7    2   25 1   
     8    3    4 1   
     9    3    9 1   
    10    3   26 1   
    11    4    5 1   
    12    4   10 1   
    13    4   27 1   
    14    5    6 1   
    15    5   11 1   
    16    5   28 1   
    17    6   12 1   
    18    6   29 1   
    19    6   30 1   
    20    7   16 1   
    21    9   31 1   
    22   10   32 1   
    23   12   33 1   
    24   13   14 1   
    25   13   19 1   
    26   13   22 1   
    27   13   34 1   
    28   14   15 1   
    29   14   20 1   
    30   14   35 1   
    31   15   16 1   
    32   15   21 1   
    33   15   36 1   
    34   16   17 1   
    35   16   37 1   
    36   17   18 1   
    37   17   22 1   
    38   17   38 1   
    39   18   23 1   
    40   18   39 1   
    41   18   40 1   
    42   19   41 1   
    43   20   42 1   
    44   21   43 1   
    45   23   44 1   
@<TRIPOS>SUBSTRUCTURE
     1 2FL         1 TEMP              0 ****  ****    0 ROOT
