@<TRIPOS>MOLECULE
2FL
   44    45     1     0     0
SMALL
bcc


@<TRIPOS>ATOM
      1 C1          0.8520   -0.4070    0.3080 c3        1 2FL      0.323900
      2 C2          2.2010   -1.0930    0.3140 c3        1 2FL      0.107600
      3 C3          2.8570   -1.0360    1.6460 c3        1 2FL      0.077100
      4 C4          2.9140    0.3540    2.1870 c3        1 2FL      0.128100
      5 C5          1.5610    1.0330    2.1720 c3        1 2FL      0.108100
      6 C6          1.7370    2.4800    2.5580 c3        1 2FL      0.141400
      7 O1          0.3830   -0.3500   -0.9990 os        1 2FL     -0.397600
      8 F2          2.0310   -2.4090   -0.0420 f         1 2FL     -0.235300
      9 O3          4.2070   -1.5490    1.5280 oh        1 2FL     -0.601800
     10 O4          3.8260    1.1220    1.3920 oh        1 2FL     -0.588800
     11 O5          0.9130    0.9690    0.8550 os        1 2FL     -0.431600
     12 O6          2.0030    2.5690    3.9470 oh        1 2FL     -0.601800
     13 C1'        -3.4630   -0.0550   -2.5500 c3        1 2FL      0.309900
     14 C2'        -2.9270    1.1200   -1.7740 c3        1 2FL      0.089100
     15 C3'        -1.4580    1.0370   -1.5720 c3        1 2FL      0.126100
     16 C4'        -1.0380   -0.2770   -0.9940 c3        1 2FL      0.116100
     17 C5'        -1.5900   -1.4520   -1.7760 c3        1 2FL      0.155100
     18 C6'        -1.2710   -2.7290   -1.0320 c3        1 2FL      0.133400
     19 O1'        -4.8330    0.0020   -2.5520 oh        1 2FL     -0.608800
     20 O2'        -3.2360    2.3400   -2.4950 oh        1 2FL     -0.598800
     21 O3'        -1.0460    2.0980   -0.6710 oh        1 2FL     -0.609800
     22 O5'        -3.0330   -1.3660   -1.9740 os        1 2FL     -0.446600
     23 O6'        -2.0780   -3.7930   -1.5430 oh        1 2FL     -0.596800
     24 H1          0.2210   -0.9380    0.8500 h2        1 2FL      0.075700
     25 H2          2.7840   -0.6560   -0.3490 h1        1 2FL      0.104700
     26 H3          2.3580   -1.5970    2.2690 h1        1 2FL      0.056700
     27 H4          3.2390    0.3220    3.0960 h1        1 2FL      0.057700
     28 H5          0.9780    0.5960    2.8330 h1        1 2FL      0.057700
     29 H61         2.4890    2.8640    2.0560 h1        1 2FL      0.068200
     30 H62         0.9260    2.9710    2.3520 h1        1 2FL      0.068200
     31 HO3         4.3930   -2.0620    2.2360 ho        1 2FL      0.424000
     32 HO4         4.6190    1.1630    1.8030 ho        1 2FL      0.425000
     33 HO6         1.9250    3.4080    4.2080 ho        1 2FL      0.413000
     34 H1'        -3.1430    0.0050   -3.4720 h2        1 2FL      0.056700
     35 H2'        -3.3540    1.1480   -0.9220 h1        1 2FL      0.075700
     36 H3'        -1.0100    1.1620   -2.4380 h1        1 2FL      0.074700
     37 H4'        -1.3570   -0.3330   -0.0690 h1        1 2FL      0.070700
     38 H5'        -1.1520   -1.4800   -2.6550 h1        1 2FL      0.083700
     39 H6'1       -0.3280   -2.9490   -1.1530 h1        1 2FL      0.047700
     40 H6'2       -1.4600   -2.6060   -0.0700 h1        1 2FL      0.047700
     41 HO1'       -5.1520   -0.6150   -3.0950 ho        1 2FL      0.436000
     42 HO2'       -3.9290    2.7630   -2.0920 ho        1 2FL      0.422000
     43 HO3'       -0.7360    2.7920   -1.1470 ho        1 2FL      0.432000
     44 HO6'       -1.8230   -4.5670   -1.1720 ho        1 2FL      0.405000
@<TRIPOS>BOND
     1    1    2 1   
     2    1    7 1   
     3    1   11 1   
     4    1   24 1   
     5    2    3 1   
     6    2    8 1   
     7    2   25 1   
     8    3    4 1   
     9    3    9 1   
    10    3   26 1   
    11    4    5 1   
    12    4   10 1   
    13    4   27 1   
    14    5    6 1   
    15    5   11 1   
    16    5   28 1   
    17    6   12 1   
    18    6   29 1   
    19    6   30 1   
    20    7   16 1   
    21    9   31 1   
    22   10   32 1   
    23   12   33 1   
    24   13   14 1   
    25   13   19 1   
    26   13   22 1   
    27   13   34 1   
    28   14   15 1   
    29   14   20 1   
    30   14   35 1   
    31   15   16 1   
    32   15   21 1   
    33   15   36 1   
    34   16   17 1   
    35   16   37 1   
    36   17   18 1   
    37   17   22 1   
    38   17   38 1   
    39   18   23 1   
    40   18   39 1   
    41   18   40 1   
    42   19   41 1   
    43   20   42 1   
    44   21   43 1   
    45   23   44 1   
@<TRIPOS>SUBSTRUCTURE
     1 2FL         1 TEMP              0 ****  ****    0 ROOT
