@<TRIPOS>MOLECULE
2FM
   19    18     1     0     0
SMALL
bcc


@<TRIPOS>ATOM
      1 OXT         0.5640   -0.4410    4.1660 o         1 2FM     -0.837800
      2 C          -0.2130   -0.0680    3.2430 c         1 2FM      0.889600
      3 O          -1.4700   -0.0280    3.3320 o         1 2FM     -0.837800
      4 CA          0.4300    0.4070    1.8950 c3        1 2FM      0.019500
      5 N           1.8810    0.2900    1.8420 n3        1 2FM     -0.893800
      6 CB         -0.2750   -0.3290    0.7510 c3        1 2FM     -0.062400
      7 CG          0.0850    0.2620   -0.5870 c3        1 2FM      0.030700
      8 SD         -0.9200   -0.5750   -1.7980 ss        1 2FM     -0.367200
      9 CE         -0.3560    0.0100   -3.4200 c3        1 2FM      0.485000
     10 FZ1        -0.4800    1.3590   -3.6530 f         1 2FM     -0.239800
     11 FZ2         0.9710   -0.2030   -3.7110 f         1 2FM     -0.239800
     12 HA          0.1930    1.5080    1.8030 h1        1 2FM      0.042700
     13 HN1         2.2380    0.6380    2.7170 hn        1 2FM      0.333300
     14 HN2         2.1200   -0.6860    1.8120 hn        1 2FM      0.333300
     15 HB1        -1.3800   -0.2420    0.9400 hc        1 2FM      0.065200
     16 HB2        -0.0090   -1.4180    0.7760 hc        1 2FM      0.065200
     17 HG1         1.1640    0.1080   -0.8230 h1        1 2FM      0.069200
     18 HG2        -0.1320    1.3550   -0.6120 h1        1 2FM      0.069200
     19 HE         -1.0090   -0.5690   -4.1380 h3        1 2FM      0.075700
@<TRIPOS>BOND
     1    1    2 1   
     2    2    3 1   
     3    2    4 1   
     4    4    5 1   
     5    4    6 1   
     6    4   12 1   
     7    5   13 1   
     8    5   14 1   
     9    6    7 1   
    10    6   15 1   
    11    6   16 1   
    12    7    8 1   
    13    7   17 1   
    14    7   18 1   
    15    8    9 1   
    16    9   10 1   
    17    9   11 1   
    18    9   19 1   
@<TRIPOS>SUBSTRUCTURE
     1 2FM         1 TEMP              0 ****  ****    0 ROOT
