@<TRIPOS>MOLECULE
2FN
   89    86     1     0     0
SMALL
bcc


@<TRIPOS>ATOM
      1 C2         -1.8470    2.8150    2.0300 c2        1 2FN     -0.655000
      2 C4         -0.7990    3.4580    1.2900 c2        1 2FN     -0.423000
      3 C5         -0.5270    3.3850   -0.0010 c1        1 2FN      0.243000
      4 C6         -0.3230    2.2340    3.9650 c2        1 2FN     -0.807000
      5 O8          1.4030    1.9580    5.6290 os        1 2FN     -0.056000
      6 C7          0.0350    1.8060    5.2670 c2        1 2FN      0.082000
      7 O31        -5.5980   -1.4990    8.5560 o         1 2FN     -0.367000
      8 C21        -4.9400   -2.3480    7.9230 c2        1 2FN      0.395000
      9 C22        -5.5950   -3.2990    7.0000 c2        1 2FN     -0.534000
     10 C30        -4.1970   -5.3990    3.4470 c3        1 2FN     -0.195000
     11 C29        -2.8670   -5.3780    4.1260 c2        1 2FN     -0.065000
     12 N25        -2.6760   -4.8180    5.2640 n2        1 2FN     -0.213000
     13 C26        -1.3810   -4.7830    5.9100 c3        1 2FN     -0.059000
     14 C28        -1.3800   -5.5880    7.2130 c3        1 2FN     -0.222000
     15 C27        -0.1710   -5.2060    5.0790 c3        1 2FN     -0.222000
     16 C24        -8.8430   -2.2380    7.9860 c3        1 2FN     -0.274000
     17 C23        -6.8800   -3.4820    6.7760 c1        1 2FN      0.266000
     18 C19        -2.7470   -1.6170    8.8030 c2        1 2FN      0.051000
     19 C14        -1.5480   -1.1500    8.3200 c2        1 2FN      0.011000
     20 O13        -1.1850   -1.5410    7.0410 oh        1 2FN     -0.279000
     21 C11         0.4260    1.0780    7.3650 c2        1 2FN     -0.083000
     22 N9          1.5990    1.5280    6.8550 n2        1 2FN     -0.023000
     23 C10        -0.6170    1.2430    6.3540 c2        1 2FN     -0.271000
     24 S3         -1.7680    2.1700    3.4380 ss        1 2FN      1.316000
     25 Cl1        -3.3720    2.7600    1.2620 cl        1 2FN      0.025000
     26 C18        -3.1780   -1.2600   10.1740 c2        1 2FN      0.117000
     27 C17        -3.5160   -2.1460   11.0840 c1        1 2FN     -0.247000
     28 C16        -3.8950   -3.0160   11.9650 c2        1 2FN     -0.106000
     29 C15        -0.6380   -0.3480    9.1200 c2        1 2FN     -0.104000
     30 O32        -3.0980    0.1070   10.4140 os        1 2FN     -0.222000
     31 C33        -3.9350    0.5990   11.4660 c3        1 2FN      0.004000
     32 C34        -5.3790    0.6960   11.0070 c3        1 2FN     -0.283000
     33 C35        -6.2610    0.8740   12.1880 c1        1 2FN     -0.022000
     34 O36        -7.5460    0.8430   11.8570 os        1 2FN     -0.213000
     35 C37        -8.4450    0.9810   12.9800 c3        1 2FN      0.122000
     36 C46        -9.7550    1.6000   12.4690 c3        1 2FN     -0.014000
     37 O47       -10.3290    2.4050   13.4740 oh        1 2FN     -0.331000
     38 C44        -8.9230    0.8260   15.9070 c1        1 2FN     -0.050000
     39 O45        -8.6010    1.3050   17.0910 oh        1 2FN     -0.223000
     40 C42        -8.5780   -0.6250   15.7470 c3        1 2FN     -0.076000
     41 O42        -7.7190   -1.1820   16.7330 oh        1 2FN     -0.324000
     42 C39        -7.8830   -0.8670   14.3910 c3        1 2FN      0.008000
     43 O38        -8.7030   -0.3610   13.3370 os        1 2FN     -0.283000
     44 C40        -7.7570   -2.3750   14.1370 c3        1 2FN     -0.014000
     45 O41        -7.0150   -2.6340   12.9650 oh        1 2FN     -0.331000
     46 H1         -0.1220    4.1230    1.8790 ha        1 2FN      0.193000
     47 H2          0.5470    2.6030    3.3880 h4        1 2FN      0.196000
     48 H3         -4.1040   -4.8970    2.4520 hc        1 2FN      0.092000
     49 H4         -4.5050   -6.4620    3.2860 hc        1 2FN      0.092000
     50 H5         -4.9270   -3.9630    6.3980 ha        1 2FN      0.225000
     51 H6         -4.9960   -4.8820    4.0320 hc        1 2FN      0.092000
     52 H7         -2.0720   -5.8920    3.5390 h4        1 2FN      0.099000
     53 H9         -1.2400   -3.6870    6.1820 h1        1 2FN      0.121000
     54 H10        -1.4930   -6.6780    7.0070 hc        1 2FN      0.080833
     55 H11        -2.2090   -5.2610    7.8850 hc        1 2FN      0.080833
     56 H12        -0.4090   -5.4210    7.7370 hc        1 2FN      0.080833
     57 H13         0.7600   -5.0060    5.6600 hc        1 2FN      0.080833
     58 H14        -0.2080   -6.2960    4.8400 hc        1 2FN      0.080833
     59 H15        -0.1200   -4.6310    4.1230 hc        1 2FN      0.080833
     60 H16        -8.9530   -3.3080    8.2690 hc        1 2FN      0.073250
     61 H17        -9.5450   -1.6210    8.5890 hc        1 2FN      0.073250
     62 H18        -7.8010   -1.8950    8.1940 hc        1 2FN      0.073250
     63 H19        -9.0730   -2.1150    6.9060 hc        1 2FN      0.073250
     64 H20        -3.0830   -3.0380    7.3760 hn        1 2FN      0.251000
     65 H21        -0.2960   -1.1980    6.8670 ho        1 2FN      0.233000
     66 H22         0.8780    1.0710    9.4720 ha        1 2FN      0.152000
     67 H23        -1.6590    0.9650    6.4760 ha        1 2FN      0.186000
     68 H24        -4.9520   -3.3170   12.0810 ha        1 2FN      0.138000
     69 H25        -0.7250   -0.5420   10.2090 ha        1 2FN      0.158000
     70 H26        -3.1890   -3.4920   12.6620 ha        1 2FN      0.138000
     71 H27        -5.0950   -1.8000   14.1350 ha        1 2FN      0.001000
     72 H28        -4.4320   -1.6660   14.0920 ha        1 2FN      0.001000
     73 H29        -3.5040    1.6140   11.6760 h1        1 2FN      0.102000
     74 H30        -3.8470   -0.0510   12.3770 h1        1 2FN      0.102000
     75 H31        -5.5010    1.5530   10.2910 hc        1 2FN      0.138500
     76 H32        -5.6510   -0.2350   10.4280 hc        1 2FN      0.138500
     77 H33        -7.9750    1.5820   13.8050 h2        1 2FN      0.134000
     78 H34        -9.5490    2.2880   11.6080 h1        1 2FN      0.109000
     79 H35       -10.3500    1.8790   14.2900 ho        1 2FN      0.222000
     80 H36       -10.4650    0.7890   12.1580 h1        1 2FN      0.109000
     81 H37        -8.8710    2.2430   17.1190 ho        1 2FN      0.266000
     82 H38        -9.5680   -1.1770   15.7540 h1        1 2FN      0.120000
     83 H39        -8.0350   -0.8760   17.5920 ho        1 2FN      0.211000
     84 H40        -8.7770   -2.8370   14.0620 h1        1 2FN      0.102000
     85 H41        -7.1730   -2.8430   14.9740 h1        1 2FN      0.102000
     86 H42        -6.8650   -0.3860   14.3730 h1        1 2FN      0.139000
     87 H43        -7.4520   -2.1660   12.2400 ho        1 2FN      0.216000
     88 C12         0.2340    0.5850    8.7130 c2        1 2FN     -0.104000
     89 N20        -3.5630   -2.4890    8.0610 ns        1 2FN     -0.302000
@<TRIPOS>BOND
     1    1    2 1   
     2    1   24 1   
     3    1   25 1   
     4    2    3 1   
     5    2   46 1   
     6    4    6 1   
     7    4   24 1   
     8    4   47 1   
     9    5    6 1   
    10    5   22 1   
    11    6   23 1   
    12    7    8 1   
    13    8    9 1   
    14    8   89 1   
    15    9   17 1   
    16    9   50 1   
    17   10   11 1   
    18   10   48 1   
    19   10   49 1   
    20   10   51 1   
    21   11   12 1   
    22   11   52 1   
    23   12   13 1   
    24   13   14 1   
    25   13   15 1   
    26   13   53 1   
    27   14   54 1   
    28   14   55 1   
    29   14   56 1   
    30   15   57 1   
    31   15   58 1   
    32   15   59 1   
    33   16   60 1   
    34   16   61 1   
    35   16   62 1   
    36   16   63 1   
    37   18   19 1   
    38   18   26 1   
    39   18   89 1   
    40   19   20 1   
    41   19   29 1   
    42   20   65 1   
    43   21   22 1   
    44   21   23 1   
    45   21   88 1   
    46   23   67 1   
    47   26   27 1   
    48   26   30 1   
    49   27   28 1   
    50   28   68 1   
    51   28   70 1   
    52   29   69 1   
    53   29   88 1   
    54   30   31 1   
    55   31   32 1   
    56   31   73 1   
    57   31   74 1   
    58   32   33 1   
    59   32   75 1   
    60   32   76 1   
    61   33   34 1   
    62   34   35 1   
    63   35   36 1   
    64   35   43 1   
    65   35   77 1   
    66   36   37 1   
    67   36   78 1   
    68   36   80 1   
    69   37   79 1   
    70   38   39 1   
    71   38   40 1   
    72   39   81 1   
    73   40   41 1   
    74   40   42 1   
    75   40   82 1   
    76   41   83 1   
    77   42   43 1   
    78   42   44 1   
    79   42   86 1   
    80   44   45 1   
    81   44   84 1   
    82   44   85 1   
    83   45   87 1   
    84   64   89 1   
    85   66   88 1   
    86   71   72 1   
@<TRIPOS>SUBSTRUCTURE
     1 2FN         1 TEMP              0 ****  ****    0 ROOT
