@<TRIPOS>MOLECULE
2FN
   89    85     1     0     0
SMALL
bcc


@<TRIPOS>ATOM
      1 C2          3.8890   -3.7290  -11.0410 c1        1 2FN     -0.367000
      2 C4          3.8460   -5.1140  -10.6410 c1        1 2FN     -0.132500
      3 C5          3.3640   -5.1800   -9.1330 c1        1 2FN     -0.132500
      4 C6          3.1290   -3.8150   -8.6670 c1        1 2FN     -0.367000
      5 O8          2.0430   -3.4480   -6.6120 os        1 2FN     -0.054000
      6 C7          2.9800   -2.9030   -7.4350 c1        1 2FN      0.034000
      7 O31         2.2300   -1.3470   -1.3900 o         1 2FN     -0.366000
      8 C21         2.2570   -0.2850   -0.8520 c1        1 2FN      0.316000
      9 C22         3.4380    0.0750    0.1110 c2        1 2FN     -0.121000
     10 C30         2.9340    0.4070    1.5130 c3        1 2FN     -0.148000
     11 C29         2.4350   -0.8200    2.2730 c3        1 2FN     -0.076500
     12 N25         3.4010   -1.8960    2.3070 n3        1 2FN     -0.246000
     13 C26         2.8110   -3.0520    2.9400 c3        1 2FN     -0.016000
     14 C28         3.8610   -4.1110    3.1280 c3        1 2FN     -0.212000
     15 C27         2.2460   -2.6630    4.2860 c3        1 2FN     -0.212000
     16 C24         3.9150   -2.2630    0.9960 c3        1 2FN     -0.076500
     17 C23         4.4430   -1.0540    0.2050 c3        1 2FN     -0.148000
     18 N20         1.2380    0.7530   -1.1980 n3        1 2FN     -0.303000
     19 C19         0.2370    0.4710   -2.1740 c2        1 2FN      0.000000
     20 C14         0.6140    0.0390   -3.4530 c2        1 2FN      0.116000
     21 O13         1.9600   -0.3910   -3.6850 os        1 2FN     -0.187000
     22 C12         2.4540   -0.1100   -5.0130 c3        1 2FN      0.045000
     23 C11         2.5020   -1.4020   -5.8240 c2        1 2FN     -0.152000
     24 N9          1.7460   -2.5080   -5.6060 n2        1 2FN     -0.021000
     25 C10         3.2790   -1.6280   -6.9610 c1        1 2FN     -0.195000
     26 S3          3.4430   -2.8630   -9.8240 ss        1 2FN      0.653000
     27 CL1         4.2620   -3.1380  -12.6220 cl        1 2FN      0.052000
     28 C18        -1.1190    0.7340   -1.8850 c1        1 2FN      0.081000
     29 C17        -2.0860    0.5640   -2.8710 c2        1 2FN     -0.221000
     30 C16        -1.7120    0.1300   -4.1550 c1        1 2FN     -0.068000
     31 C15        -0.3530   -0.1330   -4.4430 c1        1 2FN     -0.217000
     32 O32        -1.5180    1.0730   -0.5280 o         1 2FN     -0.228000
     33 C33        -2.6090    1.9780   -0.4590 c3        1 2FN     -0.016000
     34 C34        -3.4710    1.6540    0.7830 c3        1 2FN     -0.170000
     35 C35        -3.7100    2.9380    1.5880 c3        1 2FN     -0.018000
     36 O36        -4.1490    2.6020    2.9030 os        1 2FN     -0.291000
     37 C37        -4.9440    3.6610    3.5510 c3        1 2FN      0.115000
     38 C46        -5.9540    3.0500    4.3290 c3        1 2FN      0.027000
     39 O47        -6.9360    4.1590    4.8090 oh        1 2FN     -0.317000
     40 C44        -5.4760    2.3600    5.4660 c3        1 2FN      0.005000
     41 O45        -4.7140    1.1410    5.0000 oh        1 2FN     -0.309000
     42 C42        -4.5760    3.1800    6.3230 c3        1 2FN     -0.032000
     43 O42        -5.3430    4.2430    6.9130 oh        1 2FN     -0.333000
     44 C39        -3.3500    3.8110    5.5530 c3        1 2FN      0.012000
     45 O38        -4.0400    4.5150    4.3220 os        1 2FN     -0.290000
     46 C40        -2.5060    2.8660    5.1480 c3        1 2FN     -0.053000
     47 O41        -1.7050    2.4680    6.2160 oh        1 2FN     -0.340000
     48 H1          4.0810   -5.9000  -11.2200 DU        1 2FN      0.186000
     49 H2          3.2490   -5.9600   -8.6270 DU        1 2FN      0.186000
     50 H3          3.8060    0.8350   -0.3210 ha        1 2FN      0.109000
     51 H4          3.6640    0.8150    2.0230 hc        1 2FN      0.092750
     52 H5          2.1930    1.0610    1.4380 hc        1 2FN      0.092750
     53 H6          2.2180   -0.5460    3.2250 h1        1 2FN      0.080250
     54 H7          1.6360   -1.1370    1.8520 h1        1 2FN      0.080250
     55 H9          2.0840   -3.4040    2.3690 h1        1 2FN      0.058000
     56 H10         4.0760   -4.5220    2.2590 hc        1 2FN      0.078167
     57 H11         4.6660   -3.7090    3.5030 hc        1 2FN      0.078167
     58 H12         3.5250   -4.7990    3.7400 hc        1 2FN      0.078167
     59 H13         2.2610   -3.4260    4.8710 hc        1 2FN      0.078167
     60 H14         1.2830   -2.3440    4.1680 hc        1 2FN      0.078167
     61 H15         2.7840   -1.9450    4.6750 hc        1 2FN      0.078167
     62 H16         3.1650   -2.7120    0.4540 h1        1 2FN      0.080250
     63 H17         4.6490   -2.9090    1.1170 h1        1 2FN      0.080250
     64 H18         4.6810   -1.3520   -0.7240 hc        1 2FN      0.092750
     65 H19         5.2870   -0.7050    0.6640 hc        1 2FN      0.092750
     66 H20         1.2860    1.5750   -0.8240 hn        1 2FN      0.232000
     67 H21         3.3680    0.2740   -4.9480 h1        1 2FN      0.119500
     68 H22         1.8610    0.5320   -5.4550 h1        1 2FN      0.119500
     69 H23         3.9890   -1.0270   -7.3110 DU        1 2FN      0.186000
     70 H24        -3.0440    0.7500   -2.6660 ha        1 2FN      0.140000
     71 H25        -2.3700    0.0140   -4.8270 ha        1 2FN      0.139000
     72 H26        -0.0820   -0.4450   -5.3650 ha        1 2FN      0.151000
     73 H27        -3.1470    1.8910   -1.2560 h1        1 2FN      0.084000
     74 H28        -2.2680    2.9040   -0.3910 h1        1 2FN      0.084000
     75 H29        -2.9970    0.9930    1.3530 hc        1 2FN      0.107500
     76 H30        -4.3240    1.2840    0.4970 hc        1 2FN      0.107500
     77 H31        -4.3990    3.4820    1.1420 h1        1 2FN      0.077500
     78 H32        -2.8440    3.4680    1.6470 h1        1 2FN      0.077500
     79 H33        -5.3740    4.2090    2.8450 h2        1 2FN      0.129000
     80 H34        -6.4450    2.4220    3.7650 h1        1 2FN      0.153000
     81 H35        -7.7830    3.8860    4.6790 ho        1 2FN      0.223000
     82 H36        -6.2280    2.0710    5.9920 h1        1 2FN      0.110000
     83 H37        -5.1020    0.4030    5.3240 ho        1 2FN      0.206000
     84 H38        -4.2200    2.5950    7.0610 h1        1 2FN      0.103000
     85 H39        -5.1310    4.3180    7.8100 ho        1 2FN      0.214000
     86 H40        -2.8980    4.4620    6.1060 h1        1 2FN      0.123000
     87 H41        -1.9340    3.2230    4.4210 h1        1 2FN      0.094000
     88 H42        -2.9950    2.1240    4.8280 h1        1 2FN      0.094000
     89 H43        -0.9130    2.2210    5.9120 ho        1 2FN      0.207000
@<TRIPOS>BOND
     1    1    2 1   
     2    1   26 1   
     3    2    3 1   
     4    3    4 1   
     5    4   26 1   
     6    5    6 1   
     7    5   24 1   
     8    6   25 1   
     9    7    8 1   
    10    8   18 1   
    11    9   10 1   
    12    9   17 1   
    13    9   50 1   
    14   10   11 1   
    15   10   51 1   
    16   10   52 1   
    17   11   12 1   
    18   11   53 1   
    19   11   54 1   
    20   12   13 1   
    21   12   16 1   
    22   13   14 1   
    23   13   15 1   
    24   13   55 1   
    25   14   56 1   
    26   14   57 1   
    27   14   58 1   
    28   15   59 1   
    29   15   60 1   
    30   15   61 1   
    31   16   17 1   
    32   16   62 1   
    33   16   63 1   
    34   17   64 1   
    35   17   65 1   
    36   18   19 1   
    37   18   66 1   
    38   19   20 1   
    39   19   28 1   
    40   20   21 1   
    41   20   31 1   
    42   21   22 1   
    43   22   23 1   
    44   22   67 1   
    45   22   68 1   
    46   23   24 1   
    47   23   25 1   
    48   28   29 1   
    49   29   30 1   
    50   29   70 1   
    51   30   71 1   
    52   31   72 1   
    53   32   33 1   
    54   33   34 1   
    55   33   73 1   
    56   33   74 1   
    57   34   35 1   
    58   34   75 1   
    59   34   76 1   
    60   35   36 1   
    61   35   77 1   
    62   35   78 1   
    63   36   37 1   
    64   37   38 1   
    65   37   45 1   
    66   37   79 1   
    67   38   39 1   
    68   38   40 1   
    69   38   80 1   
    70   39   81 1   
    71   40   41 1   
    72   40   42 1   
    73   40   82 1   
    74   41   83 1   
    75   42   43 1   
    76   42   44 1   
    77   42   84 1   
    78   43   85 1   
    79   44   45 1   
    80   44   46 1   
    81   44   86 1   
    82   46   47 1   
    83   46   87 1   
    84   46   88 1   
    85   47   89 1   
@<TRIPOS>SUBSTRUCTURE
     1 2FN         1 TEMP              0 ****  ****    0 ROOT
