@<TRIPOS>MOLECULE
2FN
   89    93     1     0     0
SMALL
bcc


@<TRIPOS>ATOM
      1 C2          8.3520   -2.1250    0.0470 cc        1 2FN     -0.026700
      2 C4          9.2140   -1.3490   -0.7120 cd        1 2FN     -0.153000
      3 C5          8.6810   -0.0510   -0.9410 cd        1 2FN     -0.101000
      4 C6          7.4340    0.1090   -0.3480 cc        1 2FN     -0.189600
      5 O8          7.1990    2.4190   -1.0580 os        1 2FN     -0.106100
      6 C7          6.6440    1.2880   -0.3950 cc        1 2FN      0.351200
      7 O31        -0.7960    0.4930    0.4160 o         1 2FN     -0.594100
      8 C21         0.2470    0.3140   -0.2360 c         1 2FN      0.671100
      9 C22         0.7810   -1.0790   -0.5710 c3        1 2FN     -0.129700
     10 C30         2.0540   -1.3870    0.2010 c3        1 2FN     -0.069400
     11 C29         1.7740   -1.6330    1.6810 c3        1 2FN      0.162800
     12 N25         0.7930   -2.6880    1.9100 n3        1 2FN     -0.726600
     13 C26         0.6080   -2.9320    3.3510 c3        1 2FN      0.183500
     14 C28        -0.6830   -3.6710    3.7030 c3        1 2FN     -0.094100
     15 C27         1.7770   -3.7360    3.9300 c3        1 2FN     -0.094100
     16 C24        -0.4520   -2.4330    1.1980 c3        1 2FN      0.162800
     17 C23        -0.2630   -2.1470   -0.2920 c3        1 2FN     -0.069400
     18 C19         0.6920    2.7310   -0.5010 ca        1 2FN      0.030600
     19 C14         1.7130    3.6180   -0.0500 ca        1 2FN      0.087100
     20 O13         2.9570    3.0480    0.1910 os        1 2FN     -0.343900
     21 C11         5.2410    3.0440   -0.3550 cd        1 2FN      0.305600
     22 N9          6.3540    3.4250   -1.0190 nc        1 2FN     -0.350300
     23 C10         5.3900    1.6540    0.0670 cd        1 2FN     -0.341600
     24 S3          6.9560   -1.2890    0.4560 ss        1 2FN      0.089200
     25 CL1         8.6380   -3.7020    0.5150 cl        1 2FN     -0.017400
     26 C18        -0.5900    3.2970   -0.7230 ca        1 2FN      0.130100
     27 C17        -0.8430    4.6500   -0.4580 ca        1 2FN     -0.170000
     28 C16         0.1750    5.4770   -0.0020 ca        1 2FN     -0.099000
     29 C15         1.4570    4.9690    0.1940 ca        1 2FN     -0.182000
     30 O32        -1.5640    2.5110   -1.3140 os        1 2FN     -0.331900
     31 C33        -2.7730    2.4010   -0.5390 c3        1 2FN      0.137400
     32 C34        -3.5550    1.2620   -1.1660 c3        1 2FN     -0.089400
     33 C35        -4.9110    1.1480   -0.4970 c3        1 2FN      0.139400
     34 O36        -5.6130    0.1130   -1.1970 os        1 2FN     -0.421600
     35 C37        -6.9140   -0.1160   -0.7070 c3        1 2FN      0.307900
     36 C46        -7.5770   -1.1300   -1.6600 c3        1 2FN      0.089100
     37 O47        -7.9290   -0.5070   -2.8820 oh        1 2FN     -0.604800
     38 C44        -8.8820   -1.6330   -1.0280 c3        1 2FN      0.108100
     39 O45        -9.4300   -2.7040   -1.7760 oh        1 2FN     -0.605800
     40 C42        -8.5920   -2.1870    0.3780 c3        1 2FN      0.122100
     41 O42        -9.8020   -2.5010    1.0440 oh        1 2FN     -0.595800
     42 C39        -7.8790   -1.1200    1.2230 c3        1 2FN      0.108100
     43 O38        -6.6810   -0.6840    0.5760 os        1 2FN     -0.448600
     44 C40        -7.4340   -1.6980    2.5700 c3        1 2FN      0.141400
     45 O41        -6.8490   -0.7050    3.3820 oh        1 2FN     -0.595800
     46 H1         10.1840   -1.6790   -1.0940 ha        1 2FN      0.171000
     47 H2          9.1930    0.7270   -1.5160 ha        1 2FN      0.175000
     48 H3          1.0120   -1.1000   -1.6750 hc        1 2FN      0.070700
     49 H4          2.5260   -2.3010   -0.2490 hc        1 2FN      0.053200
     50 H5          2.7910   -0.5480    0.1150 hc        1 2FN      0.053200
     51 H6          2.7370   -1.9430    2.1750 h1        1 2FN      0.041200
     52 H7          1.4480   -0.6540    2.1460 h1        1 2FN      0.041200
     53 H9          0.5740   -1.9380    3.9020 h1        1 2FN      0.021700
     54 H10        -0.7490   -4.6460    3.1630 hc        1 2FN      0.038700
     55 H11        -0.6940   -3.8740    4.8010 hc        1 2FN      0.038700
     56 H12        -1.5810   -3.0560    3.4560 hc        1 2FN      0.038700
     57 H13         2.7420   -3.1850    3.8270 hc        1 2FN      0.038700
     58 H14         1.5910   -3.9130    5.0170 hc        1 2FN      0.038700
     59 H15         1.8720   -4.7210    3.4160 hc        1 2FN      0.038700
     60 H16        -1.0900   -3.3580    1.2820 h1        1 2FN      0.041200
     61 H17        -1.0220   -1.5680    1.6510 h1        1 2FN      0.041200
     62 H18        -1.2530   -1.8220   -0.7060 hc        1 2FN      0.053200
     63 H19         0.0490   -3.0870   -0.8180 hc        1 2FN      0.053200
     64 H20         1.9150    1.1990   -1.0480 hn        1 2FN      0.321500
     65 H21         3.8480    4.5970   -0.9400 h1        1 2FN      0.069700
     66 H22         4.2640    4.5260    0.8520 h1        1 2FN      0.069700
     67 H23         4.6500    1.0810    0.6150 ha        1 2FN      0.185000
     68 H24        -1.8530    5.0500   -0.6320 ha        1 2FN      0.145000
     69 H25        -0.0280    6.5390    0.2010 ha        1 2FN      0.140000
     70 H26         2.2610    5.6270    0.5530 ha        1 2FN      0.142000
     71 H27        -2.5200    2.1750    0.5290 h1        1 2FN      0.045200
     72 H28        -3.3320    3.3720   -0.6090 h1        1 2FN      0.045200
     73 H29        -3.6790    1.4370   -2.2660 hc        1 2FN      0.071700
     74 H30        -2.9810    0.3060   -1.0370 hc        1 2FN      0.071700
     75 H31        -4.8100    0.8650    0.5830 h1        1 2FN      0.039200
     76 H32        -5.4900    2.1060   -0.5800 h1        1 2FN      0.039200
     77 H33        -7.5120    0.8330   -0.6200 h2        1 2FN      0.053700
     78 H34        -6.8750   -1.9880   -1.8490 h1        1 2FN      0.077700
     79 H35        -7.1040   -0.1910   -3.2750 ho        1 2FN      0.426000
     80 H36        -9.6300   -0.7930   -0.9710 h1        1 2FN      0.063700
     81 H37        -9.5340   -2.3820   -2.6820 ho        1 2FN      0.427000
     82 H38        -7.9530   -3.1090    0.2910 h1        1 2FN      0.063700
     83 H39       -10.2850   -3.1020    0.4600 ho        1 2FN      0.426000
     84 H40        -8.5590   -0.2380    1.3840 h1        1 2FN      0.067700
     85 H41        -8.3390   -2.0550    3.1310 h1        1 2FN      0.064200
     86 H42        -6.7170   -2.5450    2.4050 h1        1 2FN      0.064200
     87 H43        -6.0780   -0.3690    2.9060 ho        1 2FN      0.410000
     88 C12         4.0710    3.9170   -0.0740 c3        1 2FN      0.100100
     89 N20         0.9800    1.3800   -0.7540 n         1 2FN     -0.454100
@<TRIPOS>BOND
     1    1    2 2   
     2    1   24 1   
     3    1   25 1   
     4    2    3 1   
     5    2   46 1   
     6    3    4 2   
     7    3   47 1   
     8    4    6 1   
     9    4   24 1   
    10    5    6 1   
    11    5   22 1   
    12    6   23 2   
    13    7    8 2   
    14    8    9 1   
    15    8   89 1   
    16    9   10 1   
    17    9   17 1   
    18    9   48 1   
    19   10   11 1   
    20   10   49 1   
    21   10   50 1   
    22   11   12 1   
    23   11   51 1   
    24   11   52 1   
    25   12   13 1   
    26   12   16 1   
    27   13   14 1   
    28   13   15 1   
    29   13   53 1   
    30   14   54 1   
    31   14   55 1   
    32   14   56 1   
    33   15   57 1   
    34   15   58 1   
    35   15   59 1   
    36   16   17 1   
    37   16   60 1   
    38   16   61 1   
    39   17   62 1   
    40   17   63 1   
    41   18   19 ar  
    42   18   26 ar  
    43   18   89 1   
    44   19   20 1   
    45   19   29 ar  
    46   20   88 1   
    47   21   22 2   
    48   21   23 1   
    49   21   88 1   
    50   23   67 1   
    51   26   27 ar  
    52   26   30 1   
    53   27   28 ar  
    54   27   68 1   
    55   28   29 ar  
    56   28   69 1   
    57   29   70 1   
    58   30   31 1   
    59   31   32 1   
    60   31   71 1   
    61   31   72 1   
    62   32   33 1   
    63   32   73 1   
    64   32   74 1   
    65   33   34 1   
    66   33   75 1   
    67   33   76 1   
    68   34   35 1   
    69   35   36 1   
    70   35   43 1   
    71   35   77 1   
    72   36   37 1   
    73   36   38 1   
    74   36   78 1   
    75   37   79 1   
    76   38   39 1   
    77   38   40 1   
    78   38   80 1   
    79   39   81 1   
    80   40   41 1   
    81   40   42 1   
    82   40   82 1   
    83   41   83 1   
    84   42   43 1   
    85   42   44 1   
    86   42   84 1   
    87   44   45 1   
    88   44   85 1   
    89   44   86 1   
    90   45   87 1   
    91   64   89 1   
    92   65   88 1   
    93   66   88 1   
@<TRIPOS>SUBSTRUCTURE
     1 2FN         1 TEMP              0 ****  ****    0 ROOT
