@<TRIPOS>MOLECULE
2FN
   89    87     1     0     0
SMALL
bcc


@<TRIPOS>ATOM
      1 C2         -2.0480    3.3330    1.7210 c2        1 2FN     -0.648000
      2 C4         -1.0020    3.9180    0.9330 c2        1 2FN     -0.426000
      3 C5         -0.8130    3.8630   -0.3740 c1        1 2FN      0.248000
      4 C6         -0.4650    2.6240    3.5650 c2        1 2FN     -0.808000
      5 O8          1.3270    2.2130    5.1280 os        1 2FN     -0.054000
      6 C7         -0.0690    2.1710    4.8480 c2        1 2FN      0.085000
      7 O31        -5.7170   -0.6220    8.4790 o         1 2FN     -0.394000
      8 C21        -5.1880   -1.5870    7.8880 c2        1 2FN      0.358000
      9 C22        -5.9720   -2.5720    7.0980 c2        1 2FN     -0.230000
     10 C30        -2.3660   -3.9570    5.3670 c3        1 2FN     -0.207000
     11 C29        -2.3840   -5.0660    6.3680 c2        1 2FN     -0.069000
     12 N25        -3.4110   -5.3280    7.0900 n2        1 2FN     -0.204000
     13 C26        -3.4180   -6.3850    8.0790 c3        1 2FN     -0.050000
     14 C28        -4.3570   -7.5270    7.6830 c3        1 2FN     -0.222000
     15 C27        -2.0690   -6.9820    8.4770 c3        1 2FN     -0.222000
     16 C24        -7.6140   -0.9270    6.1360 c3        1 2FN     -0.209000
     17 C23        -7.0330   -2.2650    6.3450 c2        1 2FN     -0.082000
     18 C19        -2.8840   -1.0280    8.6230 c2        1 2FN      0.045000
     19 C14        -1.7010   -0.6400    8.0390 c2        1 2FN      0.019000
     20 O13        -1.4800   -1.0410    6.7310 oh        1 2FN     -0.278000
     21 C11         0.3860    1.4180    6.9240 c2        1 2FN     -0.085000
     22 N9          1.5590    1.7720    6.3430 n2        1 2FN     -0.021000
     23 C10        -0.6980    1.6640    5.9740 c2        1 2FN     -0.275000
     24 S3         -1.9380    2.6640    3.1160 ss        1 2FN      1.309000
     25 Cl1        -3.6110    3.3800    1.0330 cl        1 2FN      0.026000
     26 C18        -3.1620   -0.6660   10.0310 c2        1 2FN      0.099000
     27 C17        -3.4790   -1.5400   10.9600 c1        1 2FN     -0.222000
     28 C16        -3.8210   -2.4020   11.8630 c2        1 2FN     -0.109000
     29 C15        -0.6720    0.0870    8.7610 c2        1 2FN     -0.110000
     30 O32        -2.9360    0.6830   10.3060 os        1 2FN     -0.221000
     31 C33        -3.8650    1.2870   11.2060 c3        1 2FN      0.001000
     32 C34        -5.0500    1.8480   10.4310 c3        1 2FN     -0.275000
     33 C35        -6.2890    1.7650   11.2220 c1        1 2FN     -0.004000
     34 O36        -7.0560    2.8260   11.1650 oh        1 2FN     -0.195000
     35 C37        -7.4830   -0.2170   12.6180 c2        1 2FN      0.072000
     36 C46        -8.8170    0.1910   13.1500 c3        1 2FN      0.087000
     37 O47        -8.8920    1.6170   13.1180 oh        1 2FN     -0.390000
     38 C44        -9.0640   -0.3780   14.4840 c2        1 2FN     -0.634000
     39 O45       -10.4010   -0.4490   14.8410 oh        1 2FN     -0.261000
     40 C42        -8.2200   -1.4840   14.9470 c3        1 2FN      0.127000
     41 O42        -7.0610   -1.0360   15.6570 oh        1 2FN     -0.381000
     42 C39        -7.6800   -2.3030   13.7490 c3        1 2FN     -0.069000
     43 O38        -6.9810   -1.3900   12.8270 os        1 2FN     -0.085000
     44 C40        -6.6460   -3.3430   14.1530 c3        1 2FN     -0.027000
     45 O41        -6.3000   -4.2040   13.0880 oh        1 2FN     -0.331000
     46 H1         -0.2430    4.5150    1.4950 ha        1 2FN      0.193000
     47 H2          0.3970    2.9290    2.9410 h4        1 2FN      0.197000
     48 H3         -1.7270   -3.1230    5.7570 hc        1 2FN      0.096333
     49 H4         -1.9220   -4.3340    4.4130 hc        1 2FN      0.096333
     50 H5         -5.6280   -3.6200    7.1760 ha        1 2FN      0.164000
     51 H6         -3.3840   -3.5510    5.1490 hc        1 2FN      0.096333
     52 H7         -1.4190   -5.6190    6.4230 h4        1 2FN      0.099000
     53 H9         -3.8550   -5.8880    9.0030 h1        1 2FN      0.110000
     54 H10        -3.9640   -8.0740    6.7930 hc        1 2FN      0.080000
     55 H11        -5.3770   -7.1420    7.4450 hc        1 2FN      0.080000
     56 H12        -4.4360   -8.2420    8.5370 hc        1 2FN      0.080000
     57 H13        -2.2160   -7.6730    9.3410 hc        1 2FN      0.080000
     58 H14        -1.6230   -7.5630    7.6350 hc        1 2FN      0.080000
     59 H15        -1.3520   -6.1840    8.7820 hc        1 2FN      0.080000
     60 H16        -7.5520   -3.0800    5.8060 ha        1 2FN      0.125000
     61 H17        -7.6710   -0.7020    5.0410 hc        1 2FN      0.095000
     62 H18        -8.6540   -0.9010    6.5510 hc        1 2FN      0.095000
     63 H19        -7.0200   -0.1250    6.6390 hc        1 2FN      0.095000
     64 H20        -3.4370   -2.5010    7.3180 hn        1 2FN      0.250000
     65 H21        -0.5760   -0.7850    6.4920 ho        1 2FN      0.233000
     66 H22         0.9750    1.3780    8.9950 ha        1 2FN      0.152000
     67 H23        -1.7500    1.4710    6.1580 ha        1 2FN      0.184000
     68 H24        -4.8740   -2.6600   12.0790 ha        1 2FN      0.147000
     69 H25        -0.6910   -0.0970    9.8550 ha        1 2FN      0.159000
     70 H26        -3.0750   -2.9330   12.4770 ha        1 2FN      0.147000
     71 H27        -5.0860   -0.6110   14.2970 ha        1 2FN      0.001000
     72 H28        -4.6590   -0.8070   13.8070 ha        1 2FN      0.001000
     73 H29        -3.2720    2.1180   11.6750 h1        1 2FN      0.105500
     74 H30        -4.1980    0.5620   11.9950 h1        1 2FN      0.105500
     75 H31        -4.8170    2.8810   10.0610 hc        1 2FN      0.152000
     76 H32        -5.2270    1.1960    9.5170 hc        1 2FN      0.152000
     77 H33        -6.7990    0.5660   11.9580 h4        1 2FN      0.318000
     78 H34        -7.8680    2.6670   11.7020 ho        1 2FN      0.293000
     79 H35        -8.9970    1.9050   14.0350 ho        1 2FN      0.238000
     80 H36        -9.5810   -0.1570   12.3800 h1        1 2FN      0.119000
     81 H37       -10.5160    0.2510   15.5000 ho        1 2FN      0.160000
     82 H38        -8.7800   -2.1810   15.6310 h1        1 2FN      0.103000
     83 H39        -7.2240   -0.1170   15.9000 ho        1 2FN      0.219000
     84 H40        -8.5300   -2.7470   13.1700 h1        1 2FN      0.117000
     85 H41        -7.0540   -3.9220   15.0230 h1        1 2FN      0.118000
     86 H42        -5.6830   -2.8410   14.4480 h1        1 2FN      0.118000
     87 H43        -7.0950   -4.6860   12.8330 ho        1 2FN      0.198000
     88 C12         0.2420    0.9460    8.2850 c2        1 2FN     -0.101000
     89 N20        -3.8210   -1.8310    7.9530 ns        1 2FN     -0.309000
@<TRIPOS>BOND
     1    1    2 1   
     2    1   24 1   
     3    1   25 1   
     4    2    3 1   
     5    2   46 1   
     6    4    6 1   
     7    4   24 1   
     8    4   47 1   
     9    5    6 1   
    10    5   22 1   
    11    6   23 1   
    12    7    8 1   
    13    8    9 1   
    14    8   89 1   
    15    9   17 1   
    16    9   50 1   
    17   10   11 1   
    18   10   48 1   
    19   10   49 1   
    20   10   51 1   
    21   11   12 1   
    22   11   52 1   
    23   12   13 1   
    24   13   14 1   
    25   13   15 1   
    26   13   53 1   
    27   14   54 1   
    28   14   55 1   
    29   14   56 1   
    30   15   57 1   
    31   15   58 1   
    32   15   59 1   
    33   16   17 1   
    34   16   61 1   
    35   16   62 1   
    36   16   63 1   
    37   17   60 1   
    38   18   19 1   
    39   18   26 1   
    40   18   89 1   
    41   19   20 1   
    42   19   29 1   
    43   20   65 1   
    44   21   22 1   
    45   21   23 1   
    46   21   88 1   
    47   23   67 1   
    48   26   27 1   
    49   26   30 1   
    50   27   28 1   
    51   28   68 1   
    52   28   70 1   
    53   29   69 1   
    54   29   88 1   
    55   30   31 1   
    56   31   32 1   
    57   31   73 1   
    58   31   74 1   
    59   32   33 1   
    60   32   75 1   
    61   32   76 1   
    62   33   34 1   
    63   34   78 1   
    64   35   36 1   
    65   35   43 1   
    66   35   77 1   
    67   36   37 1   
    68   36   38 1   
    69   36   80 1   
    70   37   79 1   
    71   38   39 1   
    72   38   40 1   
    73   39   81 1   
    74   40   41 1   
    75   40   42 1   
    76   40   82 1   
    77   41   83 1   
    78   42   43 1   
    79   42   44 1   
    80   42   84 1   
    81   44   45 1   
    82   44   85 1   
    83   44   86 1   
    84   45   87 1   
    85   64   89 1   
    86   66   88 1   
    87   71   72 1   
@<TRIPOS>SUBSTRUCTURE
     1 2FN         1 TEMP              0 ****  ****    0 ROOT
