@<TRIPOS>MOLECULE
2FP
   30    29     1     0     0
SMALL
bcc


@<TRIPOS>ATOM
      1 P6          5.4540   -0.0510   -0.0200 p5        1 2FP      1.325900
      2 O6          4.0270    0.2530   -0.9410 os        1 2FP     -0.577200
      3 C6          2.9080    0.5770   -0.2110 c3        1 2FP      0.202400
      4 C5          1.8330   -0.5300   -0.3280 c3        1 2FP      0.091100
      5 O5          2.1950   -1.6830    0.4120 oh        1 2FP     -0.699800
      6 C4          0.4520   -0.0680    0.1970 c3        1 2FP      0.113100
      7 O4          0.3770   -0.1830    1.6050 oh        1 2FP     -0.607800
      8 C3         -0.7020   -0.8390   -0.4880 c3        1 2FP     -0.002900
      9 O3         -0.3330   -2.1790   -0.7890 oh        1 2FP     -0.612800
     10 C2         -2.0100   -0.8590    0.3250 c         1 2FP      0.544100
     11 O2         -2.1000   -1.6450    1.2730 o         1 2FP     -0.578100
     12 C1         -3.0860    0.0860   -0.1830 c3        1 2FP      0.140400
     13 O1         -4.2530    0.0360    0.5270 os        1 2FP     -0.553200
     14 O61         4.9900   -1.2290    0.8090 o         1 2FP     -0.935500
     15 O62         6.4910   -0.3510   -1.0680 o         1 2FP     -0.935500
     16 O63         5.6570    1.2280    0.7470 o         1 2FP     -0.935500
     17 P1         -5.7090    0.2850   -0.4000 p5        1 2FP      1.319900
     18 O11        -5.7860    1.7880   -0.4940 o         1 2FP     -0.938833
     19 O12        -5.3990   -0.4090   -1.7020 o         1 2FP     -0.938833
     20 O13        -6.7740   -0.3590    0.4490 o         1 2FP     -0.938833
     21 H61         3.1620    0.7310    0.8750 h1        1 2FP     -0.002800
     22 H62         2.4550    1.5290   -0.6200 h1        1 2FP     -0.002800
     23 H5          1.7260   -0.8320   -1.4070 h1        1 2FP      0.032700
     24 HO5         3.1740   -1.6360    0.5650 ho        1 2FP      0.497000
     25 H4          0.3110    1.0300   -0.0020 h1        1 2FP      0.058700
     26 HO4         0.7000   -1.0670    1.8300 ho        1 2FP      0.413000
     27 H3         -0.8970   -0.3750   -1.4960 h1        1 2FP      0.063700
     28 HO3         0.1220   -2.5200   -0.0080 ho        1 2FP      0.415000
     29 H11        -2.6050    1.1130   -0.1150 h1        1 2FP      0.022200
     30 H12A       -3.2750   -0.1620   -1.2720 h1        1 2FP      0.022200
@<TRIPOS>BOND
     1    1    2 1   
     2    1   14 1   
     3    1   15 1   
     4    1   16 1   
     5    2    3 1   
     6    3    4 1   
     7    3   21 1   
     8    3   22 1   
     9    4    5 1   
    10    4    6 1   
    11    4   23 1   
    12    5   24 1   
    13    6    7 1   
    14    6    8 1   
    15    6   25 1   
    16    7   26 1   
    17    8    9 1   
    18    8   10 1   
    19    8   27 1   
    20    9   28 1   
    21   10   11 2   
    22   10   12 1   
    23   12   13 1   
    24   12   29 1   
    25   12   30 1   
    26   13   17 1   
    27   17   18 1   
    28   17   19 1   
    29   17   20 1   
@<TRIPOS>SUBSTRUCTURE
     1 2FP         1 TEMP              0 ****  ****    0 ROOT
