@<TRIPOS>MOLECULE
2FP
   30    28     1     0     0
SMALL
bcc


@<TRIPOS>ATOM
      1 P6         -4.8210    0.1640   -2.3590 p3        1 2FP      2.517000
      2 O6         -3.2630    0.4330   -2.3560 o         1 2FP     -0.746000
      3 C6         -2.5800    0.4050   -1.1240 c3        1 2FP      0.036000
      4 C5         -1.0980    0.5840   -1.3660 c3        1 2FP     -0.017000
      5 O5         -0.8870    1.7220   -2.1680 oh        1 2FP     -0.378000
      6 C4         -0.3890    0.7620   -0.0430 c3        1 2FP      0.034000
      7 O4         -0.3670    2.1280    0.2970 oh        1 2FP     -0.341000
      8 C3          1.0280    0.2480   -0.1580 c3        1 2FP     -0.021000
      9 O3          1.8000    1.1620   -0.9000 oh        1 2FP     -0.356000
     10 C2          1.6210    0.0940    1.2250 c2        1 2FP      0.192000
     11 O2          1.3540    0.8990    2.0940 o         1 2FP     -0.383000
     12 C1          2.5500   -1.0620    1.5240 c3        1 2FP      0.026000
     13 O1          3.3850   -0.7250    2.6070 os        1 2FP     -0.732000
     14 O61        -5.0960   -1.2060   -1.7860 o         1 2FP     -1.259667
     15 O62        -5.3400    0.2310   -3.7750 o         1 2FP     -1.259667
     16 O63        -5.5140    1.2100   -1.5180 o         1 2FP     -1.259667
     17 P1          4.2740   -1.8600    3.2550 p5        1 2FP      1.552500
     18 O11         3.3990   -2.7780    4.0750 o         1 2FP     -0.935500
     19 O12         5.3200   -1.2340    4.1460 o         1 2FP     -0.935500
     20 O13         4.9520   -2.6530    2.1630 o         1 2FP     -0.935500
     21 H61        -2.9070    1.1300   -0.5530 h1        1 2FP      0.049000
     22 H62        -2.7370   -0.4550   -0.6830 h1        1 2FP      0.049000
     23 H5         -0.7440   -0.2050   -1.8220 h1        1 2FP      0.063000
     24 HO5        -0.8140    1.4760   -3.0190 ho        1 2FP      0.237000
     25 H4         -0.8630    0.2610    0.6500 h1        1 2FP      0.115000
     26 HO4        -0.8730    2.2630    1.0160 ho        1 2FP      0.215000
     27 H3          1.0250   -0.6180   -0.6100 h1        1 2FP      0.085000
     28 HO3         2.4670    0.7310   -1.2990 ho        1 2FP      0.252000
     29 H11         2.0220   -1.8550    1.7530 h1        1 2FP      0.067000
     30 H12A        3.0990   -1.2520    0.7350 h1        1 2FP      0.067000
@<TRIPOS>BOND
     1    1   14 1   
     2    1   15 1   
     3    1   16 1   
     4    2    3 1   
     5    3    4 1   
     6    3   21 1   
     7    3   22 1   
     8    4    5 1   
     9    4    6 1   
    10    4   23 1   
    11    5   24 1   
    12    6    7 1   
    13    6    8 1   
    14    6   25 1   
    15    7   26 1   
    16    8    9 1   
    17    8   10 1   
    18    8   27 1   
    19    9   28 1   
    20   10   11 1   
    21   10   12 1   
    22   12   13 1   
    23   12   29 1   
    24   12   30 1   
    25   13   17 1   
    26   17   18 1   
    27   17   19 1   
    28   17   20 1   
@<TRIPOS>SUBSTRUCTURE
     1 2FP         1 TEMP              0 ****  ****    0 ROOT
