@<TRIPOS>MOLECULE
2FQ
   25    26     1     0     0
SMALL
bcc


@<TRIPOS>ATOM
      1 O          -0.0800   -0.1600    0.0940 o         1 2FQ     -0.622500
      2 C6          1.1650   -0.0940    0.0440 c         1 2FQ      0.717700
      3 C5          1.9650    0.0110    1.2870 cc        1 2FQ     -0.257200
      4 N3          1.1970    0.0280    2.5210 nz        1 2FQ     -0.680400
      5 C4          3.3360    0.0850    1.2570 cd        1 2FQ      0.103800
      6 N1          1.8520   -0.1140   -1.1790 n         1 2FQ     -0.377300
      7 C8          1.0900   -0.2160   -2.4140 c3        1 2FQ      0.059300
      8 C7          3.2430   -0.0390   -1.2180 ca        1 2FQ      0.625200
      9 C3          3.9920    0.0620    0.0090 ca        1 2FQ     -0.424400
     10 C2          5.4190    0.1350   -0.1200 ca        1 2FQ      0.524200
     11 N           6.0390    0.1130   -1.2850 nb        1 2FQ     -0.695000
     12 N2          3.8920   -0.0620   -2.4370 nb        1 2FQ     -0.738000
     13 C1          5.2430    0.0130   -2.4290 ca        1 2FQ      0.763300
     14 C           5.9640   -0.0100   -3.7510 c3        1 2FQ     -0.157400
     15 H1          1.3640    0.9010    3.0300 hn        1 2FQ      0.469467
     16 H2          0.1900   -0.0400    2.2800 hn        1 2FQ      0.469467
     17 H3          3.9470    0.1640    2.1750 ha        1 2FQ      0.164000
     18 H4          1.3970   -1.1450   -2.9660 h1        1 2FQ      0.087700
     19 H5         -0.0070   -0.2660   -2.1780 h1        1 2FQ      0.087700
     20 H6          1.2950    0.6830   -3.0540 h1        1 2FQ      0.087700
     21 H7          6.0520    0.2130    0.7860 h4        1 2FQ      0.050100
     22 H8          6.5630    0.9300   -3.8600 hc        1 2FQ      0.090700
     23 H9          5.2520   -0.0930   -4.6090 hc        1 2FQ      0.090700
     24 H10         6.6650   -0.8840   -3.7710 hc        1 2FQ      0.090700
     25 H33         1.4560   -0.7700    3.1100 hn        1 2FQ      0.469467
@<TRIPOS>BOND
     1    1    2 2   
     2    2    3 1   
     3    2    6 1   
     4    3    4 1   
     5    3    5 2   
     6    4   15 1   
     7    4   16 1   
     8    4   25 1   
     9    5    9 1   
    10    5   17 1   
    11    6    7 1   
    12    6    8 1   
    13    7   18 1   
    14    7   19 1   
    15    7   20 1   
    16    8    9 ar  
    17    8   12 ar  
    18    9   10 ar  
    19   10   11 ar  
    20   10   21 1   
    21   11   13 ar  
    22   12   13 ar  
    23   13   14 1   
    24   14   22 1   
    25   14   23 1   
    26   14   24 1   
@<TRIPOS>SUBSTRUCTURE
     1 2FQ         1 TEMP              0 ****  ****    0 ROOT
