@<TRIPOS>MOLECULE
2FQ
   25    26     1     0     0
SMALL
bcc


@<TRIPOS>ATOM
      1 O          -0.0780   -0.1770    0.0960 o         1 2FQ     -0.622500
      2 C6          1.1670   -0.0920    0.0450 c         1 2FQ      0.717700
      3 C5          1.9650    0.0450    1.2860 cc        1 2FQ     -0.257200
      4 N3          1.1960    0.0710    2.5200 n4        1 2FQ     -0.680400
      5 C4          3.3340    0.1410    1.2540 cd        1 2FQ      0.103800
      6 N1          1.8530   -0.1230   -1.1770 n         1 2FQ     -0.377300
      7 C8          1.0940   -0.2570   -2.4100 c3        1 2FQ      0.059300
      8 C7          3.2430   -0.0270   -1.2180 ca        1 2FQ      0.625200
      9 C3          3.9900    0.1060    0.0080 ca        1 2FQ     -0.424400
     10 C2          5.4160    0.1980   -0.1240 ca        1 2FQ      0.524200
     11 N           6.0370    0.1660   -1.2880 nb        1 2FQ     -0.695000
     12 N2          3.8920   -0.0610   -2.4360 nb        1 2FQ     -0.738000
     13 C1          5.2420    0.0350   -2.4290 ca        1 2FQ      0.763300
     14 C           5.9640    0.0000   -3.7510 c3        1 2FQ     -0.157400
     15 H1          1.4680   -0.7120    3.1230 hn        1 2FQ      0.469467
     16 H2          1.3500    0.9560    3.0140 hn        1 2FQ      0.469467
     17 H3          3.9440    0.2430    2.1710 ha        1 2FQ      0.164000
     18 H4          1.4140   -1.1900   -2.9460 h1        1 2FQ      0.087700
     19 H5          1.2850    0.6350   -3.0650 h1        1 2FQ      0.087700
     20 H6         -0.0030   -0.3190   -2.1730 h1        1 2FQ      0.087700
     21 H7          6.0480    0.3020    0.7810 h4        1 2FQ      0.050100
     22 H8          6.5450    0.9490   -3.8770 hc        1 2FQ      0.090700
     23 H9          6.6810   -0.8600   -3.7560 hc        1 2FQ      0.090700
     24 H10         5.2540   -0.1110   -4.6070 hc        1 2FQ      0.090700
     25 H33         0.1900   -0.0150    2.2800 hn        1 2FQ      0.469467
@<TRIPOS>BOND
     1    1    2 2   
     2    2    3 1   
     3    2    6 1   
     4    3    4 1   
     5    3    5 2   
     6    4   15 1   
     7    4   16 1   
     8    4   25 1   
     9    5    9 1   
    10    5   17 1   
    11    6    7 1   
    12    6    8 1   
    13    7   18 1   
    14    7   19 1   
    15    7   20 1   
    16    8    9 ar  
    17    8   12 ar  
    18    9   10 ar  
    19   10   11 ar  
    20   10   21 1   
    21   11   13 ar  
    22   12   13 ar  
    23   13   14 1   
    24   14   22 1   
    25   14   23 1   
    26   14   24 1   
@<TRIPOS>SUBSTRUCTURE
     1 2FQ         1 TEMP              0 ****  ****    0 ROOT
