@<TRIPOS>MOLECULE
2FQ
   24    18     1     0     0
SMALL
bcc


@<TRIPOS>ATOM
      1 O          -3.3670   -0.0110    0.8870 o         1 2FQ     -0.357000
      2 C6         -2.1520   -0.0110    0.8870 c1        1 2FQ      0.328000
      3 C5         -1.4190   -0.0110    2.1570 c1        1 2FQ     -0.094000
      4 N3         -2.1270    0.0160    3.3870 n2        1 2FQ     -0.313000
      5 C4          0.0270   -0.0110    2.1530 c1        1 2FQ     -0.074000
      6 N1         -1.4320   -0.0110   -0.3600 n3        1 2FQ     -0.228000
      7 C8         -2.1450    0.0170   -1.5920 c3        1 2FQ     -0.083000
      8 C7          0.0760   -0.0110   -0.3620 c1        1 2FQ      0.144000
      9 C3          0.7770   -0.0110    0.8380 c1        1 2FQ     -0.094000
     10 C2          2.1530   -0.0110    0.8290 c1        1 2FQ     -0.074000
     11 N           2.8210   -0.0110   -0.3460 n1        1 2FQ     -0.189000
     12 N2          0.7490   -0.0110   -1.5360 n1        1 2FQ     -0.206000
     13 C1          2.1220   -0.0110   -1.5410 c1        1 2FQ      0.056000
     14 C           2.9610   -0.0030   -2.8000 c2        1 2FQ     -0.160000
     15 H1         -2.3380    0.8140    3.7740 hn        1 2FQ      0.202000
     16 H2         -2.3710   -0.7650    3.7890 hn        1 2FQ      0.202000
     17 H3          0.5180   -0.0110    2.9970 ha        1 2FQ      0.157500
     18 H4         -3.1050    0.0020   -1.4130 h1        1 2FQ      0.104333
     19 H5         -1.9180    0.8310   -2.0810 h1        1 2FQ      0.104333
     20 H6         -1.9010   -0.7620   -2.1270 h1        1 2FQ      0.104333
     21 H7          2.6470   -0.0110    1.6710 ha        1 2FQ      0.157500
     22 H8          2.8700   -0.8600   -3.2570 ha        1 2FQ      0.104000
     23 H9          3.8970    0.1440   -2.5660 ha        1 2FQ      0.104000
     24 H10         2.6570    0.7140   -3.3890 ha        1 2FQ      0.104000
@<TRIPOS>BOND
     1    1    2 1   
     2    2    6 1   
     3    3    5 1   
     4    4   15 1   
     5    4   16 1   
     6    5   17 1   
     7    6    7 1   
     8    6    8 1   
     9    7   18 1   
    10    7   19 1   
    11    7   20 1   
    12    8   12 1   
    13    9   10 1   
    14   10   21 1   
    15   11   13 1   
    16   14   22 1   
    17   14   23 1   
    18   14   24 1   
@<TRIPOS>SUBSTRUCTURE
     1 2FQ         1 TEMP              0 ****  ****    0 ROOT
