@<TRIPOS>MOLECULE
2FQ
   24    25     1     0     0
SMALL
bcc


@<TRIPOS>ATOM
      1 O           3.0060    1.3380    0.0210 o         1 2FQ     -0.632500
      2 C6          2.0110    0.5870   -0.0210 c         1 2FQ      0.689700
      3 C5          2.1500   -0.9050   -0.0380 cc        1 2FQ      0.048800
      4 N3          3.4380   -1.4150   -0.1810 nh        1 2FQ     -0.804600
      5 C4          1.0290   -1.6880    0.0030 cd        1 2FQ     -0.139200
      6 N1          0.7240    1.1460   -0.0370 n         1 2FQ     -0.412300
      7 C8          0.5730    2.5840   -0.0580 c3        1 2FQ      0.072300
      8 C7         -0.4180    0.3330   -0.0120 ca        1 2FQ      0.552200
      9 C3         -0.2670   -1.0920    0.0180 ca        1 2FQ     -0.316400
     10 C2         -1.4630   -1.8540    0.0510 ca        1 2FQ      0.468200
     11 N          -2.6790   -1.3080    0.0540 nb        1 2FQ     -0.715000
     12 N2         -1.6700    0.9100   -0.0120 nb        1 2FQ     -0.732000
     13 C1         -2.7370    0.0720    0.0200 ca        1 2FQ      0.676300
     14 C          -4.1130    0.6930    0.0180 c3        1 2FQ     -0.136400
     15 H1          4.1630   -0.7520   -0.0020 hn        1 2FQ      0.406800
     16 H2          3.5810   -2.3020    0.2480 hn        1 2FQ      0.406800
     17 H3          1.0890   -2.7870    0.0110 ha        1 2FQ      0.147000
     18 H4          1.5840    3.0720   -0.0880 h1        1 2FQ      0.065033
     19 H5         -0.0120    2.8900   -0.9660 h1        1 2FQ      0.065033
     20 H6          0.0260    2.9230    0.8620 h1        1 2FQ      0.065033
     21 H7         -1.4150   -2.9590    0.0760 h4        1 2FQ      0.031100
     22 H8         -4.6640    0.3730    0.9360 hc        1 2FQ      0.064700
     23 H9         -4.0590    1.8090   -0.0020 hc        1 2FQ      0.064700
     24 H10        -4.6760    0.3410   -0.8820 hc        1 2FQ      0.064700
@<TRIPOS>BOND
     1    1    2 2   
     2    2    3 1   
     3    2    6 1   
     4    3    4 1   
     5    3    5 2   
     6    4   15 1   
     7    4   16 1   
     8    5    9 1   
     9    5   17 1   
    10    6    7 1   
    11    6    8 1   
    12    7   18 1   
    13    7   19 1   
    14    7   20 1   
    15    8    9 ar  
    16    8   12 ar  
    17    9   10 ar  
    18   10   11 ar  
    19   10   21 1   
    20   11   13 ar  
    21   12   13 ar  
    22   13   14 1   
    23   14   22 1   
    24   14   23 1   
    25   14   24 1   
@<TRIPOS>SUBSTRUCTURE
     1 2FQ         1 TEMP              0 ****  ****    0 ROOT
