@<TRIPOS>MOLECULE
2FQ
   25    26     1     0     0
SMALL
bcc


@<TRIPOS>ATOM
      1 O          -0.0800   -0.1850    0.0900 o         1 2FQ     -0.622500
      2 C6          1.1650   -0.1080    0.0420 c         1 2FQ      0.717700
      3 C5          1.9620    0.0070    1.2850 cc        1 2FQ     -0.257200
      4 N3          1.1920    0.0220    2.5180 n4        1 2FQ     -0.680400
      5 C4          3.3330    0.0940    1.2570 cd        1 2FQ      0.103800
      6 N1          1.8530   -0.1270   -1.1800 n         1 2FQ     -0.377300
      7 C8          1.0940   -0.2390   -2.4150 c3        1 2FQ      0.059300
      8 C7          3.2430   -0.0400   -1.2180 ca        1 2FQ      0.625200
      9 C3          3.9900    0.0710    0.0100 ca        1 2FQ     -0.424400
     10 C2          5.4160    0.1560   -0.1180 ca        1 2FQ      0.524200
     11 N           6.0390    0.1360   -1.2820 nb        1 2FQ     -0.695000
     12 N2          3.8940   -0.0610   -2.4360 nb        1 2FQ     -0.738000
     13 C1          5.2440    0.0260   -2.4260 ca        1 2FQ      0.763300
     14 C           5.9680    0.0040   -3.7480 c3        1 2FQ     -0.157400
     15 H1          1.3510    0.8990    3.0250 hn        1 2FQ      0.469467
     16 H2          0.1860   -0.0550    2.2760 hn        1 2FQ      0.469467
     17 H3          3.9420    0.1800    2.1750 ha        1 2FQ      0.164000
     18 H4          1.4090   -1.1670   -2.9640 h1        1 2FQ      0.087700
     19 H5         -0.0030   -0.2980   -2.1810 h1        1 2FQ      0.087700
     20 H6          1.2920    0.6600   -3.0580 h1        1 2FQ      0.087700
     21 H7          6.0480    0.2440    0.7890 h4        1 2FQ      0.050100
     22 H8          6.5590    0.9490   -3.8580 hc        1 2FQ      0.090700
     23 H9          5.2570   -0.0860   -4.6060 hc        1 2FQ      0.090700
     24 H10         6.6760   -0.8640   -3.7650 hc        1 2FQ      0.090700
     25 H33         1.4580   -0.7710    3.1110 hn        1 2FQ      0.469467
@<TRIPOS>BOND
     1    1    2 2   
     2    2    3 1   
     3    2    6 1   
     4    3    4 1   
     5    3    5 2   
     6    4   15 1   
     7    4   16 1   
     8    4   25 1   
     9    5    9 1   
    10    5   17 1   
    11    6    7 1   
    12    6    8 1   
    13    7   18 1   
    14    7   19 1   
    15    7   20 1   
    16    8    9 ar  
    17    8   12 ar  
    18    9   10 ar  
    19   10   11 ar  
    20   10   21 1   
    21   11   13 ar  
    22   12   13 ar  
    23   13   14 1   
    24   14   22 1   
    25   14   23 1   
    26   14   24 1   
@<TRIPOS>SUBSTRUCTURE
     1 2FQ         1 TEMP              0 ****  ****    0 ROOT
