@<TRIPOS>MOLECULE
2FR
   56    54     1     0     0
SMALL
bcc


@<TRIPOS>ATOM
      1 C30         0.8020    1.6240    1.8450 c3        1 2FR     -0.188000
      2 C28        -3.0060    0.2490    4.0720 c1        1 2FR     -0.776000
      3 C27        -3.6140    0.0000    5.1860 c1        1 2FR      0.389000
      4 C26        -0.7640    1.1960   -0.0200 c2        1 2FR     -0.124000
      5 C24         3.1480   -3.3870   -4.0270 c3        1 2FR     -0.269000
      6 C23         1.5340    1.9960   -0.4970 c2        1 2FR      0.075000
      7 N21        -1.0700    1.8430   -9.9460 n3        1 2FR     -0.289000
      8 C16         2.3270   -0.0750   -9.0410 c2        1 2FR     -0.340000
      9 C17         3.4980    0.5180   -8.2870 c3        1 2FR     -0.159000
     10 C20        -0.9060    0.5670  -10.2920 c2        1 2FR      0.328000
     11 C15         2.7600   -1.3810   -9.4900 c2        1 2FR      0.056000
     12 C12         3.1330    0.9480   -6.9300 c2        1 2FR      0.244000
     13 C13         4.5400   -0.6200   -8.1960 c1        1 2FR      0.015000
     14 C14         4.0280   -1.6680   -9.0210 c2        1 2FR     -0.330000
     15 C10         5.2300    3.4340   -5.6440 c2        1 2FR     -0.076000
     16 C4          3.4350    2.2120   -4.8380 c2        1 2FR     -0.010000
     17 C5          4.3890    3.2190   -4.4500 c2        1 2FR     -0.198000
     18 C6          4.3170    3.7220   -3.1550 c2        1 2FR      0.044000
     19 C3          2.4740    1.7540   -3.9630 c2        1 2FR     -0.138000
     20 C2          2.4850    2.3460   -2.6450 c2        1 2FR      0.121000
     21 O22         0.2030   -0.1220   -9.9880 os        1 2FR     -0.157000
     22 C19        -1.9170   -0.2260  -11.0620 c3        1 2FR     -0.232000
     23 N8          3.7520    1.8740   -6.2150 na        1 2FR     -0.038000
     24 N9          4.8400    2.6560   -6.6410 n2        1 2FR     -0.070000
     25 N1          3.3930    3.2980   -2.2730 n2        1 2FR     -0.178000
     26 N7          1.4440    1.9170   -1.7900 n2        1 2FR     -0.203000
     27 C25         0.4500    1.5790    0.4020 c2        1 2FR     -0.139000
     28 C29        -2.4060    0.4950    2.9660 c1        1 2FR      0.389000
     29 H30         1.6710    0.9510    2.0560 hc        1 2FR      0.091333
     30 H28        -0.0640    1.2930    2.4730 hc        1 2FR      0.091333
     31 H27        -1.5490    0.8990    0.6970 ha        1 2FR      0.137500
     32 H26        -1.0480    1.1580   -1.0800 ha        1 2FR      0.137500
     33 H24         3.0760   -2.6610   -3.1880 hc        1 2FR      0.067250
     34 H24A        3.9890   -3.1030   -4.6950 hc        1 2FR      0.067250
     35 H24B        3.3300   -4.4050   -3.6180 hc        1 2FR      0.067250
     36 H23         2.1970   -3.3860   -4.6020 hc        1 2FR      0.067250
     37 HN21       -2.0400    0.2100  -12.0860 hc        1 2FR      0.144000
     38 HN2A       -1.8970    2.3400  -10.1860 hn        1 2FR      0.283500
     39 H17         3.9900    1.3320   -8.8970 hc        1 2FR      0.189000
     40 H15         2.1320   -2.0240  -10.1150 ha        1 2FR      0.147000
     41 H13         2.2690    0.4360   -6.4430 h4        1 2FR      0.183000
     42 H14         4.5880   -2.5850   -9.2210 ha        1 2FR      0.171000
     43 H11         8.4330    4.8750   -5.4690 ha        1 2FR      0.067000
     44 H11A        6.1350    4.1720   -5.7340 h4        1 2FR      0.307000
     45 H11B        7.5500    5.8170   -6.7850 ha        1 2FR      0.067000
     46 H6          5.0180    4.4940   -2.7850 h4        1 2FR      0.185000
     47 H3          1.7310    0.9860   -4.2200 ha        1 2FR      0.174000
     48 H19         6.4820    0.0720   -9.4260 ha        1 2FR      0.005000
     49 H19A        6.0560    0.4120   -9.8310 ha        1 2FR      0.005000
     50 H18        -1.5700   -1.2870  -11.1590 hc        1 2FR      0.144000
     51 H18A       -2.9040   -0.2130  -10.5330 hc        1 2FR      0.144000
     52 HN7         2.4390    2.3680    0.0400 h4        1 2FR      0.135000
     53 H29         1.0820    2.6640    2.1470 hc        1 2FR      0.091333
     54 H213       -0.3390    2.3020   -9.4250 hn        1 2FR      0.283500
     55 C11         7.4850    5.0690   -5.9850 c1        1 2FR     -0.021000
     56 C18         1.1700    0.6080   -9.2260 c1        1 2FR     -0.182000
@<TRIPOS>BOND
     1    1   27 1   
     2    1   29 1   
     3    1   30 1   
     4    1   53 1   
     5    2    3 1   
     6    2   28 1   
     7    4   27 1   
     8    4   31 1   
     9    4   32 1   
    10    5   33 1   
    11    5   34 1   
    12    5   35 1   
    13    5   36 1   
    14    6   26 1   
    15    6   27 1   
    16    6   52 1   
    17    7   10 1   
    18    7   38 1   
    19    7   54 1   
    20    8    9 1   
    21    8   11 1   
    22    8   56 1   
    23    9   12 1   
    24    9   13 1   
    25    9   39 1   
    26   10   21 1   
    27   10   22 1   
    28   11   14 1   
    29   11   40 1   
    30   12   23 1   
    31   12   41 1   
    32   13   14 1   
    33   14   42 1   
    34   15   17 1   
    35   15   24 1   
    36   15   44 1   
    37   16   17 1   
    38   16   19 1   
    39   16   23 1   
    40   17   18 1   
    41   18   25 1   
    42   18   46 1   
    43   19   20 1   
    44   19   47 1   
    45   20   25 1   
    46   20   26 1   
    47   21   56 1   
    48   22   37 1   
    49   22   50 1   
    50   22   51 1   
    51   23   24 1   
    52   43   55 1   
    53   45   55 1   
    54   48   49 1   
@<TRIPOS>SUBSTRUCTURE
     1 2FR         1 TEMP              0 ****  ****    0 ROOT
