@<TRIPOS>MOLECULE
2FR
   55    58     1     0     0
SMALL
bcc


@<TRIPOS>ATOM
      1 C30         5.1620    2.5690   -0.8320 ca        1 2FR     -0.118000
      2 C28         7.5780    2.5730   -0.7370 ca        1 2FR     -0.124000
      3 C27         7.5530    1.3560   -0.0580 ca        1 2FR     -0.128000
      4 C26         6.3350    0.7450    0.2390 ca        1 2FR     -0.118000
      5 C24         3.6490    0.6500    1.7100 c3        1 2FR     -0.126100
      6 C23         3.8060    0.7100    0.1870 c3        1 2FR      0.250800
      7 N21        -8.5400    0.4890   -0.0770 n         1 2FR     -0.680000
      8 C16        -3.6990    1.4610    0.1490 ca        1 2FR     -0.069300
      9 C17        -3.1000    0.2230   -0.1020 ca        1 2FR     -0.124000
     10 C20        -7.4810    1.3150   -0.3700 c         1 2FR      0.655100
     11 C15        -3.0400    2.4070    0.9410 ca        1 2FR     -0.131000
     12 C12        -1.8390   -0.0770    0.4510 ca        1 2FR      0.040800
     13 C13        -1.1910    0.8770    1.2630 ca        1 2FR     -0.152000
     14 C14        -1.7940    2.1100    1.4900 ca        1 2FR     -0.115000
     15 C10        -1.0600   -3.5160   -0.0500 cc        1 2FR      0.388900
     16 C4          0.1480   -1.5620    0.0100 ca        1 2FR      0.028800
     17 C5          0.2960   -2.9900   -0.1550 ca        1 2FR     -0.384200
     18 C6          1.5860   -3.4950   -0.3660 ca        1 2FR      0.508200
     19 C3          1.2640   -0.7230   -0.0640 ca        1 2FR     -0.320300
     20 C2          2.5210   -1.3440   -0.2960 ca        1 2FR      0.665200
     21 O22        -7.6620    2.3250   -1.0800 o         1 2FR     -0.615100
     22 C19        -6.1280    0.9590    0.2140 c3        1 2FR     -0.148400
     23 C18        -5.0290    1.7710   -0.4450 c3        1 2FR     -0.033100
     24 N8         -1.2280   -1.3350    0.2000 na        1 2FR      0.148800
     25 N9         -1.9270   -2.5000    0.1590 nd        1 2FR     -0.515100
     26 N1          2.6670   -2.7220   -0.4220 nb        1 2FR     -0.743000
     27 N7          3.6730   -0.5670   -0.4980 nh        1 2FR     -0.828900
     28 C25         5.1340    1.3520   -0.1430 ca        1 2FR     -0.092300
     29 C29         6.3820    3.1780   -1.1230 ca        1 2FR     -0.128000
     30 H30         4.2220    3.0460   -1.1480 ha        1 2FR      0.133500
     31 H28         8.5390    3.0540   -0.9710 ha        1 2FR      0.134000
     32 H27         8.4940    0.8740    0.2450 ha        1 2FR      0.134000
     33 H26         6.3220   -0.2130    0.7800 ha        1 2FR      0.133500
     34 H24         3.7380    1.6810    2.1280 hc        1 2FR      0.047367
     35 H24A        2.6470    0.2360    1.9820 hc        1 2FR      0.047367
     36 H24B        4.4390    0.0100    2.1700 hc        1 2FR      0.047367
     37 H23         2.9810    1.3760   -0.2160 h1        1 2FR      0.064700
     38 HN21       -9.4360    0.6950   -0.4410 hn        1 2FR      0.311000
     39 HN2A       -8.4190   -0.3240    0.4670 hn        1 2FR      0.311000
     40 H17        -3.6250   -0.5120   -0.7330 ha        1 2FR      0.154000
     41 H15        -3.5060    3.3860    1.1300 ha        1 2FR      0.140000
     42 H13        -0.2160    0.6520    1.7230 ha        1 2FR      0.144000
     43 H14        -1.2810    2.8550    2.1180 ha        1 2FR      0.136000
     44 H11        -1.6010   -5.3610    0.8790 hc        1 2FR      0.054700
     45 H11A       -2.3550   -5.0850   -0.7490 hc        1 2FR      0.054700
     46 H11B       -0.5910   -5.5100   -0.6260 hc        1 2FR      0.054700
     47 H6          1.7610   -4.5800   -0.4890 h4        1 2FR      0.025100
     48 H3          1.1620    0.3650    0.0230 ha        1 2FR      0.154000
     49 H19        -6.1530    1.1710    1.3160 hc        1 2FR      0.067700
     50 H19A       -5.9200   -0.1360    0.0800 hc        1 2FR      0.067700
     51 H18        -5.2650    2.8640   -0.3390 hc        1 2FR      0.070700
     52 H18A       -5.0130    1.5480   -1.5460 hc        1 2FR      0.070700
     53 HN7         4.5290   -1.0850   -0.5450 hn        1 2FR      0.420800
     54 H29         6.3990    4.1370   -1.6630 ha        1 2FR      0.134000
     55 C11        -1.4250   -4.9420   -0.1450 c3        1 2FR     -0.107400
@<TRIPOS>BOND
     1    1   28 ar  
     2    1   29 ar  
     3    1   30 1   
     4    2    3 ar  
     5    2   29 ar  
     6    2   31 1   
     7    3    4 ar  
     8    3   32 1   
     9    4   28 ar  
    10    4   33 1   
    11    5    6 1   
    12    5   34 1   
    13    5   35 1   
    14    5   36 1   
    15    6   27 1   
    16    6   28 1   
    17    6   37 1   
    18    7   10 1   
    19    7   38 1   
    20    7   39 1   
    21    8    9 ar  
    22    8   11 ar  
    23    8   23 1   
    24    9   12 ar  
    25    9   40 1   
    26   10   21 2   
    27   10   22 1   
    28   11   14 ar  
    29   11   41 1   
    30   12   13 ar  
    31   12   24 1   
    32   13   14 ar  
    33   13   42 1   
    34   14   43 1   
    35   15   17 1   
    36   15   25 2   
    37   15   55 1   
    38   16   17 ar  
    39   16   19 ar  
    40   16   24 1   
    41   17   18 ar  
    42   18   26 ar  
    43   18   47 1   
    44   19   20 ar  
    45   19   48 1   
    46   20   26 ar  
    47   20   27 1   
    48   22   23 1   
    49   22   49 1   
    50   22   50 1   
    51   23   51 1   
    52   23   52 1   
    53   24   25 1   
    54   27   53 1   
    55   29   54 1   
    56   44   55 1   
    57   45   55 1   
    58   46   55 1   
@<TRIPOS>SUBSTRUCTURE
     1 2FR         1 TEMP              0 ****  ****    0 ROOT
