@<TRIPOS>MOLECULE
2FR
   55    47     1     0     0
SMALL
bcc


@<TRIPOS>ATOM
      1 C30         2.0550    0.4700    6.0820 c1        1 2FR     -0.126667
      2 C28         2.4470   -1.2260    7.7340 c1        1 2FR     -0.126667
      3 C27         1.5230   -2.0480    7.1090 c1        1 2FR     -0.126667
      4 C26         0.8650   -1.6110    5.9710 c1        1 2FR     -0.127000
      5 C24        -1.1430    0.1510    4.6370 c3        1 2FR     -0.213000
      6 C23         0.3270    0.1690    4.2870 c3        1 2FR      0.042000
      7 N21        -4.4530    0.7860   -7.9230 n         1 2FR     -0.440000
      8 C16        -1.9300   -0.6370   -3.8510 c1        1 2FR     -0.062000
      9 C17        -1.0520    0.1280   -3.0990 c1        1 2FR     -0.194000
     10 C20        -4.3100    0.6730   -6.5160 c2        1 2FR      0.299000
     11 C15        -1.6850   -1.9870   -4.0400 c1        1 2FR     -0.131000
     12 C12         0.0710   -0.4580   -2.5360 c1        1 2FR      0.081500
     13 C13         0.3160   -1.8090   -2.7260 c1        1 2FR     -0.126667
     14 C14        -0.5610   -2.5740   -3.4770 c1        1 2FR     -0.126667
     15 C11         3.4520    2.7840   -1.9580 c3        1 2FR     -0.150000
     16 C10         2.4180    1.8080   -1.4450 c2        1 2FR     -0.058000
     17 C4          1.1500    0.3240   -0.4070 c1        1 2FR      0.081500
     18 C5          2.0900    1.2670   -0.2100 c1        1 2FR     -0.234000
     19 C6          2.5430    1.5470    1.0920 c1        1 2FR      0.041000
     20 C3          0.6290   -0.3690    0.6750 c1        1 2FR     -0.194000
     21 C2          1.0780   -0.0910    1.9570 c1        1 2FR      0.148000
     22 O22        -5.2070    1.0400   -5.7830 o         1 2FR     -0.376000
     23 C19        -3.0310    0.1200   -5.9290 c3        1 2FR     -0.177000
     24 C18        -3.1790   -0.0060   -4.4290 c3        1 2FR     -0.119000
     25 N8          0.8830    0.2660   -1.7520 n1        1 2FR     -0.122000
     26 N9          1.6740    1.1890   -2.3810 n2        1 2FR     -0.046000
     27 N1          2.0300    0.8640    2.1540 n1        1 2FR     -0.208000
     28 N7          0.5540   -0.6560    3.1510 n3        1 2FR     -0.265000
     29 C25         1.1300   -0.3520    5.4570 c1        1 2FR     -0.111000
     30 C29         2.7130    0.0330    7.2200 c1        1 2FR     -0.126667
     31 H30         2.2420    1.3570    5.7200 ha        1 2FR      0.136167
     32 H28         2.9110   -1.5330    8.5350 ha        1 2FR      0.136167
     33 H27         1.3360   -2.9350    7.4710 ha        1 2FR      0.136167
     34 H26         0.2140   -2.1910    5.5310 ha        1 2FR      0.125000
     35 H24        -1.5130   -0.7360    4.4480 hc        1 2FR      0.084000
     36 H24A       -1.2540    0.3560    5.5900 hc        1 2FR      0.084000
     37 H24B       -1.6150    0.8230    4.1020 hc        1 2FR      0.084000
     38 H23         0.6030    1.0850    4.0840 h1        1 2FR      0.132000
     39 HN21       -3.7390    0.6230   -8.4700 hn        1 2FR      0.224500
     40 HN2A       -5.2560    1.0360   -8.2820 hn        1 2FR      0.224500
     41 H17        -1.2250    1.0790   -2.9660 ha        1 2FR      0.153000
     42 H15        -2.3030   -2.5260   -4.5700 ha        1 2FR      0.139000
     43 H13         1.1060   -2.2210   -2.3300 ha        1 2FR      0.136167
     44 H14        -0.3890   -3.5250   -3.6100 ha        1 2FR      0.136167
     45 H11         3.1250    3.6990   -1.8400 hc        1 2FR      0.094000
     46 H11A        3.6160    2.6160   -2.9100 hc        1 2FR      0.094000
     47 H11B        4.2860    2.6690   -1.4580 hc        1 2FR      0.094000
     48 H6          3.2250    2.2310    1.2350 ha        1 2FR      0.161000
     49 H3         -0.0520   -1.0530    0.5330 ha        1 2FR      0.153000
     50 H19        -2.2910    0.7250   -6.1340 hc        1 2FR      0.107000
     51 H19A       -2.8490   -0.7600   -6.3140 hc        1 2FR      0.107000
     52 H18        -3.3070    0.8820   -4.0380 hc        1 2FR      0.110000
     53 H18A       -3.9530   -0.5690   -4.2240 hc        1 2FR      0.110000
     54 HN7         0.3220   -1.5370    3.1740 hn        1 2FR      0.196000
     55 H29         3.3640    0.6120    7.6600 ha        1 2FR      0.136167
@<TRIPOS>BOND
     1    1   30 1   
     2    1   31 1   
     3    2    3 1   
     4    2   32 1   
     5    3   33 1   
     6    4   29 1   
     7    4   34 1   
     8    5    6 1   
     9    5   35 1   
    10    5   36 1   
    11    5   37 1   
    12    6   28 1   
    13    6   29 1   
    14    6   38 1   
    15    7   10 1   
    16    7   39 1   
    17    7   40 1   
    18    8   11 1   
    19    8   24 1   
    20    9   12 1   
    21    9   41 1   
    22   10   22 1   
    23   10   23 1   
    24   11   42 1   
    25   13   14 1   
    26   13   43 1   
    27   14   44 1   
    28   15   16 1   
    29   15   45 1   
    30   15   46 1   
    31   15   47 1   
    32   16   18 1   
    33   16   26 1   
    34   17   20 1   
    35   18   19 1   
    36   19   48 1   
    37   20   49 1   
    38   21   27 1   
    39   21   28 1   
    40   23   24 1   
    41   23   50 1   
    42   23   51 1   
    43   24   52 1   
    44   24   53 1   
    45   25   26 1   
    46   28   54 1   
    47   30   55 1   
@<TRIPOS>SUBSTRUCTURE
     1 2FR         1 TEMP              0 ****  ****    0 ROOT
