@<TRIPOS>MOLECULE
2FR
   56    55     1     0     0
SMALL
bcc


@<TRIPOS>ATOM
      1 C30        -1.1170    2.6800    0.6340 c2        1 2FR     -0.128000
      2 C28        -1.5120    0.0140    2.0790 c1        1 2FR     -0.159000
      3 C27        -1.3620   -0.3690    0.7380 c2        1 2FR     -0.035000
      4 C26        -0.9140    0.3980   -0.2700 c2        1 2FR     -0.115000
      5 C24         4.6590   -2.0780   -3.2550 c3        1 2FR     -0.282000
      6 C23         0.6050    2.2640   -1.0160 c2        1 2FR      0.078000
      7 N21        -1.1010    2.2530   -9.3270 n8        1 2FR     -0.290000
      8 C16         2.2210    0.0280   -9.1030 c2        1 2FR     -0.339000
      9 C17         3.4580    0.3650   -8.2980 c3        1 2FR     -0.151000
     10 C20        -1.0150    1.1050   -9.9960 c2        1 2FR      0.328000
     11 C15         2.5300   -1.1920   -9.8170 c2        1 2FR      0.055000
     12 C12         3.1730    0.5530   -6.8640 c2        1 2FR      0.221000
     13 C13         4.3960   -0.8460   -8.4700 c1        1 2FR     -0.001000
     14 C14         3.7800   -1.6680   -9.4630 c2        1 2FR     -0.328000
     15 C10         5.5790    2.4600   -5.1940 c2        1 2FR     -0.088000
     16 C4          3.6680    1.2220   -4.5290 c3        1 2FR     -0.131000
     17 C5          4.6700    2.2750   -4.0530 c2        1 2FR     -0.225000
     18 C6          4.4320    2.9210   -2.8890 c2        1 2FR      0.021000
     19 C3          2.3000    1.4640   -4.0590 c1        1 2FR      0.083000
     20 C2          2.3060    1.9520   -2.6400 c2        1 2FR      0.013000
     21 O22         0.0710    0.3220   -9.9410 os        1 2FR     -0.157000
     22 C19        -2.1010    0.5700  -10.8800 c3        1 2FR     -0.232000
     23 N8          3.9500    1.1750   -6.0010 n3        1 2FR     -0.062000
     24 N9          5.1360    1.8580   -6.2800 n2        1 2FR     -0.052000
     25 N1          3.2770    2.7110   -2.1350 n2        1 2FR     -0.164000
     26 N7          1.1960    1.5170   -1.8950 n2        1 2FR     -0.167000
     27 C25        -0.5120    1.7930   -0.1770 c2        1 2FR     -0.091000
     28 C29        -1.6490    0.2910    3.2370 c1        1 2FR     -0.173000
     29 H30        -0.8170    3.7360    0.6920 ha        1 2FR      0.136000
     30 H28        -1.7710    0.5320    4.2630 ha        1 2FR      0.231000
     31 H27        -0.8280   -0.0510   -1.2770 ha        1 2FR      0.147000
     32 H26        -1.6420   -1.4220    0.5320 ha        1 2FR      0.147000
     33 H24         4.9780   -3.0690   -2.8640 hc        1 2FR      0.071500
     34 H24A        5.1020   -1.2780   -2.6210 hc        1 2FR      0.071500
     35 H24B        5.0130   -1.9690   -4.3030 hc        1 2FR      0.071500
     36 H23         3.5490   -2.0130   -3.2210 hc        1 2FR      0.071500
     37 HN21       -3.0520    0.4600  -10.3000 hc        1 2FR      0.143000
     38 HN2A       -1.9130    2.8230   -9.3820 hn        1 2FR      0.283500
     39 H17         3.9980    1.2440   -8.7570 hc        1 2FR      0.183000
     40 H15         1.8350   -1.6470  -10.5290 ha        1 2FR      0.146000
     41 H13         2.2310    0.1120   -6.4570 h4        1 2FR      0.198000
     42 H14         4.2520   -2.5700   -9.8590 ha        1 2FR      0.168000
     43 H11         6.5830    3.0800   -5.1890 h4        1 2FR      0.310000
     44 H11A        8.1730    4.6850   -5.9690 ha        1 2FR      0.070500
     45 H11B        8.9530    3.2980   -5.0350 ha        1 2FR      0.070500
     46 H6          5.1240    3.6640   -2.4480 h4        1 2FR      0.191000
     47 H3          3.9660    0.1980   -4.0930 h1        1 2FR      0.212000
     48 H19         5.9700    0.3770   -9.9270 ha        1 2FR      0.004500
     49 H19A        6.3550   -0.1040   -9.6430 ha        1 2FR      0.004500
     50 H18        -2.2700    1.2690  -11.7380 hc        1 2FR      0.143000
     51 H18A       -1.8010   -0.4310  -11.2820 hc        1 2FR      0.143000
     52 HN7         0.8840    3.3300   -0.8360 h4        1 2FR      0.128000
     53 H29        -1.9510    2.3860    1.2890 ha        1 2FR      0.136000
     54 H213       -0.3210    2.5380   -8.7540 hn        1 2FR      0.283500
     55 C11         8.0250    3.7800   -5.3660 c1        1 2FR     -0.017000
     56 C18         1.1170    0.8150   -9.0940 c1        1 2FR     -0.179000
@<TRIPOS>BOND
     1    1   27 1   
     2    1   29 1   
     3    1   53 1   
     4    2    3 1   
     5    2   28 1   
     6    3    4 1   
     7    3   32 1   
     8    4   27 1   
     9    4   31 1   
    10    5   33 1   
    11    5   34 1   
    12    5   35 1   
    13    5   36 1   
    14    6   26 1   
    15    6   27 1   
    16    6   52 1   
    17    7   10 1   
    18    7   38 1   
    19    7   54 1   
    20    8    9 1   
    21    8   11 1   
    22    8   56 1   
    23    9   12 1   
    24    9   13 1   
    25    9   39 1   
    26   10   21 1   
    27   10   22 1   
    28   11   14 1   
    29   11   40 1   
    30   12   23 1   
    31   12   41 1   
    32   13   14 1   
    33   14   42 1   
    34   15   17 1   
    35   15   24 1   
    36   15   43 1   
    37   16   17 1   
    38   16   19 1   
    39   16   23 1   
    40   16   47 1   
    41   17   18 1   
    42   18   25 1   
    43   18   46 1   
    44   19   20 1   
    45   20   25 1   
    46   20   26 1   
    47   21   56 1   
    48   22   37 1   
    49   22   50 1   
    50   22   51 1   
    51   23   24 1   
    52   28   30 1   
    53   44   55 1   
    54   45   55 1   
    55   48   49 1   
@<TRIPOS>SUBSTRUCTURE
     1 2FR         1 TEMP              0 ****  ****    0 ROOT
