@<TRIPOS>MOLECULE
2FR
   57    56     1     0     0
SMALL
bcc


@<TRIPOS>ATOM
      1 C30        32.6180   16.9090 -125.7200 c2        1 2FR     -0.186000
      2 C28      -443.8440 -152.6350    0.6800 c1        1 2FR     -0.526000
      3 C27      -443.4520 -151.3640    0.4460 c1        1 2FR      0.613000
      4 C26        30.4520   15.7850 -125.3420 c3        1 2FR     -0.193000
      5 C24        32.3700   13.6660 -126.7120 c3        1 2FR     -0.239000
      6 C23        32.6390   14.4540 -125.4250 c3        1 2FR      0.059000
      7 N21        41.2370   13.8050 -124.2130 n3        1 2FR     -0.287000
      8 C16        39.1780   10.9180 -126.0700 c2        1 2FR     -0.342000
      9 C17        38.1140   10.0510 -125.4320 c3        1 2FR     -0.160000
     10 C20        41.4550   13.5480 -125.5010 c2        1 2FR      0.329000
     11 C15        39.4540   10.3280 -127.3610 c2        1 2FR      0.062000
     12 C12        36.9270   10.8130 -125.0230 c2        1 2FR      0.248000
     13 C13        37.6950    9.0480 -126.5330 c1        1 2FR      0.014000
     14 C14        38.6140    9.2550 -127.6030 c2        1 2FR     -0.329000
     15 C10        35.2910    9.4770 -122.2310 c2        1 2FR      0.087000
     16 C4         34.8820   11.2150 -123.7040 c2        1 2FR      0.052000
     17 C5         34.3320   10.5420 -122.5590 c2        1 2FR     -0.276000
     18 C6         33.1080   11.0030 -122.0640 c2        1 2FR      0.089000
     19 C3         34.2430   12.2710 -124.3090 c2        1 2FR     -0.248000
     20 C2         32.9800   12.6730 -123.7170 c2        1 2FR      0.218000
     21 O22        40.7630   12.6180 -126.1750 os        1 2FR     -0.159000
     22 C19        42.4970   14.2390 -126.3260 c3        1 2FR     -0.233000
     23 N8         36.1280   10.5270 -124.0050 na        1 2FR     -0.031000
     24 N9         36.3260    9.4950 -123.0840 n2        1 2FR     -0.081000
     25 N1         32.4460   12.0240 -122.6110 n2        1 2FR     -0.212000
     26 N7         32.2760   13.7350 -124.2160 nh        1 2FR     -0.280000
     27 C25        31.9250   15.7880 -125.5010 c2        1 2FR     -0.134000
     28 C29      -444.2000 -153.7900    0.8930 c1        1 2FR      0.613000
     29 H30        33.7120   16.9260 -125.8190 ha        1 2FR      0.124000
     30 H28        32.1260   17.8870 -125.8200 ha        1 2FR      0.124000
     31 H27        29.9940   16.6730 -125.8460 hc        1 2FR      0.093000
     32 H26        30.1790   15.8310 -124.2560 hc        1 2FR      0.093000
     33 H24        29.9980   14.8630 -125.7820 hc        1 2FR      0.093000
     34 H24A       31.2830   13.4420 -126.8310 hc        1 2FR      0.094000
     35 H24B       32.9340   12.7030 -126.7140 hc        1 2FR      0.094000
     36 H23        32.7040   14.2810 -127.5830 hc        1 2FR      0.094000
     37 HN21       43.5160   13.9420 -125.9690 hc        1 2FR      0.145000
     38 HN2A       41.7680   14.4910 -123.7260 hn        1 2FR      0.284000
     39 H17        38.5620    9.4240 -124.6060 hc        1 2FR      0.191000
     40 H15        40.2330   10.7130 -128.0270 ha        1 2FR      0.148000
     41 H13        36.6430   11.6990 -125.6410 h4        1 2FR      0.181000
     42 H14        38.6230    8.6310 -128.5000 ha        1 2FR      0.173000
     43 H11        34.4640    7.6730 -121.4730 hc        1 2FR      0.124000
     44 H11A       34.6100    9.0280 -120.2640 hc        1 2FR      0.124000
     45 H11B       36.0880    8.0920 -120.7750 hc        1 2FR      0.124000
     46 H6         32.6220   10.5310 -121.1870 h4        1 2FR      0.188000
     47 H3         34.6440   12.7810 -125.1940 ha        1 2FR      0.164000
     48 H19        35.1020   13.6170 -127.2190 ha        1 2FR      0.001500
     49 H19A       35.7240   13.3890 -127.0730 ha        1 2FR      0.001500
     50 H18        42.3860   15.3490 -126.2470 hc        1 2FR      0.145000
     51 H18A       42.3900   13.9350 -127.4000 hc        1 2FR      0.145000
     52 HN7        33.7560   14.6550 -125.3740 h1        1 2FR      0.093000
     53 H29      -444.5150 -154.8090    0.0810 DU        1 2FR      0.300000
     54 H213       40.5130   13.2950 -123.7300 hn        1 2FR      0.284000
     55 H72        31.3870   13.9540 -123.8130 hn        1 2FR      0.263000
     56 C11        35.1140    8.5180 -121.1230 c3        1 2FR     -0.186000
     57 C18        39.7390   11.9660 -125.4160 c1        1 2FR     -0.172000
@<TRIPOS>BOND
     1    1   27 1   
     2    1   29 1   
     3    1   30 1   
     4    2    3 1   
     5    2   28 1   
     6    4   27 1   
     7    4   31 1   
     8    4   32 1   
     9    4   33 1   
    10    5    6 1   
    11    5   34 1   
    12    5   35 1   
    13    5   36 1   
    14    6   26 1   
    15    6   27 1   
    16    6   52 1   
    17    7   10 1   
    18    7   38 1   
    19    7   54 1   
    20    8    9 1   
    21    8   11 1   
    22    8   57 1   
    23    9   12 1   
    24    9   13 1   
    25    9   39 1   
    26   10   21 1   
    27   10   22 1   
    28   11   14 1   
    29   11   40 1   
    30   12   23 1   
    31   12   41 1   
    32   13   14 1   
    33   14   42 1   
    34   15   17 1   
    35   15   24 1   
    36   15   56 1   
    37   16   17 1   
    38   16   19 1   
    39   16   23 1   
    40   17   18 1   
    41   18   25 1   
    42   18   46 1   
    43   19   20 1   
    44   19   47 1   
    45   20   25 1   
    46   20   26 1   
    47   21   57 1   
    48   22   37 1   
    49   22   50 1   
    50   22   51 1   
    51   23   24 1   
    52   26   55 1   
    53   43   56 1   
    54   44   56 1   
    55   45   56 1   
    56   48   49 1   
@<TRIPOS>SUBSTRUCTURE
     1 2FR         1 TEMP              0 ****  ****    0 ROOT
