@<TRIPOS>MOLECULE
2FS
   59    56     1     0     0
SMALL
bcc


@<TRIPOS>ATOM
      1 C2          1.3530    1.8170   -0.4600 c2        1 2FS      0.316000
      2 C4          1.3500    1.2490    0.9370 c3        1 2FS     -0.208000
      3 C6          0.2310    0.2570    1.1270 c3        1 2FS     -0.213000
      4 C7          4.3820    1.1000    3.2170 cx        1 2FS     -0.204000
      5 C8          4.9370    0.0670    2.2870 cx        1 2FS     -0.204000
      6 C9          2.3790   -1.3540   -0.8680 c1        1 2FS     -0.141000
      7 C16         4.7230   -4.7720   -3.6490 c2        1 2FS     -0.264000
      8 C18         1.4040   -7.2720    2.0440 c2        1 2FS     -0.106000
      9 C19         0.6140   -8.1490    1.4930 c1        1 2FS     -0.150000
     10 C20        -0.1640   -9.0140    0.9200 c2        1 2FS     -0.188000
     11 C21         5.3170   -8.0160   -1.9600 c1        1 2FS     -0.304000
     12 C22         5.2180   -7.0360   -2.6700 c1        1 2FS     -0.102000
     13 C27         1.8590   -3.2950    3.9000 c1        1 2FS      0.188000
     14 C28         3.1440   -2.5250    3.6710 c2        1 2FS     -0.177000
     15 C29         3.0780   -1.0590    3.7240 c3        1 2FS     -0.085000
     16 C30         4.3910   -0.3510    3.6340 cx        1 2FS     -0.197000
     17 C31         6.2740   -2.1040    3.1070 c1        1 2FS      0.222000
     18 C32         5.5540   -3.2110    3.1660 c2        1 2FS     -0.423000
     19 O1          1.0360    2.9900   -0.7240 o         1 2FS     -0.418000
     20 O3          1.7270    1.0570   -1.4840 oh        1 2FS     -0.410000
     21 C10         2.6770   -2.5210   -0.6810 c1        1 2FS     -0.570000
     22 N14         3.6960   -4.5950   -1.4450 n         1 2FS     -0.288000
     23 C15         4.0220   -4.0860   -2.6450 c2        1 2FS      0.141000
     24 C17         5.1970   -6.0390   -3.5660 c1        1 2FS     -0.165000
     25 C23         1.4730   -7.0330    3.5110 c3        1 2FS     -0.194000
     26 C25         1.2080   -5.5960    3.8090 c1        1 2FS      0.061000
     27 N26         2.1530   -4.6490    3.7310 n         1 2FS     -0.215000
     28 C33         4.1630   -3.3920    3.4160 c2        1 2FS     -0.029000
     29 C34         3.5880   -4.7970    3.4210 c2        1 2FS      0.256000
     30 O35         4.1960   -5.8490    3.2390 o         1 2FS     -0.265000
     31 H1          2.3370    0.7430    1.1150 hc        1 2FS      0.092000
     32 H2          0.3580   -0.6040    0.4230 hc        1 2FS      0.081333
     33 H3          1.2510    2.0910    1.6690 hc        1 2FS      0.092000
     34 H4          0.2390   -0.1390    2.1710 hc        1 2FS      0.081333
     35 H5         -0.7590    0.7360    0.9340 hc        1 2FS      0.081333
     36 H6          5.0720    1.8000    3.7190 hc        1 2FS      0.121500
     37 H7          3.4140    1.5750    2.9700 hc        1 2FS      0.121500
     38 H8          4.3650   -0.2020    1.3780 hc        1 2FS      0.121500
     39 H9          6.0290    0.0340    2.1140 hc        1 2FS      0.121500
     40 H12         2.0910   -6.6540    1.4280 ha        1 2FS      0.177000
     41 H13         0.1410  -10.0560    0.7460 ha        1 2FS      0.123500
     42 H14        -1.1720   -8.7520    0.5670 ha        1 2FS      0.123500
     43 H15         5.4160   -8.8810   -1.3620 ha        1 2FS      0.209000
     44 H16         0.7990   -2.4800    1.9890 ha        1 2FS      0.004250
     45 H17         1.2940   -2.7240    1.5910 ha        1 2FS      0.004250
     46 H18         2.3990   -0.7230    2.8830 hc        1 2FS      0.117000
     47 H19         2.5700   -0.7610    4.6850 hc        1 2FS      0.117000
     48 H20         5.1030   -0.6440    4.4340 hc        1 2FS      0.120000
     49 H21         6.1170   -4.1590    2.9740 ha        1 2FS      0.209000
     50 H23         1.9970    0.0440   -1.1880 ho        1 2FS      0.343000
     51 H24         4.5060   -6.9260    0.4930 ha        1 2FS      0.004250
     52 H25         3.6980   -3.0330   -2.8250 h4        1 2FS      0.175000
     53 H26         3.9510   -5.5420   -1.2210 hn        1 2FS      0.255000
     54 H27         0.6840   -7.6200    4.0550 hc        1 2FS      0.109000
     55 H28         2.4790   -7.3870    3.8790 hc        1 2FS      0.109000
     56 C12         2.9960   -3.8630   -0.4230 c2        1 2FS      0.464000
     57 H10         4.2710   -6.4660    0.9330 ha        1 2FS      0.004250
     58 O13         2.7530   -4.5190    0.6080 o         1 2FS     -0.385000
     59 H11         4.8950   -4.2060   -4.5810 ha        1 2FS      0.138000
@<TRIPOS>BOND
     1    1    2 1   
     2    1   19 1   
     3    1   20 1   
     4    2    3 1   
     5    2   31 1   
     6    2   33 1   
     7    3   32 1   
     8    3   34 1   
     9    3   35 1   
    10    4    5 1   
    11    4   16 1   
    12    4   36 1   
    13    4   37 1   
    14    5   16 1   
    15    5   38 1   
    16    5   39 1   
    17    6   21 1   
    18    7   23 1   
    19    7   24 1   
    20    7   59 1   
    21    8    9 1   
    22    8   25 1   
    23    8   40 1   
    24    9   10 1   
    25   10   41 1   
    26   10   42 1   
    27   11   12 1   
    28   11   43 1   
    29   12   24 1   
    30   13   14 1   
    31   13   27 1   
    32   14   15 1   
    33   14   28 1   
    34   15   16 1   
    35   15   46 1   
    36   15   47 1   
    37   16   48 1   
    38   17   18 1   
    39   18   28 1   
    40   18   49 1   
    41   20   50 1   
    42   21   56 1   
    43   22   23 1   
    44   22   53 1   
    45   22   56 1   
    46   23   52 1   
    47   25   26 1   
    48   25   54 1   
    49   25   55 1   
    50   26   27 1   
    51   27   29 1   
    52   28   29 1   
    53   29   30 1   
    54   44   45 1   
    55   51   57 1   
    56   56   58 1   
@<TRIPOS>SUBSTRUCTURE
     1 2FS         1 TEMP              0 ****  ****    0 ROOT
