@<TRIPOS>MOLECULE
2FS
   59    55     1     0     0
SMALL
bcc


@<TRIPOS>ATOM
      1 C2          3.5660   -1.8070    0.4240 c2        1 2FS      0.326000
      2 C4          3.6550   -0.4160   -0.2210 c3        1 2FS     -0.069000
      3 C6          3.1390    0.6410    0.7430 c3        1 2FS     -0.155000
      4 C7          2.8540    1.9580    0.0540 c3        1 2FS     -0.163000
      5 C8          2.3780    3.0010    1.0320 c3        1 2FS     -0.205000
      6 C9          5.5370    0.9870   -1.1520 c1        1 2FS      0.077000
      7 C16         4.0450   -5.5320   -2.6610 c2        1 2FS     -0.213000
      8 C18         0.1970   -6.6130    3.3220 c2        1 2FS      0.216000
      9 C19        -0.2180   -7.7010    3.9540 c1        1 2FS     -0.581000
     10 C20        -0.6100   -8.7560    4.5420 c1        1 2FS      0.136000
     11 C21         2.7400   -8.5590   -4.9610 c3        1 2FS     -0.088000
     12 C22         3.1940   -7.4880   -4.1420 c1        1 2FS     -0.229000
     13 C27         2.2380   -3.4590    5.7770 c1        1 2FS      0.165000
     14 C28         3.6130   -3.0530    5.3510 c2        1 2FS     -0.281000
     15 C29         4.4680   -2.2410    6.2300 c3        1 2FS     -0.182000
     16 C30         4.6010   -2.6450    7.6120 c1        1 2FS     -0.053000
     17 C31         6.2280   -2.9910    3.4130 c1        1 2FS      0.217000
     18 C32         4.9670   -3.3000    3.2130 c2        1 2FS     -0.481000
     19 O1          2.5260   -2.1280    1.0700 o         1 2FS     -0.590500
     20 O3          4.5240   -2.6350    0.2790 o         1 2FS     -0.590500
     21 C10         5.0370   -0.1270   -0.6920 c2        1 2FS     -0.447000
     22 N14         2.1970   -5.4790   -1.0840 n         1 2FS     -0.336000
     23 C15         3.4090   -5.0250   -1.5720 c2        1 2FS      0.028000
     24 C17         3.5770   -6.5840   -3.4500 c1        1 2FS     -0.083000
     25 C23        -0.2990   -5.2470    3.6100 c3        1 2FS     -0.271000
     26 C25         0.3830   -4.5570    4.7430 c1        1 2FS      0.079000
     27 N26         1.6680   -4.1810    4.7230 n         1 2FS     -0.229000
     28 C33         3.8730   -3.5050    4.0870 c2        1 2FS      0.068000
     29 C34         2.6700   -4.3210    3.6430 c2        1 2FS      0.245000
     30 O35         2.5500   -5.0110    2.6390 o         1 2FS     -0.236000
     31 H1          2.1260   -4.0550    0.5130 h5        1 2FS      0.229000
     32 H2          3.8880    0.7980    1.5620 hc        1 2FS      0.096500
     33 H3          2.9770   -0.4480   -1.1220 hc        1 2FS      0.097000
     34 H4          2.1990    0.2490    1.2170 hc        1 2FS      0.096500
     35 H5          2.0770    1.8050   -0.7400 hc        1 2FS      0.076500
     36 H6          2.1630    3.9620    0.5050 hc        1 2FS      0.066000
     37 H7          3.7840    2.3270   -0.4610 hc        1 2FS      0.076500
     38 H8          3.1540    3.1920    1.8130 hc        1 2FS      0.066000
     39 H9          1.4440    2.6620    1.5440 hc        1 2FS      0.066000
     40 H12         0.9510   -6.6740    2.5050 ha        1 2FS      0.163000
     41 H13         2.5870   -9.4870   -4.3510 hc        1 2FS      0.080333
     42 H14         1.7660   -8.2980   -5.4520 hc        1 2FS      0.080333
     43 H15         3.4880   -8.7860   -5.7650 hc        1 2FS      0.080333
     44 H16        -0.3410   -2.7960    1.3740 ha        1 2FS      0.004000
     45 H17         0.2930   -2.8770    1.1460 ha        1 2FS      0.004000
     46 H18         4.0600   -1.1800    6.2710 hc        1 2FS      0.156500
     47 H19         5.5080   -2.1480    5.7920 hc        1 2FS      0.156500
     48 H20         3.9950   -3.5040    7.9420 ha        1 2FS      0.051000
     49 H21         4.6840   -3.3610    2.0980 ha        1 2FS      0.308000
     50 H23         5.6980   -1.0300   -0.6300 ha        1 2FS      0.229000
     51 H24         6.6540   -2.3860    1.1080 ha        1 2FS      0.004000
     52 H25         3.8630   -4.1790   -0.9970 h4        1 2FS      0.214000
     53 H26         1.7570   -6.2460   -1.5450 hn        1 2FS      0.221000
     54 H27        -0.2120   -4.6290    2.6610 hc        1 2FS      0.152000
     55 H28        -1.3870   -5.2890    3.8990 hc        1 2FS      0.152000
     56 C12         1.5920   -4.9230    0.0370 c2        1 2FS      0.258000
     57 H10         7.2360   -2.6600    1.3300 ha        1 2FS      0.004000
     58 O13         0.5200   -5.4030    0.4500 o         1 2FS     -0.410000
     59 H11         5.0100   -5.0900   -2.9600 ha        1 2FS      0.149000
@<TRIPOS>BOND
     1    1    2 1   
     2    1   19 1   
     3    1   20 1   
     4    2    3 1   
     5    2   21 1   
     6    2   33 1   
     7    3    4 1   
     8    3   32 1   
     9    3   34 1   
    10    4    5 1   
    11    4   35 1   
    12    4   37 1   
    13    5   36 1   
    14    5   38 1   
    15    5   39 1   
    16    6   21 1   
    17    7   23 1   
    18    7   24 1   
    19    7   59 1   
    20    8    9 1   
    21    8   25 1   
    22    8   40 1   
    23    9   10 1   
    24   11   12 1   
    25   11   41 1   
    26   11   42 1   
    27   11   43 1   
    28   12   24 1   
    29   13   14 1   
    30   13   27 1   
    31   14   15 1   
    32   14   28 1   
    33   15   16 1   
    34   15   46 1   
    35   15   47 1   
    36   16   48 1   
    37   17   18 1   
    38   18   28 1   
    39   18   49 1   
    40   21   50 1   
    41   22   23 1   
    42   22   53 1   
    43   22   56 1   
    44   23   52 1   
    45   25   26 1   
    46   25   54 1   
    47   25   55 1   
    48   26   27 1   
    49   27   29 1   
    50   28   29 1   
    51   29   30 1   
    52   31   56 1   
    53   44   45 1   
    54   51   57 1   
    55   56   58 1   
@<TRIPOS>SUBSTRUCTURE
     1 2FS         1 TEMP              0 ****  ****    0 ROOT
