@<TRIPOS>MOLECULE
2FS
   59    58     1     0     0
SMALL
bcc


@<TRIPOS>ATOM
      1 C2          2.4350   -1.4590   -0.2840 c2        1 2FS      0.343000
      2 C4          2.4970    0.0620   -0.4790 c3        1 2FS     -0.074000
      3 C6          2.5350    0.7950    0.8420 c3        1 2FS     -0.205000
      4 C7          6.0000    1.8190    1.8330 c2        1 2FS     -0.227000
      5 C8          5.8740    0.8410    2.7200 c2        1 2FS     -0.227000
      6 C9          4.4180    1.4710   -1.2990 c1        1 2FS      0.085000
      7 C16         1.8230   -5.8700   -3.4090 c2        1 2FS     -0.260000
      8 C18         1.5040   -7.9070   -2.1170 c2        1 2FS     -0.179000
      9 C19         1.2440   -9.3680   -2.2570 c3        1 2FS     -0.109000
     10 C20         1.1590   -9.5970   -3.7810 c3        1 2FS     -0.078000
     11 C21         1.3810   -7.9970   -5.7160 c1        1 2FS      0.187000
     12 C22         1.3770   -8.2400   -4.4200 c2        1 2FS     -0.371000
     13 C27         2.8600   -2.0900    3.6850 c2        1 2FS     -0.005000
     14 C28         3.2220   -1.7940    4.9950 c2        1 2FS     -0.196000
     15 C29         3.5580   -0.4050    5.3960 c3        1 2FS     -0.195000
     16 C30         2.4850    0.4770    5.7950 c1        1 2FS     -0.066000
     17 C31         3.4220   -4.4150    7.6110 c1        1 2FS     -0.030000
     18 C32         3.5760   -3.0170    7.2880 c2        1 2FS     -0.410000
     19 O1          2.1170   -1.9340    0.8510 o         1 2FS     -0.605000
     20 O3          2.6710   -2.2240   -1.2660 o         1 2FS     -0.605000
     21 C10         3.6480    0.4180   -1.3530 c2        1 2FS     -0.438000
     22 N14         1.9070   -5.7610   -0.9840 n         1 2FS     -0.287000
     23 C15         1.9770   -5.1740   -2.2450 c2        1 2FS      0.033000
     24 C17         1.5780   -7.2800   -3.3290 c2        1 2FS      0.037000
     25 C23         1.6690   -7.1910   -0.8300 c3        1 2FS      0.033000
     26 C25         2.5770   -4.4260    4.1270 c2        1 2FS      0.005000
     27 N26         2.5460   -3.3550    3.2660 na        1 2FS     -0.136000
     28 C33         3.2710   -2.8540    5.9330 c2        1 2FS      0.037000
     29 C34         2.9280   -4.1860    5.4300 c2        1 2FS     -0.135000
     30 O35         3.0380   -5.0920    6.4970 os        1 2FS     -0.097000
     31 H1          2.2380   -3.8740   -0.0240 h5        1 2FS      0.249000
     32 H2          3.4980    0.5970    1.3740 hc        1 2FS      0.073333
     33 H3          1.5510    0.3430   -1.0280 hc        1 2FS      0.097000
     34 H4          1.6990    0.4360    1.4910 hc        1 2FS      0.073333
     35 H5          2.4330    1.8960    0.6860 hc        1 2FS      0.073333
     36 H6          6.4920    2.7720    2.0690 ha        1 2FS      0.113250
     37 H7          5.6170    1.7430    0.8020 ha        1 2FS      0.113250
     38 H8          5.3830   -0.1140    2.4830 ha        1 2FS      0.113250
     39 H9          6.2540    0.9170    3.7490 ha        1 2FS      0.113250
     40 H12         0.2890   -9.6600   -1.7540 hc        1 2FS      0.089500
     41 H13         2.0720   -9.9720   -1.8080 hc        1 2FS      0.089500
     42 H14         0.1570  -10.0020   -4.0650 hc        1 2FS      0.087000
     43 H15         1.9460  -10.3150   -4.1190 hc        1 2FS      0.087000
     44 H16         2.2910   -3.4960    2.2960 hn        1 2FS      0.313000
     45 H17         2.8000   -1.3150    2.8860 h4        1 2FS      0.206000
     46 H18         4.1210    0.1210    4.5640 hc        1 2FS      0.155000
     47 H19         4.2720   -0.4330    6.2780 hc        1 2FS      0.155000
     48 H20         1.4630    0.0670    5.7820 ha        1 2FS      0.043000
     49 H21         3.8750   -2.2470    7.9890 ha        1 2FS      0.143000
     50 H23         3.8380   -0.3670   -2.1250 ha        1 2FS      0.221000
     51 H24         6.7600    0.9390    6.1500 ha        1 2FS      0.000500
     52 H25         2.1740   -4.0750   -2.2390 h4        1 2FS      0.216000
     53 H26         0.7450   -7.3310   -0.1920 h1        1 2FS      0.088000
     54 H27         2.3210   -5.4150    3.7070 h4        1 2FS      0.196000
     55 H28         2.5330   -7.6360   -0.2520 h1        1 2FS      0.088000
     56 C12         2.0680   -4.9760    0.1610 c2        1 2FS      0.246000
     57 H10         6.1340    0.7250    6.0020 ha        1 2FS      0.000500
     58 O13         2.0170   -5.4960    1.2920 o         1 2FS     -0.413000
     59 H11         1.8870   -5.3690   -4.3810 ha        1 2FS      0.146000
@<TRIPOS>BOND
     1    1    2 1   
     2    1   19 1   
     3    1   20 1   
     4    2    3 1   
     5    2   21 1   
     6    2   33 1   
     7    3   32 1   
     8    3   34 1   
     9    3   35 1   
    10    4    5 1   
    11    4   36 1   
    12    4   37 1   
    13    5   38 1   
    14    5   39 1   
    15    6   21 1   
    16    7   23 1   
    17    7   24 1   
    18    7   59 1   
    19    8    9 1   
    20    8   24 1   
    21    8   25 1   
    22    9   10 1   
    23    9   40 1   
    24    9   41 1   
    25   10   12 1   
    26   10   42 1   
    27   10   43 1   
    28   11   12 1   
    29   12   24 1   
    30   13   14 1   
    31   13   27 1   
    32   13   45 1   
    33   14   15 1   
    34   14   28 1   
    35   15   16 1   
    36   15   46 1   
    37   15   47 1   
    38   16   48 1   
    39   17   18 1   
    40   17   30 1   
    41   18   28 1   
    42   18   49 1   
    43   21   50 1   
    44   22   23 1   
    45   22   25 1   
    46   22   56 1   
    47   23   52 1   
    48   25   53 1   
    49   25   55 1   
    50   26   27 1   
    51   26   29 1   
    52   26   54 1   
    53   27   44 1   
    54   28   29 1   
    55   29   30 1   
    56   31   56 1   
    57   51   57 1   
    58   56   58 1   
@<TRIPOS>SUBSTRUCTURE
     1 2FS         1 TEMP              0 ****  ****    0 ROOT
