@<TRIPOS>MOLECULE
2FT
   15    14     1     0     0
SMALL
bcc


@<TRIPOS>ATOM
      1 O01        -2.8700   -1.0000    1.3070 o         1 2FT     -0.874300
      2 C02        -1.6300   -1.0880    1.5040 c         1 2FT      0.906600
      3 O03        -1.1810   -1.1480    2.6790 o         1 2FT     -0.874300
      4 C04        -0.6780   -1.1210    0.3290 c3        1 2FT     -0.182400
      5 C05        -0.2760    0.2910   -0.0360 c3        1 2FT     -0.090400
      6 C06         1.1010    0.2780   -0.6610 c3        1 2FT      0.255600
      7 F07         1.1200   -0.5880   -1.6820 f         1 2FT     -0.283300
      8 F08         2.0040   -0.0930    0.2560 f         1 2FT     -0.283300
      9 C09         1.4380    1.6630   -1.1680 c         1 2FT      0.907600
     10 O10         2.1730    2.4230   -0.4840 o         1 2FT     -0.826800
     11 O11         0.9830    2.0570   -2.2740 o         1 2FT     -0.826800
     12 H04         0.1190   -1.6350    0.5690 hc        1 2FT      0.023200
     13 H04A       -1.1190   -1.5430   -0.4360 hc        1 2FT      0.023200
     14 H05        -0.9200    0.6580   -0.6740 hc        1 2FT      0.062700
     15 H05A       -0.2640    0.8450    0.7700 hc        1 2FT      0.062700
@<TRIPOS>BOND
     1    1    2 1   
     2    2    3 1   
     3    2    4 1   
     4    4    5 1   
     5    4   12 1   
     6    4   13 1   
     7    5    6 1   
     8    5   14 1   
     9    5   15 1   
    10    6    7 1   
    11    6    8 1   
    12    6    9 1   
    13    9   10 1   
    14    9   11 1   
@<TRIPOS>SUBSTRUCTURE
     1 2FT         1 TEMP              0 ****  ****    0 ROOT
