@<TRIPOS>MOLECULE
2FT
   15    14     1     0     0
SMALL
bcc


@<TRIPOS>ATOM
      1 O01         0.2830   -0.5350    0.2090 o         1 2FT     -0.874300
      2 C02         1.2850    0.2260    0.0260 c         1 2FT      0.906600
      3 O03         1.6000    1.1340    0.8520 o         1 2FT     -0.874300
      4 C04         2.0880    0.0570   -1.2680 c3        1 2FT     -0.182400
      5 C05         3.5800   -0.0030   -1.0510 c3        1 2FT     -0.090400
      6 C06         4.3880   -0.0620   -2.3720 c3        1 2FT      0.255600
      7 F07         3.9520   -1.0830   -3.2040 f         1 2FT     -0.283300
      8 F08         4.1380    1.0340   -3.1820 f         1 2FT     -0.283300
      9 C09         5.9330   -0.2130   -2.0440 c         1 2FT      0.907600
     10 O10         6.3320   -1.3490   -1.6760 o         1 2FT     -0.826800
     11 O11         6.6600    0.8060   -2.1720 o         1 2FT     -0.826800
     12 H04         1.7480   -0.8730   -1.7910 hc        1 2FT      0.023200
     13 H04A        1.8490    0.9270   -1.9320 hc        1 2FT      0.023200
     14 H05         3.9160    0.9010   -0.4830 hc        1 2FT      0.062700
     15 H05A        3.8540   -0.9130   -0.4610 hc        1 2FT      0.062700
@<TRIPOS>BOND
     1    1    2 1   
     2    2    3 1   
     3    2    4 1   
     4    4    5 1   
     5    4   12 1   
     6    4   13 1   
     7    5    6 1   
     8    5   14 1   
     9    5   15 1   
    10    6    7 1   
    11    6    8 1   
    12    6    9 1   
    13    9   10 1   
    14    9   11 1   
@<TRIPOS>SUBSTRUCTURE
     1 2FT         1 TEMP              0 ****  ****    0 ROOT
