@<TRIPOS>MOLECULE
2FT
   15    14     1     0     0
SMALL
bcc


@<TRIPOS>ATOM
      1 O01         3.7820   -0.0370   -0.6280 o         1 2FT     -0.874300
      2 C02         2.8330    0.1770    0.1890 c         1 2FT      0.906600
      3 O03         2.9710    0.9290    1.2000 o         1 2FT     -0.874300
      4 C04         1.5050   -0.5520   -0.0450 c3        1 2FT     -0.182400
      5 C05         0.2970    0.3470    0.0380 c3        1 2FT     -0.090400
      6 C06        -1.0450   -0.4170   -0.0900 c3        1 2FT      0.255600
      7 F07        -1.0810   -1.2190   -1.2220 f         1 2FT     -0.283300
      8 F08        -1.1880   -1.3820    0.8950 f         1 2FT     -0.283300
      9 C09        -2.2480    0.6160   -0.0830 c         1 2FT      0.907600
     10 O10        -2.4490    1.2700   -1.1400 o         1 2FT     -0.826800
     11 O11        -2.9250    0.7180    0.9730 o         1 2FT     -0.826800
     12 H04         1.5340   -1.0510   -1.0470 hc        1 2FT      0.023200
     13 H04A        1.4180   -1.3560    0.7320 hc        1 2FT      0.023200
     14 H05         0.2940    0.8860    1.0190 hc        1 2FT      0.062700
     15 H05A        0.3180    1.1070   -0.7840 hc        1 2FT      0.062700
@<TRIPOS>BOND
     1    1    2 1   
     2    2    3 1   
     3    2    4 1   
     4    4    5 1   
     5    4   12 1   
     6    4   13 1   
     7    5    6 1   
     8    5   14 1   
     9    5   15 1   
    10    6    7 1   
    11    6    8 1   
    12    6    9 1   
    13    9   10 1   
    14    9   11 1   
@<TRIPOS>SUBSTRUCTURE
     1 2FT         1 TEMP              0 ****  ****    0 ROOT
