@<TRIPOS>MOLECULE
2FT
   15    14     1     0     0
SMALL
bcc


@<TRIPOS>ATOM
      1 O01         0.3320   -0.6560    0.2580 o         1 2FT     -0.874300
      2 C02         1.2880    0.1520    0.0410 c         1 2FT      0.906600
      3 O03         1.5610    1.1010    0.8360 o         1 2FT     -0.874300
      4 C04         2.0880   -0.0120   -1.2550 c3        1 2FT     -0.182400
      5 C05         3.5830    0.0140   -1.0530 c3        1 2FT     -0.090400
      6 C06         4.3810   -0.0410   -2.3800 c3        1 2FT      0.255600
      7 F07         3.9930   -1.1090   -3.1760 f         1 2FT     -0.283300
      8 F08         4.0660    1.0160   -3.2190 f         1 2FT     -0.283300
      9 C09         5.9350   -0.1000   -2.0630 c         1 2FT      0.907600
     10 O10         6.3980   -1.2020   -1.6670 o         1 2FT     -0.826800
     11 O11         6.6050    0.9520   -2.2280 o         1 2FT     -0.826800
     12 H04         1.7940   -0.9740   -1.7470 hc        1 2FT      0.023200
     13 H04A        1.7970    0.8240   -1.9420 hc        1 2FT      0.023200
     14 H05         3.8750    0.9520   -0.5150 hc        1 2FT      0.062700
     15 H05A        3.9100   -0.8630   -0.4390 hc        1 2FT      0.062700
@<TRIPOS>BOND
     1    1    2 1   
     2    2    3 1   
     3    2    4 1   
     4    4    5 1   
     5    4   12 1   
     6    4   13 1   
     7    5    6 1   
     8    5   14 1   
     9    5   15 1   
    10    6    7 1   
    11    6    8 1   
    12    6    9 1   
    13    9   10 1   
    14    9   11 1   
@<TRIPOS>SUBSTRUCTURE
     1 2FT         1 TEMP              0 ****  ****    0 ROOT
