@<TRIPOS>MOLECULE
2FU
   10     9     1     0     0
SMALL
bcc


@<TRIPOS>ATOM
      1 C1          0.3250    0.0000   -0.5850 ce        1 2FU     -0.205200
      2 O3          0.2110    0.0000   -2.9550 o         1 2FU     -0.504100
      3 C2         -0.3850    0.0010   -1.8770 c         1 2FU      0.551100
      4 C7          0.3850   -0.0000    1.8770 c         1 2FU      0.551100
      5 C5         -0.3250    0.0010    0.5850 cf        1 2FU     -0.205200
      6 O8         -0.2110    0.0000    2.9550 o         1 2FU     -0.504100
      7 H1          1.4270   -0.0010   -0.6460 ha        1 2FU      0.152000
      8 H2         -1.4970    0.0020   -1.8220 h4        1 2FU      0.006200
      9 H7          1.4970   -0.0010    1.8220 h4        1 2FU      0.006200
     10 H5         -1.4270    0.0010    0.6460 ha        1 2FU      0.152000
@<TRIPOS>BOND
     1    1    3 1   
     2    1    5 2   
     3    1    7 1   
     4    2    3 2   
     5    3    8 1   
     6    4    5 1   
     7    4    6 2   
     8    4    9 1   
     9    5   10 1   
@<TRIPOS>SUBSTRUCTURE
     1 2FU         1 TEMP              0 ****  ****    0 ROOT
