@<TRIPOS>MOLECULE
2FU
   10     9     1     0     0
SMALL
bcc


@<TRIPOS>ATOM
      1 C1          0.0700    0.2500    0.1150 ce        1 2FU     -0.205200
      2 O3          2.2470    0.3340   -0.8270 o         1 2FU     -0.504100
      3 C2          1.4940   -0.1250    0.0340 c         1 2FU      0.551100
      4 C7         -2.1690    0.1250    1.1320 c         1 2FU      0.551100
      5 C5         -0.7450   -0.2500    1.0510 cf        1 2FU     -0.205200
      6 O8         -2.9220   -0.3340    1.9920 o         1 2FU     -0.504100
      7 H1         -0.2790    0.9690   -0.6470 ha        1 2FU      0.152000
      8 H2          1.8520   -0.8490    0.8000 h4        1 2FU      0.006200
      9 H7         -2.5270    0.8490    0.3660 h4        1 2FU      0.006200
     10 H5         -0.3960   -0.9690    1.8130 ha        1 2FU      0.152000
@<TRIPOS>BOND
     1    1    3 1   
     2    1    5 2   
     3    1    7 1   
     4    2    3 2   
     5    3    8 1   
     6    4    5 1   
     7    4    6 2   
     8    4    9 1   
     9    5   10 1   
@<TRIPOS>SUBSTRUCTURE
     1 2FU         1 TEMP              0 ****  ****    0 ROOT
