@<TRIPOS>MOLECULE
2FU
   10     7     1     0     0
SMALL
bcc


@<TRIPOS>ATOM
      1 C1         -0.3590    0.0420   -0.9850 c1        1 2FU     -0.183500
      2 O3          1.7620   -1.0120   -0.9630 o         1 2FU     -0.261000
      3 C2          1.1540    0.0420   -0.9850 c1        1 2FU      0.196000
      4 C7         -0.2760    0.0420    1.4920 c1        1 2FU      0.196000
      5 C5         -1.0330    0.0420    0.1820 c1        1 2FU     -0.183500
      6 O8          0.0470   -1.0120    2.0080 o         1 2FU     -0.261000
      7 H1         -0.8470    0.0420   -1.8310 ha        1 2FU      0.155000
      8 H2          1.6410    0.8860   -1.0400 ha        1 2FU      0.094000
      9 H7         -0.0800    0.8860    1.9420 ha        1 2FU      0.094000
     10 H5         -2.0090    0.0420    0.1820 ha        1 2FU      0.155000
@<TRIPOS>BOND
     1    1    5 1   
     2    1    7 1   
     3    2    3 1   
     4    3    8 1   
     5    4    6 1   
     6    4    9 1   
     7    5   10 1   
@<TRIPOS>SUBSTRUCTURE
     1 2FU         1 TEMP              0 ****  ****    0 ROOT
