@<TRIPOS>MOLECULE
2FX
   20    15     1     0     0
SMALL
bcc


@<TRIPOS>ATOM
      1 O1         -3.3730    2.1650    1.7740 o         1 2FX     -0.526000
      2 C2         -2.2180    2.6160    1.5580 c2        1 2FX      0.322000
      3 O3         -1.5520    3.1190    2.5000 o         1 2FX     -0.526000
      4 C4         -0.7690    1.3400    0.0160 c1        1 2FX     -0.332000
      5 C5          0.3770    1.1440   -0.8430 c1        1 2FX     -0.202000
      6 C6          0.8730   -0.3760   -0.6850 c1        1 2FX     -0.069000
      7 C7          1.9150   -1.0720   -1.2760 c1        1 2FX     -0.133000
      8 C8          2.1300   -2.4170   -0.9550 c1        1 2FX     -0.133000
      9 C9          1.2860   -3.0670   -0.0280 c1        1 2FX     -0.133000
     10 C10         0.2320   -2.3670    0.5700 c1        1 2FX     -0.133000
     11 C11         0.0170   -1.0350    0.2540 c1        1 2FX     -0.448000
     12 S12        -1.0530    0.0030    0.7410 s         1 2FX      0.760000
     13 C13        -1.6370    2.5700    0.1610 c2        1 2FX     -0.176000
     14 H5          0.7800    1.8200   -1.4210 DU        1 2FX      0.125000
     15 H7          2.4990   -0.6230   -1.9170 ha        1 2FX      0.104250
     16 H8          2.8650   -2.9060   -1.3710 ha        1 2FX      0.104250
     17 H9          1.4370   -4.0050    0.1950 ha        1 2FX      0.104250
     18 H10        -0.3490   -2.8160    1.2140 ha        1 2FX      0.104250
     19 H13        -2.3640    2.5350   -0.4930 ha        1 2FX      0.093000
     20 H13A       -1.0970    3.3710    0.0060 ha        1 2FX      0.093000
@<TRIPOS>BOND
     1    1    2 1   
     2    2    3 1   
     3    2   13 1   
     4    4    5 1   
     5    4   12 1   
     6    5    6 1   
     7    6   11 1   
     8    7    8 1   
     9    7   15 1   
    10    8   16 1   
    11    9   10 1   
    12    9   17 1   
    13   10   18 1   
    14   13   19 1   
    15   13   20 1   
@<TRIPOS>SUBSTRUCTURE
     1 2FX         1 TEMP              0 ****  ****    0 ROOT
