@<TRIPOS>MOLECULE
2FX
   20    21     1     0     0
SMALL
bcc


@<TRIPOS>ATOM
      1 O1         -2.9250   -1.8720   -0.2480 o         1 2FX     -0.832800
      2 C2         -3.1610   -0.6530   -0.0230 c         1 2FX      0.924600
      3 O3         -4.0960   -0.2220    0.7040 o         1 2FX     -0.832800
      4 C4         -0.8440    0.2470   -0.4760 cc        1 2FX      0.032400
      5 C5         -0.1510   -0.9260   -0.3640 cd        1 2FX     -0.155200
      6 C6          1.2570   -0.7170   -0.1430 ca        1 2FX     -0.058800
      7 C7          2.2670   -1.6740    0.0170 ca        1 2FX     -0.099000
      8 C8          3.5730   -1.2580    0.2200 ca        1 2FX     -0.152000
      9 C9          3.8900    0.1110    0.2700 ca        1 2FX     -0.153000
     10 C10         2.9030    1.0720    0.1160 ca        1 2FX     -0.099000
     11 C11         1.5810    0.6710   -0.0920 ca        1 2FX     -0.075100
     12 S12         0.1930    1.6110   -0.3060 ss        1 2FX     -0.101500
     13 C13        -2.2760    0.4140   -0.7260 c3        1 2FX     -0.166200
     14 H5         -0.6350   -1.9110   -0.4080 ha        1 2FX      0.204000
     15 H7          2.0110   -2.7430   -0.0180 ha        1 2FX      0.131000
     16 H8          4.3740   -1.9990    0.3480 ha        1 2FX      0.112000
     17 H9          4.9330    0.4170    0.4330 ha        1 2FX      0.111000
     18 H10         3.1540    2.1420    0.1590 ha        1 2FX      0.120000
     19 H13        -2.4730    0.3170   -1.8280 hc        1 2FX      0.045200
     20 H13A       -2.6180    1.4290   -0.3980 hc        1 2FX      0.045200
@<TRIPOS>BOND
     1    1    2 1   
     2    2    3 1   
     3    2   13 1   
     4    4    5 2   
     5    4   12 1   
     6    4   13 1   
     7    5    6 1   
     8    5   14 1   
     9    6    7 ar  
    10    6   11 ar  
    11    7    8 ar  
    12    7   15 1   
    13    8    9 ar  
    14    8   16 1   
    15    9   10 ar  
    16    9   17 1   
    17   10   11 ar  
    18   10   18 1   
    19   11   12 1   
    20   13   19 1   
    21   13   20 1   
@<TRIPOS>SUBSTRUCTURE
     1 2FX         1 TEMP              0 ****  ****    0 ROOT
