@<TRIPOS>MOLECULE
2FX
   20    21     1     0     0
SMALL
bcc


@<TRIPOS>ATOM
      1 O1          1.4090   -1.6630   -0.3130 o         1 2FX     -0.832800
      2 C2          1.2740   -0.4100   -0.2390 c         1 2FX      0.924600
      3 O3          0.4080    0.1820    0.4600 o         1 2FX     -0.832800
      4 C4          3.6270    0.2410   -0.8920 cc        1 2FX      0.032400
      5 C5          4.2370   -0.9590   -0.6550 cd        1 2FX     -0.155200
      6 C6          5.6650   -0.8350   -0.5170 ca        1 2FX     -0.058800
      7 C7          6.6090   -1.8410   -0.2720 ca        1 2FX     -0.099000
      8 C8          7.9500   -1.5060   -0.1740 ca        1 2FX     -0.152000
      9 C9          8.3680   -0.1720   -0.3150 ca        1 2FX     -0.153000
     10 C10         7.4470    0.8380   -0.5540 ca        1 2FX     -0.099000
     11 C11         6.0910    0.5180   -0.6580 ca        1 2FX     -0.075100
     12 S12         4.7670    1.5300   -0.9400 ss        1 2FX     -0.101500
     13 C13         2.2000    0.4860   -1.1070 c3        1 2FX     -0.166200
     14 H5          3.6800   -1.9010   -0.5530 ha        1 2FX      0.204000
     15 H7          6.2740   -2.8820   -0.1590 ha        1 2FX      0.131000
     16 H8          8.7000   -2.2860    0.0180 ha        1 2FX      0.112000
     17 H9          9.4370    0.0700   -0.2320 ha        1 2FX      0.111000
     18 H10         7.7770    1.8810   -0.6600 ha        1 2FX      0.120000
     19 H13         1.9490    1.5590   -0.9010 hc        1 2FX      0.045200
     20 H13A        1.9450    0.2670   -2.1790 hc        1 2FX      0.045200
@<TRIPOS>BOND
     1    1    2 1   
     2    2    3 1   
     3    2   13 1   
     4    4    5 2   
     5    4   12 1   
     6    4   13 1   
     7    5    6 1   
     8    5   14 1   
     9    6    7 ar  
    10    6   11 ar  
    11    7    8 ar  
    12    7   15 1   
    13    8    9 ar  
    14    8   16 1   
    15    9   10 ar  
    16    9   17 1   
    17   10   11 ar  
    18   10   18 1   
    19   11   12 1   
    20   13   19 1   
    21   13   20 1   
@<TRIPOS>SUBSTRUCTURE
     1 2FX         1 TEMP              0 ****  ****    0 ROOT
