@<TRIPOS>MOLECULE
2FX
   20    21     1     0     0
SMALL
bcc


@<TRIPOS>ATOM
      1 O1          1.3170   -1.4000   -0.4420 o         1 2FX     -0.832800
      2 C2          1.2810   -0.1610   -0.2030 c         1 2FX      0.924600
      3 O3          0.4660    0.3990    0.5780 o         1 2FX     -0.832800
      4 C4          3.6760    0.3860   -0.7960 cc        1 2FX      0.032400
      5 C5          4.1910   -0.8790   -0.7250 cd        1 2FX     -0.155200
      6 C6          5.6240   -0.8850   -0.5890 ca        1 2FX     -0.058800
      7 C7          6.4870   -1.9840   -0.4910 ca        1 2FX     -0.099000
      8 C8          7.8510   -1.7700   -0.3660 ca        1 2FX     -0.152000
      9 C9          8.3710   -0.4650   -0.3370 ca        1 2FX     -0.153000
     10 C10         7.5320    0.6350   -0.4310 ca        1 2FX     -0.099000
     11 C11         6.1550    0.4380   -0.5590 ca        1 2FX     -0.075100
     12 S12         4.9140    1.5770   -0.6890 ss        1 2FX     -0.101500
     13 C13         2.2730    0.7670   -0.9590 c3        1 2FX     -0.166200
     14 H5          3.5620   -1.7800   -0.7400 ha        1 2FX      0.204000
     15 H7          6.0720   -3.0020   -0.5100 ha        1 2FX      0.131000
     16 H8          8.5370   -2.6240   -0.2870 ha        1 2FX      0.112000
     17 H9          9.4560   -0.3200   -0.2360 ha        1 2FX      0.111000
     18 H10         7.9430    1.6540   -0.4040 ha        1 2FX      0.120000
     19 H13         2.1070    1.8190   -0.6110 hc        1 2FX      0.045200
     20 H13A        1.9980    0.7110   -2.0470 hc        1 2FX      0.045200
@<TRIPOS>BOND
     1    1    2 1   
     2    2    3 1   
     3    2   13 1   
     4    4    5 2   
     5    4   12 1   
     6    4   13 1   
     7    5    6 1   
     8    5   14 1   
     9    6    7 ar  
    10    6   11 ar  
    11    7    8 ar  
    12    7   15 1   
    13    8    9 ar  
    14    8   16 1   
    15    9   10 ar  
    16    9   17 1   
    17   10   11 ar  
    18   10   18 1   
    19   11   12 1   
    20   13   19 1   
    21   13   20 1   
@<TRIPOS>SUBSTRUCTURE
     1 2FX         1 TEMP              0 ****  ****    0 ROOT
