@<TRIPOS>MOLECULE
2FY
   22    20     1     0     0
SMALL
bcc


@<TRIPOS>ATOM
      1 C5          0.2030   -0.4710   -0.6800 c2        1 2FY     -0.196000
      2 C4          1.5190   -0.4600   -0.3700 c1        1 2FY      0.138000
      3 C3          1.9290    0.4240    1.7970 c2        1 2FY      0.049000
      4 C2          0.9090   -0.4310    2.0410 c2        1 2FY     -0.232000
      5 C1         -0.4620   -0.1810    1.6380 c2        1 2FY     -0.072000
      6 C7         -4.2660    0.1000    2.9000 c2        1 2FY     -0.225500
      7 O1         -2.5820    0.2980   -1.2040 o         1 2FY     -0.294000
      8 O2          3.1700    0.1090    2.2920 oh        1 2FY     -0.251000
      9 C9         -3.2990    0.1550    3.8060 c2        1 2FY     -0.225500
     10 C10        -0.8200   -0.2060    0.3340 c2        1 2FY     -0.162000
     11 O8         -0.1730   -0.8440   -1.9600 oh        1 2FY     -0.245000
     12 H1         -1.1980   -0.0130    2.4440 ha        1 2FY      0.152000
     13 H2          1.0850   -1.3670    2.5980 ha        1 2FY      0.169000
     14 H4          1.8280    1.3950    1.2820 h4        1 2FY      0.142000
     15 HA          3.8220    0.6070    1.7770 ho        1 2FY      0.230000
     16 H8         -0.8380   -0.2020   -2.2620 ho        1 2FY      0.236000
     17 H91C       -2.9540   -0.0160    0.7860 h4        1 2FY      0.106000
     18 H92C       -2.8670   -0.7440    4.2690 ha        1 2FY      0.113500
     19 H71C       -2.8730    1.1020    4.1640 ha        1 2FY      0.113500
     20 H72C       -4.7000   -0.8470    2.5510 ha        1 2FY      0.113500
     21 H73C       -4.7070    0.9990    2.4460 ha        1 2FY      0.113500
     22 C6         -2.2200    0.0390   -0.0540 c2        1 2FY      0.225000
@<TRIPOS>BOND
     1    1    2 1   
     2    1   10 1   
     3    1   11 1   
     4    3    4 1   
     5    3    8 1   
     6    3   14 1   
     7    4    5 1   
     8    4   13 1   
     9    5   10 1   
    10    5   12 1   
    11    6    9 1   
    12    6   20 1   
    13    6   21 1   
    14    7   22 1   
    15    8   15 1   
    16    9   18 1   
    17    9   19 1   
    18   10   22 1   
    19   11   16 1   
    20   17   22 1   
@<TRIPOS>SUBSTRUCTURE
     1 2FY         1 TEMP              0 ****  ****    0 ROOT
