@<TRIPOS>MOLECULE
2FY
   22    18     1     0     0
SMALL
bcc


@<TRIPOS>ATOM
      1 C5          0.8340    0.0680   -1.4050 c1        1 2FY      0.145000
      2 C4          2.2190    0.0110   -1.4060 c1        1 2FY     -0.252500
      3 C3          2.9120   -0.0340   -0.2070 c1        1 2FY      0.145000
      4 C2          2.2200   -0.0230    0.9940 c1        1 2FY     -0.252500
      5 C1          0.8350    0.0340    0.9950 c1        1 2FY     -0.039000
      6 C6         -1.3710    0.1050   -0.2040 c1        1 2FY      0.284000
      7 C7         -3.5900   -0.1410    0.8520 c3        1 2FY     -0.207000
      8 O1         -1.9780    0.1150   -1.2560 o         1 2FY     -0.270000
      9 O2          4.3190   -0.0660   -0.2070 oh        1 2FY     -0.240000
     10 C9         -2.1260    0.1400    1.1060 c2        1 2FY     -0.204000
     11 C10         0.1420    0.0800   -0.2050 c1        1 2FY     -0.208000
     12 O8          0.1330    0.1420   -2.6230 oh        1 2FY     -0.240000
     13 H1          0.3470    0.0420    1.8410 ha        1 2FY      0.142000
     14 H2          2.7070   -0.0550    1.8390 ha        1 2FY      0.148500
     15 H4          2.7070    0.0030   -2.2520 ha        1 2FY      0.148500
     16 HA          4.5960   -0.9090   -0.2660 ho        1 2FY      0.222500
     17 H8          0.6080    0.6090   -3.2110 ho        1 2FY      0.222500
     18 H91C       -1.7640   -0.5390    1.7100 ha        1 2FY      0.104500
     19 H92C       -2.0300    1.0240    1.5140 ha        1 2FY      0.104500
     20 H71C       -4.0020    0.6360    0.4190 hc        1 2FY      0.082333
     21 H72C       -3.6760   -0.9230    0.2680 hc        1 2FY      0.082333
     22 H73C       -4.0420   -0.3180    1.7040 hc        1 2FY      0.082333
@<TRIPOS>BOND
     1    1    2 1   
     2    1   12 1   
     3    2   15 1   
     4    3    4 1   
     5    3    9 1   
     6    4   14 1   
     7    5   11 1   
     8    5   13 1   
     9    6    8 1   
    10    6   11 1   
    11    7   10 1   
    12    7   20 1   
    13    7   21 1   
    14    7   22 1   
    15    9   16 1   
    16   10   18 1   
    17   10   19 1   
    18   12   17 1   
@<TRIPOS>SUBSTRUCTURE
     1 2FY         1 TEMP              0 ****  ****    0 ROOT
