@<TRIPOS>MOLECULE
2FY
   22    22     1     0     0
SMALL
bcc


@<TRIPOS>ATOM
      1 C5         -0.6520    1.0200   -0.1750 ca        1 2FY      0.248100
      2 C4         -2.0480    0.8130   -0.1840 ca        1 2FY     -0.279000
      3 C3         -2.5420   -0.4870   -0.1090 ca        1 2FY      0.193100
      4 C2         -1.6670   -1.5920   -0.0250 ca        1 2FY     -0.210000
      5 C1         -0.3040   -1.3660   -0.0180 ca        1 2FY     -0.025000
      6 C7          4.0340   -0.7930    0.0130 c3        1 2FY     -0.088100
      7 O1          2.2210    1.2450   -0.1440 o         1 2FY     -0.579100
      8 O2         -3.8830   -0.7700   -0.1120 oh        1 2FY     -0.489100
      9 C9          2.5620   -1.1150    0.0100 c3        1 2FY     -0.172400
     10 C10         0.2440   -0.0700   -0.0920 ca        1 2FY     -0.303600
     11 O8         -0.2980    2.3340   -0.2530 oh        1 2FY     -0.503100
     12 H1          0.3650   -2.2390    0.0480 ha        1 2FY      0.138000
     13 H2         -2.0840   -2.6070    0.0330 ha        1 2FY      0.157000
     14 H4         -2.7170    1.6820   -0.2500 ha        1 2FY      0.158000
     15 HA         -4.3710    0.0660   -0.1730 ho        1 2FY      0.428000
     16 H8          0.6690    2.4330   -0.2440 ho        1 2FY      0.465000
     17 H91C        2.2940   -1.6660    0.9510 hc        1 2FY      0.066700
     18 H92C        2.3220   -1.7810   -0.8610 hc        1 2FY      0.066700
     19 H71C        4.2890   -0.1370    0.8800 hc        1 2FY      0.044367
     20 H72C        4.6320   -1.7330    0.0810 hc        1 2FY      0.044367
     21 H73C        4.3170   -0.2510   -0.9220 hc        1 2FY      0.044367
     22 C6          1.7020    0.1170   -0.0810 c         1 2FY      0.596700
@<TRIPOS>BOND
     1    1    2 ar  
     2    1   10 ar  
     3    1   11 1   
     4    2    3 ar  
     5    2   14 1   
     6    3    4 ar  
     7    3    8 1   
     8    4    5 ar  
     9    4   13 1   
    10    5   10 ar  
    11    5   12 1   
    12    6    9 1   
    13    6   19 1   
    14    6   20 1   
    15    6   21 1   
    16    7   22 2   
    17    8   15 1   
    18    9   17 1   
    19    9   18 1   
    20    9   22 1   
    21   10   22 1   
    22   11   16 1   
@<TRIPOS>SUBSTRUCTURE
     1 2FY         1 TEMP              0 ****  ****    0 ROOT
