@<TRIPOS>MOLECULE
2FY
   22    20     1     0     0
SMALL
bcc


@<TRIPOS>ATOM
      1 C5          0.2410   -0.4770   -0.6580 c2        1 2FY     -0.196000
      2 C4          1.5510   -0.4440   -0.3290 c1        1 2FY      0.138000
      3 C3          1.9170    0.4680    1.8340 c2        1 2FY      0.049000
      4 C2          0.9050   -0.3980    2.0720 c2        1 2FY     -0.232000
      5 C1         -0.4630   -0.1720    1.6470 c2        1 2FY     -0.072000
      6 C7         -4.2920    0.0710    2.8460 c2        1 2FY     -0.225500
      7 O1         -2.5460    0.2470   -1.2320 o         1 2FY     -0.294000
      8 O2          3.1540    0.1760    2.3520 oh        1 2FY     -0.251000
      9 C9         -3.3380    0.1430    3.7660 c2        1 2FY     -0.225500
     10 C10        -0.8010   -0.2160    0.3370 c2        1 2FY     -0.162000
     11 O8         -0.1110   -0.8680   -1.9400 oh        1 2FY     -0.245000
     12 H1         -1.2140   -0.0060    2.4400 ha        1 2FY      0.152000
     13 H2          1.0860   -1.3270    2.6420 ha        1 2FY      0.169000
     14 H4          1.8100    1.4320    1.3080 h4        1 2FY      0.142000
     15 HA          3.8070    0.6780    1.8410 ho        1 2FY      0.230000
     16 H8         -0.7800   -0.2390   -2.2590 ho        1 2FY      0.236000
     17 H91C       -2.9440   -0.0510    0.7560 h4        1 2FY      0.106000
     18 H92C       -2.9040   -0.7470    4.2420 ha        1 2FY      0.113500
     19 H71C       -2.9280    1.0980    4.1230 ha        1 2FY      0.113500
     20 H72C       -4.7100   -0.8830    2.4980 ha        1 2FY      0.113500
     21 H73C       -4.7350    0.9620    2.3790 ha        1 2FY      0.113500
     22 C6         -2.1980    0.0050   -0.0740 c2        1 2FY      0.225000
@<TRIPOS>BOND
     1    1    2 1   
     2    1   10 1   
     3    1   11 1   
     4    3    4 1   
     5    3    8 1   
     6    3   14 1   
     7    4    5 1   
     8    4   13 1   
     9    5   10 1   
    10    5   12 1   
    11    6    9 1   
    12    6   20 1   
    13    6   21 1   
    14    7   22 1   
    15    8   15 1   
    16    9   18 1   
    17    9   19 1   
    18   10   22 1   
    19   11   16 1   
    20   17   22 1   
@<TRIPOS>SUBSTRUCTURE
     1 2FY         1 TEMP              0 ****  ****    0 ROOT
