@<TRIPOS>MOLECULE
2FZ
   64    60     1     0     0
SMALL
bcc


@<TRIPOS>ATOM
      1 C7         -0.4580    0.0550   -0.0870 c2        1 2FZ     -0.285000
      2 C6         -0.5060   -2.7460   -5.3480 c1        1 2FZ     -0.212000
      3 C1         -1.3850   -0.3100   -5.0070 c2        1 2FZ     -0.181000
      4 C5         -1.9470   -1.2900   -5.6730 c1        1 2FZ     -0.106000
      5 C4          0.8060    0.9520    2.3960 c2        1 2FZ     -0.465000
      6 C3          1.2450    1.1940    3.6160 c1        1 2FZ      0.272000
      7 C2          0.3720   -2.0350   -4.4680 c3        1 2FZ     -0.083000
      8 C8          0.0140   -0.5190   -4.4770 c3        1 2FZ     -0.097000
      9 C9          0.9640    0.3460   -0.0220 c2        1 2FZ     -0.090000
     10 C10        -0.9880   -1.1100    0.3540 c2        1 2FZ     -0.003000
     11 C11         1.5360    0.7460    1.1700 c2        1 2FZ      0.100000
     12 C12        -1.6540   -2.6660   -5.9770 c2        1 2FZ      0.185000
     13 C14         4.6320   -0.7840   -2.3520 c2        1 2FZ      0.394000
     14 C15        -2.6310    1.5430    3.1300 c2        1 2FZ     -0.321000
     15 C16        -3.7360    1.2560   -1.3470 c1        1 2FZ     -0.238000
     16 C17        -3.4350    0.4880    3.3460 c2        1 2FZ     -0.063000
     17 C18        -4.7800    1.3460   -0.7690 c1        1 2FZ     -0.238000
     18 C19        -7.2260    1.9810    1.6630 c1        1 2FZ     -0.025000
     19 C20        -6.5880    0.0950    3.0140 c3        1 2FZ     -0.173000
     20 C21         3.7210    0.8270    0.2710 c1        1 2FZ      0.006000
     21 C22         1.8070    0.2240   -1.1900 c2        1 2FZ      0.183000
     22 C23        -5.3930   -0.8290    2.7720 c3        1 2FZ     -0.059000
     23 C24         3.1820    0.4700   -0.9960 c2        1 2FZ     -0.182000
     24 N26        -2.3010   -1.5050    0.1780 n3        1 2FZ     -0.332000
     25 N27        -4.1650   -0.1940    2.3620 n3        1 2FZ     -0.293000
     26 N28         1.3580   -0.2120   -2.4320 n         1 2FZ     -0.319000
     27 N29         5.7710   -1.0750   -1.6870 n         1 2FZ     -0.415000
     28 O30        -0.6190    0.9860   -2.6940 o         1 2FZ     -0.339000
     29 O31         4.0300   -1.4550   -3.2130 o         1 2FZ     -0.428000
     30 O32         2.8990    0.9720    1.2880 os        1 2FZ     -0.048000
     31 O33        -6.8850    0.7570    1.7470 os        1 2FZ     -0.094000
     32 O34         4.0360    0.4760   -2.0920 os        1 2FZ     -0.219000
     33 F35        -2.3770   -3.4880   -6.7320 f         1 2FZ     -0.048000
     34 H1         -1.0780    0.8390   -0.5570 ha        1 2FZ      0.162000
     35 H3          0.7220    0.0090   -5.1840 hc        1 2FZ      0.131000
     36 H4         -1.8500    0.6680   -4.8160 ha        1 2FZ      0.200000
     37 H5         -0.3100    0.9050    2.2800 ha        1 2FZ      0.228000
     38 H6         -0.3490   -1.8770    0.8380 h4        1 2FZ      0.134000
     39 H7          0.2660   -2.4610   -3.4300 hc        1 2FZ      0.138500
     40 H8         -2.0240    1.9580    3.9430 ha        1 2FZ      0.125500
     41 H9         -2.6770   -2.0540    0.9190 hn        1 2FZ      0.194500
     42 H10        -2.9260   -0.7980   -0.1500 hn        1 2FZ      0.194500
     43 H11        -2.8090    1.1860   -1.8690 ha        1 2FZ      0.238500
     44 H12        -2.5350    2.0490    2.1620 ha        1 2FZ      0.125500
     45 H13        -3.5020    0.0260    4.3510 h4        1 2FZ      0.134000
     46 H14        -5.7210    1.4380   -0.2760 ha        1 2FZ      0.238500
     47 H15        -4.2730    0.3240    1.5070 hn        1 2FZ      0.195000
     48 H16        -7.3200    2.6040    2.5800 ha        1 2FZ      0.030000
     49 H17        -5.6710   -1.5550    1.9550 h1        1 2FZ      0.108000
     50 H18        -7.4940   -0.5050    3.2770 h1        1 2FZ      0.102000
     51 H19        -6.3830    0.8580    3.8050 h1        1 2FZ      0.102000
     52 H20         6.2580    1.9550   -1.2610 ha        1 2FZ      0.001250
     53 H21         5.6780    1.8710   -0.9200 ha        1 2FZ      0.001250
     54 H22         5.6900    1.4690   -3.4880 ha        1 2FZ      0.001250
     55 H23        -5.2130   -1.4100    3.7200 h1        1 2FZ      0.108000
     56 H24         5.4750    1.0550   -3.9810 ha        1 2FZ      0.001250
     57 H25         6.3090   -1.8980   -1.9450 hn        1 2FZ      0.268500
     58 H26         7.6290   -3.4520   -3.6260 ha        1 2FZ      0.039000
     59 H27         6.7400   -4.4580   -2.3810 ha        1 2FZ      0.039000
     60 H29         2.0840   -0.6200   -3.0030 hn        1 2FZ      0.272000
     61 H30         6.1290   -0.4100   -1.0430 hn        1 2FZ      0.268500
     62 C13         0.1950    0.1490   -3.1150 c2        1 2FZ      0.326000
     63 H2          1.4480   -2.1580   -4.7760 hc        1 2FZ      0.138500
     64 C25         7.0420   -3.4510   -2.6980 c1        1 2FZ     -0.032000
@<TRIPOS>BOND
     1    1    9 1   
     2    1   10 1   
     3    1   34 1   
     4    2    7 1   
     5    2   12 1   
     6    3    4 1   
     7    3    8 1   
     8    3   36 1   
     9    4   12 1   
    10    5    6 1   
    11    5   11 1   
    12    5   37 1   
    13    7    8 1   
    14    7   39 1   
    15    7   63 1   
    16    8   35 1   
    17    8   62 1   
    18    9   11 1   
    19    9   21 1   
    20   10   24 1   
    21   10   38 1   
    22   11   30 1   
    23   12   33 1   
    24   13   27 1   
    25   13   29 1   
    26   13   32 1   
    27   14   16 1   
    28   14   40 1   
    29   14   44 1   
    30   15   17 1   
    31   15   43 1   
    32   16   25 1   
    33   16   45 1   
    34   17   46 1   
    35   18   31 1   
    36   18   48 1   
    37   19   22 1   
    38   19   31 1   
    39   19   50 1   
    40   19   51 1   
    41   20   23 1   
    42   20   30 1   
    43   21   23 1   
    44   21   26 1   
    45   22   25 1   
    46   22   49 1   
    47   22   55 1   
    48   23   32 1   
    49   24   41 1   
    50   24   42 1   
    51   25   47 1   
    52   26   60 1   
    53   26   62 1   
    54   27   57 1   
    55   27   61 1   
    56   28   62 1   
    57   52   53 1   
    58   54   56 1   
    59   58   64 1   
    60   59   64 1   
@<TRIPOS>SUBSTRUCTURE
     1 2FZ         1 TEMP              0 ****  ****    0 ROOT
