@<TRIPOS>MOLECULE
2G1
   36    36     1     0     0
SMALL
bcc


@<TRIPOS>ATOM
      1 C01         0.1270    0.2990   -0.4300 c3        1 2G1     -0.144400
      2 C02         1.5650    0.0390   -0.2100 cc        1 2G1      0.407700
      3 N03         2.1890    0.1140    0.9640 nd        1 2G1     -0.610000
      4 C04         3.5450   -0.1920    0.7970 cd        1 2G1      0.305800
      5 C05         3.9000   -0.4950   -0.5290 cc        1 2G1     -0.221400
      6 S06         2.5940   -0.4050   -1.5270 ss        1 2G1      0.046700
      7 C07         4.4560   -0.1900    1.9200 ca        1 2G1      0.080500
      8 C08         5.8530   -0.2710    1.7160 ca        1 2G1     -0.157000
      9 C09         6.7220   -0.2750    2.7850 ca        1 2G1      0.026500
     10 C10         6.2600   -0.1980    4.1270 ca        1 2G1     -0.638500
     11 C11         4.8520   -0.1150    4.3120 ca        1 2G1      0.026500
     12 C12         3.9760   -0.1080    3.2480 ca        1 2G1     -0.157000
     13 S13         7.2380   -0.2530    5.3340 s4        1 2G1      1.672300
     14 O14         6.7070   -0.3950    6.5800 o         1 2G1     -0.443900
     15 O15         8.5530   -0.4920    5.0690 o         1 2G1     -0.443900
     16 N16         7.5490    2.0130    5.4900 n8        1 2G1     -1.001800
     17 C17         6.9350    2.5670    6.6900 c3        1 2G1      0.114800
     18 C18         7.2540    4.0310    6.9570 c3        1 2G1     -0.161400
     19 C19         6.4750    4.5180    8.2110 c3        1 2G1      0.639900
     20 F20         6.7780    3.8230    9.3530 f         1 2G1     -0.223300
     21 F21         6.7160    5.8320    8.5070 f         1 2G1     -0.223300
     22 F22         5.1130    4.4190    8.0820 f         1 2G1     -0.223300
     23 H1         -0.4960   -0.4080    0.1760 hc        1 2G1      0.075367
     24 H2         -0.1340    1.3450   -0.1250 hc        1 2G1      0.075367
     25 H3         -0.1290    0.1660   -1.5110 hc        1 2G1      0.075367
     26 H4          4.9020   -0.7680   -0.8600 h4        1 2G1      0.192000
     27 H5          6.2550   -0.3300    0.6910 ha        1 2G1      0.182500
     28 H6          7.8110   -0.3500    2.6020 ha        1 2G1      0.167500
     29 H7          4.4550   -0.0670    5.3450 ha        1 2G1      0.167500
     30 H8          2.8890   -0.0450    3.4380 ha        1 2G1      0.182500
     31 H9          7.1850    2.4700    4.6680 hn        1 2G1      0.406800
     32 H10         7.2740    1.9500    7.5760 h1        1 2G1      0.100700
     33 H11         5.8150    2.4490    6.6030 h1        1 2G1      0.100700
     34 H12         8.3460    4.1820    7.1560 hc        1 2G1      0.096700
     35 H13         6.9510    4.6830    6.0980 hc        1 2G1      0.096700
     36 H162        8.5490    2.1530    5.5110 hn        1 2G1      0.406800
@<TRIPOS>BOND
     1    1    2 1   
     2    1   23 1   
     3    1   24 1   
     4    1   25 1   
     5    2    3 2   
     6    2    6 1   
     7    3    4 1   
     8    4    5 2   
     9    4    7 1   
    10    5    6 1   
    11    5   26 1   
    12    7    8 ar  
    13    7   12 ar  
    14    8    9 ar  
    15    8   27 1   
    16    9   10 ar  
    17    9   28 1   
    18   10   11 ar  
    19   10   13 1   
    20   11   12 ar  
    21   11   29 1   
    22   12   30 1   
    23   13   14 1   
    24   13   15 1   
    25   16   17 1   
    26   16   31 1   
    27   16   36 1   
    28   17   18 1   
    29   17   32 1   
    30   17   33 1   
    31   18   19 1   
    32   18   34 1   
    33   18   35 1   
    34   19   20 1   
    35   19   21 1   
    36   19   22 1   
@<TRIPOS>SUBSTRUCTURE
     1 2G1         1 TEMP              0 ****  ****    0 ROOT
