@<TRIPOS>MOLECULE
2G1
   36    36     1     0     0
SMALL
bcc


@<TRIPOS>ATOM
      1 C01         0.1180    0.2780   -0.4160 c3        1 2G1     -0.144400
      2 C02         1.5570    0.0200   -0.1970 cc        1 2G1      0.407700
      3 N03         2.1830    0.1000    0.9750 nd        1 2G1     -0.610000
      4 C04         3.5390   -0.2050    0.8060 cd        1 2G1      0.305800
      5 C05         3.8910   -0.5140   -0.5190 cc        1 2G1     -0.221400
      6 S06         2.5840   -0.4290   -1.5140 ss        1 2G1      0.046700
      7 C07         4.4520   -0.1980    1.9270 ca        1 2G1      0.080500
      8 C08         5.8490   -0.2790    1.7200 ca        1 2G1     -0.157000
      9 C09         6.7210   -0.2780    2.7870 ca        1 2G1      0.026500
     10 C10         6.2610   -0.1950    4.1300 ca        1 2G1     -0.638500
     11 C11         4.8540   -0.1130    4.3180 ca        1 2G1      0.026500
     12 C12         3.9760   -0.1110    3.2560 ca        1 2G1     -0.157000
     13 S13         7.2420   -0.2440    5.3350 s4        1 2G1      1.672300
     14 O14         6.7140   -0.3820    6.5830 o         1 2G1     -0.443900
     15 O15         8.5570   -0.4840    5.0680 o         1 2G1     -0.443900
     16 N16         7.5510    2.0220    5.4800 n3        1 2G1     -1.001800
     17 C17         6.9410    2.5800    6.6800 c3        1 2G1      0.114800
     18 C18         7.2590    4.0470    6.9400 c3        1 2G1     -0.161400
     19 C19         6.4830    4.5380    8.1940 c3        1 2G1      0.639900
     20 F20         6.7910    3.8490    9.3380 f         1 2G1     -0.223300
     21 F21         6.7240    5.8530    8.4840 f         1 2G1     -0.223300
     22 F22         5.1210    4.4360    8.0700 f         1 2G1     -0.223300
     23 H1         -0.5030   -0.4270    0.1950 hc        1 2G1      0.075367
     24 H2         -0.1430    1.3250   -0.1140 hc        1 2G1      0.075367
     25 H3         -0.1400    0.1400   -1.4950 hc        1 2G1      0.075367
     26 H4          4.8930   -0.7880   -0.8520 h4        1 2G1      0.192000
     27 H5          6.2490   -0.3430    0.6950 ha        1 2G1      0.182500
     28 H6          7.8100   -0.3530    2.6020 ha        1 2G1      0.167500
     29 H7          4.4590   -0.0600    5.3510 ha        1 2G1      0.167500
     30 H8          2.8890   -0.0480    3.4480 ha        1 2G1      0.182500
     31 H9          7.1850    2.4750    4.6580 hn        1 2G1      0.406800
     32 H10         7.2830    1.9680    7.5680 h1        1 2G1      0.100700
     33 H11         5.8210    2.4600    6.5970 h1        1 2G1      0.100700
     34 H12         8.3510    4.2000    7.1340 hc        1 2G1      0.096700
     35 H13         6.9520    4.6940    6.0790 hc        1 2G1      0.096700
     36 H162        8.5520    2.1640    5.4980 hn        1 2G1      0.406800
@<TRIPOS>BOND
     1    1    2 1   
     2    1   23 1   
     3    1   24 1   
     4    1   25 1   
     5    2    3 2   
     6    2    6 1   
     7    3    4 1   
     8    4    5 2   
     9    4    7 1   
    10    5    6 1   
    11    5   26 1   
    12    7    8 ar  
    13    7   12 ar  
    14    8    9 ar  
    15    8   27 1   
    16    9   10 ar  
    17    9   28 1   
    18   10   11 ar  
    19   10   13 1   
    20   11   12 ar  
    21   11   29 1   
    22   12   30 1   
    23   13   14 1   
    24   13   15 1   
    25   16   17 1   
    26   16   31 1   
    27   16   36 1   
    28   17   18 1   
    29   17   32 1   
    30   17   33 1   
    31   18   19 1   
    32   18   34 1   
    33   18   35 1   
    34   19   20 1   
    35   19   21 1   
    36   19   22 1   
@<TRIPOS>SUBSTRUCTURE
     1 2G1         1 TEMP              0 ****  ****    0 ROOT
