@<TRIPOS>MOLECULE
2G1
   36    36     1     0     0
SMALL
bcc


@<TRIPOS>ATOM
      1 C01         0.1460    0.3070   -0.4530 c3        1 2G1     -0.144400
      2 C02         1.5850    0.0510   -0.2290 cc        1 2G1      0.407700
      3 N03         2.2040    0.1200    0.9470 nd        1 2G1     -0.610000
      4 C04         3.5620   -0.1780    0.7830 cd        1 2G1      0.305800
      5 C05         3.9220   -0.4710   -0.5440 cc        1 2G1     -0.221400
      6 S06         2.6200   -0.3800   -1.5460 ss        1 2G1      0.046700
      7 C07         4.4680   -0.1800    1.9090 ca        1 2G1      0.080500
      8 C08         5.8660   -0.2560    1.7100 ca        1 2G1     -0.157000
      9 C09         6.7310   -0.2630    2.7820 ca        1 2G1      0.026500
     10 C10         6.2640   -0.1970    4.1230 ca        1 2G1     -0.638500
     11 C11         4.8550   -0.1200    4.3030 ca        1 2G1      0.026500
     12 C12         3.9830   -0.1090    3.2370 ca        1 2G1     -0.157000
     13 S13         7.2380   -0.2550    5.3340 s4        1 2G1      1.672300
     14 O14         6.7030   -0.4080    6.5760 o         1 2G1     -0.443900
     15 O15         8.5550   -0.4880    5.0720 o         1 2G1     -0.443900
     16 N16         7.5400    2.0100    5.5050 n3        1 2G1     -1.001800
     17 C17         6.9170    2.5540    6.7050 c3        1 2G1      0.114800
     18 C18         7.2310    4.0180    6.9840 c3        1 2G1     -0.161400
     19 C19         6.4420    4.4950    8.2350 c3        1 2G1      0.639900
     20 F20         6.7390    3.7930    9.3750 f         1 2G1     -0.223300
     21 F21         6.6790    5.8070    8.5420 f         1 2G1     -0.223300
     22 F22         5.0810    4.3940    8.0960 f         1 2G1     -0.223300
     23 H1         -0.1210    1.3490   -0.1410 hc        1 2G1      0.075367
     24 H2         -0.4770   -0.4070    0.1450 hc        1 2G1      0.075367
     25 H3         -0.1050    0.1810   -1.5360 hc        1 2G1      0.075367
     26 H4          4.9280   -0.7380   -0.8730 h4        1 2G1      0.192000
     27 H5          6.2720   -0.3070    0.6860 ha        1 2G1      0.182500
     28 H6          7.8220   -0.3330    2.6030 ha        1 2G1      0.167500
     29 H7          4.4540   -0.0800    5.3350 ha        1 2G1      0.167500
     30 H8          2.8950   -0.0510    3.4230 ha        1 2G1      0.182500
     31 H9          8.5390    2.1540    5.5330 hn        1 2G1      0.406800
     32 H10         5.7980    2.4340    6.6100 h1        1 2G1      0.100700
     33 H11         7.2520    1.9320    7.5890 h1        1 2G1      0.100700
     34 H12         6.9330    4.6750    6.1270 hc        1 2G1      0.096700
     35 H13         8.3220    4.1700    7.1910 hc        1 2G1      0.096700
     36 H162        7.1800    2.4710    4.6840 hn        1 2G1      0.406800
@<TRIPOS>BOND
     1    1    2 1   
     2    1   23 1   
     3    1   24 1   
     4    1   25 1   
     5    2    3 2   
     6    2    6 1   
     7    3    4 1   
     8    4    5 2   
     9    4    7 1   
    10    5    6 1   
    11    5   26 1   
    12    7    8 ar  
    13    7   12 ar  
    14    8    9 ar  
    15    8   27 1   
    16    9   10 ar  
    17    9   28 1   
    18   10   11 ar  
    19   10   13 1   
    20   11   12 ar  
    21   11   29 1   
    22   12   30 1   
    23   13   14 1   
    24   13   15 1   
    25   16   17 1   
    26   16   31 1   
    27   16   36 1   
    28   17   18 1   
    29   17   32 1   
    30   17   33 1   
    31   18   19 1   
    32   18   34 1   
    33   18   35 1   
    34   19   20 1   
    35   19   21 1   
    36   19   22 1   
@<TRIPOS>SUBSTRUCTURE
     1 2G1         1 TEMP              0 ****  ****    0 ROOT
