@<TRIPOS>MOLECULE
2G3
   23    22     1     0     0
SMALL
bcc


@<TRIPOS>ATOM
      1 N24        -0.0620   -0.0000   -0.0190 n4        1 2G3     -0.840600
      2 C25         1.4340    0.0000    0.0000 c3        1 2G3      0.099800
      3 C26         1.9920    0.0000    1.4160 c3        1 2G3     -0.105400
      4 C27         3.5250    0.0010    1.4220 c3        1 2G3     -0.047000
      5 C28         4.0690   -1.2430    0.7380 c3        1 2G3     -0.099767
      6 C30         4.0670    1.2460    0.7380 c3        1 2G3     -0.099767
      7 C29         3.9700    0.0010    2.8820 c3        1 2G3     -0.099767
      8 H12        -0.4200    0.8310    0.4610 hn        1 2G3      0.460133
      9 H13         1.7810   -0.9190   -0.5560 hx        1 2G3      0.116700
     10 H14         1.7800    0.9190   -0.5560 hx        1 2G3      0.116700
     11 H15         1.6360   -0.9090    1.9700 hc        1 2G3      0.066700
     12 H16         1.6350    0.9090    1.9710 hc        1 2G3      0.066700
     13 H17         5.1730   -1.3090    0.8990 hc        1 2G3      0.049033
     14 H18         3.8850   -1.2100   -0.3630 hc        1 2G3      0.049033
     15 H19         3.5980   -2.1630    1.1590 hc        1 2G3      0.049033
     16 H20         3.8840    1.2140   -0.3620 hc        1 2G3      0.049033
     17 H21         5.1720    1.3140    0.9000 hc        1 2G3      0.049033
     18 H22         3.5950    2.1660    1.1610 hc        1 2G3      0.049033
     19 H23         5.0860    0.0020    2.9380 hc        1 2G3      0.049033
     20 H24         3.5900   -0.9080    3.4070 hc        1 2G3      0.049033
     21 H25         3.5890    0.9090    3.4070 hc        1 2G3      0.049033
     22 H2         -0.4200   -0.8320    0.4620 hn        1 2G3      0.460133
     23 H243       -0.4010   -0.0010   -0.9860 hn        1 2G3      0.460133
@<TRIPOS>BOND
     1    1    2 1   
     2    1    8 1   
     3    1   22 1   
     4    1   23 1   
     5    2    3 1   
     6    2    9 1   
     7    2   10 1   
     8    3    4 1   
     9    3   11 1   
    10    3   12 1   
    11    4    5 1   
    12    4    6 1   
    13    4    7 1   
    14    5   13 1   
    15    5   14 1   
    16    5   15 1   
    17    6   16 1   
    18    6   17 1   
    19    6   18 1   
    20    7   19 1   
    21    7   20 1   
    22    7   21 1   
@<TRIPOS>SUBSTRUCTURE
     1 2G3         1 TEMP              0 ****  ****    0 ROOT
