@<TRIPOS>MOLECULE
2G3
   23    22     1     0     0
SMALL
bcc


@<TRIPOS>ATOM
      1 N24        -0.0590    0.0120   -0.0270 n4        1 2G3     -0.840600
      2 C25         1.4360    0.0040   -0.0030 c3        1 2G3      0.099800
      3 C26         1.9910    0.0060    1.4140 c3        1 2G3     -0.105400
      4 C27         3.5240   -0.0020    1.4250 c3        1 2G3     -0.047000
      5 C28         4.0620   -1.2520    0.7460 c3        1 2G3     -0.099767
      6 C30         4.0760    1.2370    0.7380 c3        1 2G3     -0.099767
      7 C29         3.9650    0.0000    2.8860 c3        1 2G3     -0.099767
      8 H12        -0.4230   -0.8160    0.4560 hn        1 2G3      0.460133
      9 H13         1.7900    0.9190   -0.5630 hx        1 2G3      0.116700
     10 H14         1.7800   -0.9190   -0.5550 hx        1 2G3      0.116700
     11 H15         1.6380    0.9200    1.9640 hc        1 2G3      0.066700
     12 H16         1.6280   -0.8980    1.9710 hc        1 2G3      0.066700
     13 H17         3.5830   -2.1670    1.1690 hc        1 2G3      0.049033
     14 H18         5.1650   -1.3250    0.9120 hc        1 2G3      0.049033
     15 H19         3.8820   -1.2220   -0.3550 hc        1 2G3      0.049033
     16 H20         3.8940    1.2030   -0.3630 hc        1 2G3      0.049033
     17 H21         5.1800    1.2980    0.9010 hc        1 2G3      0.049033
     18 H22         3.6090    2.1610    1.1560 hc        1 2G3      0.049033
     19 H23         3.5880    0.9130    3.4070 hc        1 2G3      0.049033
     20 H24         3.5780   -0.9040    3.4130 hc        1 2G3      0.049033
     21 H25         5.0800   -0.0050    2.9450 hc        1 2G3      0.049033
     22 H2         -0.4140    0.8480    0.4490 hn        1 2G3      0.460133
     23 H243       -0.3950    0.0100   -0.9950 hn        1 2G3      0.460133
@<TRIPOS>BOND
     1    1    2 1   
     2    1    8 1   
     3    1   22 1   
     4    1   23 1   
     5    2    3 1   
     6    2    9 1   
     7    2   10 1   
     8    3    4 1   
     9    3   11 1   
    10    3   12 1   
    11    4    5 1   
    12    4    6 1   
    13    4    7 1   
    14    5   13 1   
    15    5   14 1   
    16    5   15 1   
    17    6   16 1   
    18    6   17 1   
    19    6   18 1   
    20    7   19 1   
    21    7   20 1   
    22    7   21 1   
@<TRIPOS>SUBSTRUCTURE
     1 2G3         1 TEMP              0 ****  ****    0 ROOT
