@<TRIPOS>MOLECULE
2G3
   23    22     1     0     0
SMALL
bcc


@<TRIPOS>ATOM
      1 N24        -0.0600    0.0050   -0.0260 nz        1 2G3     -0.840600
      2 C25         1.4360    0.0020   -0.0030 c3        1 2G3      0.099800
      3 C26         1.9910    0.0010    1.4140 c3        1 2G3     -0.105400
      4 C27         3.5240   -0.0000    1.4240 c3        1 2G3     -0.047000
      5 C28         4.0680   -1.2440    0.7390 c3        1 2G3     -0.099767
      6 C30         4.0700    1.2450    0.7440 c3        1 2G3     -0.099767
      7 C29         3.9660   -0.0040    2.8850 c3        1 2G3     -0.099767
      8 H12        -0.4170    0.8380    0.4530 hn        1 2G3      0.460133
      9 H13         1.7820   -0.9180   -0.5580 hx        1 2G3      0.116700
     10 H14         1.7860    0.9190   -0.5590 hx        1 2G3      0.116700
     11 H15         1.6320   -0.9080    1.9680 hc        1 2G3      0.066700
     12 H16         1.6340    0.9100    1.9680 hc        1 2G3      0.066700
     13 H17         5.1720   -1.3120    0.9030 hc        1 2G3      0.049033
     14 H18         3.8870   -1.2090   -0.3620 hc        1 2G3      0.049033
     15 H19         3.5940   -2.1640    1.1570 hc        1 2G3      0.049033
     16 H20         3.8880    1.2160   -0.3570 hc        1 2G3      0.049033
     17 H21         5.1740    1.3110    0.9080 hc        1 2G3      0.049033
     18 H22         3.5980    2.1640    1.1670 hc        1 2G3      0.049033
     19 H23         5.0810   -0.0040    2.9440 hc        1 2G3      0.049033
     20 H24         3.5840   -0.9130    3.4070 hc        1 2G3      0.049033
     21 H25         3.5840    0.9040    3.4110 hc        1 2G3      0.049033
     22 H2         -0.4210   -0.8250    0.4550 hn        1 2G3      0.460133
     23 H243       -0.3960    0.0050   -0.9930 hn        1 2G3      0.460133
@<TRIPOS>BOND
     1    1    2 1   
     2    1    8 1   
     3    1   22 1   
     4    1   23 1   
     5    2    3 1   
     6    2    9 1   
     7    2   10 1   
     8    3    4 1   
     9    3   11 1   
    10    3   12 1   
    11    4    5 1   
    12    4    6 1   
    13    4    7 1   
    14    5   13 1   
    15    5   14 1   
    16    5   15 1   
    17    6   16 1   
    18    6   17 1   
    19    6   18 1   
    20    7   19 1   
    21    7   20 1   
    22    7   21 1   
@<TRIPOS>SUBSTRUCTURE
     1 2G3         1 TEMP              0 ****  ****    0 ROOT
