@<TRIPOS>MOLECULE
2G4
   44    44     1     0     0
SMALL
bcc


@<TRIPOS>ATOM
      1 CAJ        -0.4690   -0.5240    0.8410 ca        1 2G4     -0.126000
      2 CAH         0.9000   -0.6210    1.0930 ca        1 2G4     -0.144500
      3 CAG         1.4630    0.0790    2.1580 ca        1 2G4     -0.157000
      4 CAI         0.6550    0.8750    2.9700 ca        1 2G4     -0.144500
      5 CAK        -0.7140    0.9770    2.7250 ca        1 2G4     -0.126000
      6 CAV        -1.2830    0.2730    1.6530 ca        1 2G4     -0.076300
      7 CAP        -2.7470    0.3700    1.4000 c3        1 2G4     -0.035100
      8 CAM        -3.1490    1.7580    0.9390 c3        1 2G4     -0.080400
      9 CAL        -4.6550    1.8900    0.8730 c3        1 2G4     -0.097400
     10 CAN        -5.0530    3.3140    0.5090 c3        1 2G4      0.178400
     11 OAS        -6.4310    3.4710    0.7250 os        1 2G4     -0.564200
     12 PAX        -6.9470    4.9310    1.2470 p5        1 2G4      1.306700
     13 OAF        -8.3370    5.1040    0.7870 o         1 2G4     -0.783500
     14 OAC        -5.8600    5.9010    0.9770 o         1 2G4     -0.783500
     15 N          -7.0180    4.9020    2.9980 n4        1 2G4     -0.744100
     16 CA         -6.8100    3.5830    3.6380 c3        1 2G4     -0.038500
     17 C          -8.1030    3.1260    4.4250 c         1 2G4      0.923600
     18 OXT        -8.2030    1.9040    4.6850 o         1 2G4     -0.817300
     19 O          -8.9370    4.0260    4.7290 o         1 2G4     -0.817300
     20 CB         -5.6450    3.5560    4.6320 c3        1 2G4     -0.070400
     21 CG         -4.2980    3.8330    4.0140 c3        1 2G4     -0.211400
     22 CD         -3.1610    3.7290    5.0420 c         1 2G4      0.917600
     23 OE2        -2.2110    2.9230    4.7990 o         1 2G4     -0.863800
     24 OE1        -3.1900    4.4680    6.0670 o         1 2G4     -0.863800
     25 H1         -0.9090   -1.0770   -0.0010 ha        1 2G4      0.170000
     26 H2          1.5310   -1.2490    0.4500 ha        1 2G4      0.119000
     27 H3          2.5410    0.0040    2.3570 ha        1 2G4      0.104000
     28 H4          1.0910    1.4320    3.8130 ha        1 2G4      0.119000
     29 H5         -1.3520    1.6150    3.3790 ha        1 2G4      0.170000
     30 H6         -3.0620   -0.3870    0.6340 hc        1 2G4      0.045700
     31 H7         -3.2930    0.1320    2.3550 hc        1 2G4      0.045700
     32 H8         -2.7030    1.9690   -0.0680 hc        1 2G4      0.051200
     33 H9         -2.7340    2.5170    1.6580 hc        1 2G4      0.051200
     34 H10        -5.1080    1.6200    1.8640 hc        1 2G4      0.049200
     35 H11        -5.0770    1.1810    0.1150 hc        1 2G4      0.049200
     36 H12        -4.4820    4.0640    1.1260 h1        1 2G4      0.035700
     37 H13        -4.8320    3.4980   -0.5800 h1        1 2G4      0.035700
     38 H15        -7.9520    5.2190    3.3130 hn        1 2G4      0.448300
     39 H16        -6.6240    2.8360    2.8150 hx        1 2G4      0.090700
     40 H18        -5.8300    4.2860    5.4640 hc        1 2G4      0.069200
     41 H19        -5.6470    2.5300    5.0880 hc        1 2G4      0.069200
     42 H20        -4.2560    4.8670    3.5840 hc        1 2G4      0.024200
     43 H21        -4.1030    3.1060    3.1840 hc        1 2G4      0.024200
     44 H22        -6.3340    5.5580    3.3760 hn        1 2G4      0.448300
@<TRIPOS>BOND
     1    1    2 ar  
     2    1    6 ar  
     3    1   25 1   
     4    2    3 ar  
     5    2   26 1   
     6    3    4 ar  
     7    3   27 1   
     8    4    5 ar  
     9    4   28 1   
    10    5    6 ar  
    11    5   29 1   
    12    6    7 1   
    13    7    8 1   
    14    7   30 1   
    15    7   31 1   
    16    8    9 1   
    17    8   32 1   
    18    8   33 1   
    19    9   10 1   
    20    9   34 1   
    21    9   35 1   
    22   10   11 1   
    23   10   36 1   
    24   10   37 1   
    25   11   12 1   
    26   12   13 1   
    27   12   14 1   
    28   12   15 1   
    29   15   16 1   
    30   15   38 1   
    31   15   44 1   
    32   16   17 1   
    33   16   20 1   
    34   16   39 1   
    35   17   18 1   
    36   17   19 1   
    37   20   21 1   
    38   20   40 1   
    39   20   41 1   
    40   21   22 1   
    41   21   42 1   
    42   21   43 1   
    43   22   23 1   
    44   22   24 1   
@<TRIPOS>SUBSTRUCTURE
     1 2G4         1 TEMP              0 ****  ****    0 ROOT
