@<TRIPOS>MOLECULE
2G4
   44    44     1     0     0
SMALL
bcc


@<TRIPOS>ATOM
      1 CAJ        -0.4770   -0.5040    0.7870 ca        1 2G4     -0.126000
      2 CAH         0.8890   -0.6150    1.0430 ca        1 2G4     -0.144500
      3 CAG         1.4510    0.0550    2.1280 ca        1 2G4     -0.157000
      4 CAI         0.6430    0.8370    2.9550 ca        1 2G4     -0.144500
      5 CAK        -0.7240    0.9520    2.7050 ca        1 2G4     -0.126000
      6 CAV        -1.2910    0.2780    1.6130 ca        1 2G4     -0.076300
      7 CAP        -2.7530    0.3900    1.3560 c3        1 2G4     -0.035100
      8 CAM        -3.1450    1.7910    0.9260 c3        1 2G4     -0.080400
      9 CAL        -4.6500    1.9330    0.8560 c3        1 2G4     -0.097400
     10 CAN        -5.0370    3.3680    0.5250 c3        1 2G4      0.178400
     11 OAS        -6.4160    3.5280    0.7370 os        1 2G4     -0.564200
     12 PAX        -6.9260    4.9770    1.2920 p5        1 2G4      1.306700
     13 OAF        -8.3130    5.1700    0.8290 o         1 2G4     -0.783500
     14 OAC        -5.8320    5.9470    1.0510 o         1 2G4     -0.783500
     15 N          -7.0060    4.9070    3.0420 ny        1 2G4     -0.744100
     16 CA         -6.8100    3.5710    3.6500 c3        1 2G4     -0.038500
     17 C          -8.1090    3.1030    4.4190 c         1 2G4      0.923600
     18 OXT        -8.2180    1.8760    4.6490 o         1 2G4     -0.817300
     19 O          -8.9400    4.0000    4.7400 o         1 2G4     -0.817300
     20 CB         -5.6500    3.5140    4.6500 c3        1 2G4     -0.070400
     21 CG         -4.2980    3.7970    4.0450 c3        1 2G4     -0.211400
     22 CD         -3.1670    3.6610    5.0770 c         1 2G4      0.917600
     23 OE2        -2.2210    2.8560    4.8190 o         1 2G4     -0.863800
     24 OE1        -3.1970    4.3750    6.1190 o         1 2G4     -0.863800
     25 H1         -0.9170   -1.0340   -0.0710 ha        1 2G4      0.170000
     26 H2          1.5200   -1.2310    0.3890 ha        1 2G4      0.119000
     27 H3          2.5270   -0.0310    2.3300 ha        1 2G4      0.104000
     28 H4          1.0780    1.3700    3.8130 ha        1 2G4      0.119000
     29 H5         -1.3620    1.5780    3.3710 ha        1 2G4      0.170000
     30 H6         -3.3060    0.1320    2.3010 hc        1 2G4      0.045700
     31 H7         -3.0690   -0.3460    0.5700 hc        1 2G4      0.045700
     32 H8         -2.7300    2.5290    1.6670 hc        1 2G4      0.051200
     33 H9         -2.6930    2.0240   -0.0720 hc        1 2G4      0.051200
     34 H10        -5.1090    1.6410    1.8370 hc        1 2G4      0.049200
     35 H11        -5.0720    1.2450    0.0790 hc        1 2G4      0.049200
     36 H12        -4.8100    3.5770   -0.5580 h1        1 2G4      0.035700
     37 H13        -4.4650    4.0990    1.1630 h1        1 2G4      0.035700
     38 H15        -7.9400    5.2210    3.3590 hn        1 2G4      0.448300
     39 H16        -6.6240    2.8430    2.8100 hx        1 2G4      0.090700
     40 H18        -5.8350    4.2240    5.4980 hc        1 2G4      0.069200
     41 H19        -5.6600    2.4760    5.0810 hc        1 2G4      0.069200
     42 H20        -4.1030    3.0890    3.1990 hc        1 2G4      0.024700
     43 H21        -4.2480    4.8410    3.6410 hc        1 2G4      0.024700
     44 H22        -6.3210    5.5490    3.4380 hn        1 2G4      0.448300
@<TRIPOS>BOND
     1    1    2 ar  
     2    1    6 ar  
     3    1   25 1   
     4    2    3 ar  
     5    2   26 1   
     6    3    4 ar  
     7    3   27 1   
     8    4    5 ar  
     9    4   28 1   
    10    5    6 ar  
    11    5   29 1   
    12    6    7 1   
    13    7    8 1   
    14    7   30 1   
    15    7   31 1   
    16    8    9 1   
    17    8   32 1   
    18    8   33 1   
    19    9   10 1   
    20    9   34 1   
    21    9   35 1   
    22   10   11 1   
    23   10   36 1   
    24   10   37 1   
    25   11   12 1   
    26   12   13 1   
    27   12   14 1   
    28   12   15 1   
    29   15   16 1   
    30   15   38 1   
    31   15   44 1   
    32   16   17 1   
    33   16   20 1   
    34   16   39 1   
    35   17   18 1   
    36   17   19 1   
    37   20   21 1   
    38   20   40 1   
    39   20   41 1   
    40   21   22 1   
    41   21   42 1   
    42   21   43 1   
    43   22   23 1   
    44   22   24 1   
@<TRIPOS>SUBSTRUCTURE
     1 2G4         1 TEMP              0 ****  ****    0 ROOT
