@<TRIPOS>MOLECULE
2G5
   45    45     1     0     0
SMALL
bcc


@<TRIPOS>ATOM
      1 CAM         0.0740   -0.8220    1.0110 ca        1 2G5     -0.076000
      2 CAK         1.3480   -1.0290    1.5320 ca        1 2G5     -0.149500
      3 CAJ         1.5560   -0.9660    2.9120 ca        1 2G5     -0.110000
      4 CAL         0.4910   -0.6960    3.7680 ca        1 2G5     -0.149500
      5 CAN        -0.7920   -0.4770    3.2570 ca        1 2G5     -0.076000
      6 CAY        -0.9930   -0.5370    1.8740 ca        1 2G5     -0.177600
      7 CAX        -2.3390   -0.3430    1.2800 c         1 2G5      0.575700
      8 OAD        -2.8360   -1.1130    0.4590 o         1 2G5     -0.483100
      9 NAR        -3.0500    0.8700    1.7150 ny        1 2G5     -0.678800
     10 CBA        -4.4510    1.0440    1.2220 c3        1 2G5     -0.054500
     11 CAW        -4.5120    2.2820    0.2380 c         1 2G5      0.934600
     12 OAH        -5.6140    2.5230   -0.2940 o         1 2G5     -0.801800
     13 OAC        -3.4150    2.8780    0.0190 o         1 2G5     -0.801800
     14 CAQ        -5.4760    1.1270    2.3730 c3        1 2G5      0.194400
     15 OAT        -5.1180    2.0030    3.3970 os        1 2G5     -0.577200
     16 PBB        -4.6070    1.4740    4.8630 p5        1 2G5      1.374700
     17 OAI        -4.4330    2.6750    5.6890 o         1 2G5     -0.801500
     18 OAE        -3.4690    0.5900    4.4410 o         1 2G5     -0.801500
     19 N          -5.7990    0.4080    5.4570 ny        1 2G5     -0.816100
     20 CA         -6.4760    0.8930    6.6840 c3        1 2G5     -0.023500
     21 C          -5.9360    0.1650    7.9790 c         1 2G5      0.921600
     22 O          -5.1660   -0.8230    7.8110 o         1 2G5     -0.820800
     23 OXT        -6.3220    0.6190    9.0830 o         1 2G5     -0.820800
     24 CB         -7.9890    0.6670    6.6620 c3        1 2G5     -0.066400
     25 CG         -8.7140    1.2580    5.4740 c3        1 2G5     -0.209400
     26 CD         -8.9460    0.2420    4.3510 c         1 2G5      0.910600
     27 OE2        -7.9290   -0.2500    3.7480 o         1 2G5     -0.846300
     28 OE1       -10.1240   -0.0710    4.0380 o         1 2G5     -0.846300
     29 H1         -0.1040   -0.8810   -0.0740 ha        1 2G5      0.187000
     30 H2          2.1870   -1.2450    0.8570 ha        1 2G5      0.135000
     31 H3          2.5630   -1.1310    3.3210 ha        1 2G5      0.122000
     32 H4          0.6490   -0.6490    4.8560 ha        1 2G5      0.135000
     33 H5         -1.6330   -0.2720    3.9560 ha        1 2G5      0.187000
     34 H6         -2.5210    1.7000    1.3590 hn        1 2G5      0.500800
     35 H7         -4.7380    0.1480    0.5990 hx        1 2G5      0.096700
     36 H9         -5.6470    0.0960    2.7880 h1        1 2G5      0.073200
     37 H10        -6.4310    1.5140    1.9100 h1        1 2G5      0.073200
     38 H12        -6.5400    0.1810    4.7420 hn        1 2G5      0.484300
     39 H13        -6.2500    1.9950    6.7860 hx        1 2G5      0.109700
     40 H15        -8.1940   -0.4350    6.7130 hc        1 2G5      0.056200
     41 H16        -8.3750    1.1220    7.6140 hc        1 2G5      0.056200
     42 H17        -9.7150    1.6360    5.8080 hc        1 2G5      0.036700
     43 H18        -8.1500    2.1290    5.0540 hc        1 2G5      0.036700
     44 HAR2       -3.0580    0.9000    2.7760 hn        1 2G5      0.500800
     45 H21        -5.3670   -0.4940    5.7160 hn        1 2G5      0.484300
@<TRIPOS>BOND
     1    1    2 ar  
     2    1    6 ar  
     3    1   29 1   
     4    2    3 ar  
     5    2   30 1   
     6    3    4 ar  
     7    3   31 1   
     8    4    5 ar  
     9    4   32 1   
    10    5    6 ar  
    11    5   33 1   
    12    6    7 1   
    13    7    8 2   
    14    7    9 1   
    15    9   10 1   
    16    9   34 1   
    17    9   44 1   
    18   10   11 1   
    19   10   14 1   
    20   10   35 1   
    21   11   12 1   
    22   11   13 1   
    23   14   15 1   
    24   14   36 1   
    25   14   37 1   
    26   15   16 1   
    27   16   17 1   
    28   16   18 1   
    29   16   19 1   
    30   19   20 1   
    31   19   38 1   
    32   19   45 1   
    33   20   21 1   
    34   20   24 1   
    35   20   39 1   
    36   21   22 1   
    37   21   23 1   
    38   24   25 1   
    39   24   40 1   
    40   24   41 1   
    41   25   26 1   
    42   25   42 1   
    43   25   43 1   
    44   26   27 1   
    45   26   28 1   
@<TRIPOS>SUBSTRUCTURE
     1 2G5         1 TEMP              0 ****  ****    0 ROOT
