@<TRIPOS>MOLECULE
2G5
   45    45     1     0     0
SMALL
bcc


@<TRIPOS>ATOM
      1 CAM         0.0760   -0.7850    0.9970 ca        1 2G5     -0.076000
      2 CAK         1.3570   -0.9610    1.5120 ca        1 2G5     -0.149500
      3 CAJ         1.5750   -0.8720    2.8890 ca        1 2G5     -0.110000
      4 CAL         0.5120   -0.6080    3.7490 ca        1 2G5     -0.149500
      5 CAN        -0.7790   -0.4210    3.2450 ca        1 2G5     -0.076000
      6 CAY        -0.9890   -0.5060    1.8650 ca        1 2G5     -0.177600
      7 CAX        -2.3430   -0.3450    1.2780 c         1 2G5      0.575700
      8 OAD        -2.8320   -1.1370    0.4720 o         1 2G5     -0.483100
      9 NAR        -3.0730    0.8610    1.6990 n4        1 2G5     -0.678800
     10 CBA        -4.4800    1.0020    1.2140 c3        1 2G5     -0.054500
     11 CAW        -4.5710    2.2220    0.2120 c         1 2G5      0.934600
     12 OAH        -5.6810    2.4360   -0.3160 o         1 2G5     -0.801800
     13 OAC        -3.4870    2.8350   -0.0260 o         1 2G5     -0.801800
     14 CAQ        -5.4980    1.0850    2.3720 c3        1 2G5      0.194400
     15 OAT        -5.1480    1.9830    3.3790 os        1 2G5     -0.577200
     16 PBB        -4.6160    1.4870    4.8490 p5        1 2G5      1.374700
     17 OAI        -4.4580    2.7040    5.6550 o         1 2G5     -0.801500
     18 OAE        -3.4650    0.6170    4.4320 o         1 2G5     -0.801500
     19 N          -5.7840    0.4090    5.4700 n4        1 2G5     -0.816100
     20 CA         -6.4600    0.9010    6.6940 c3        1 2G5     -0.023500
     21 C          -5.8970    0.2050    7.9960 c         1 2G5      0.921600
     22 O          -5.1110   -0.7720    7.8380 o         1 2G5     -0.820800
     23 OXT        -6.2840    0.6690    9.0960 o         1 2G5     -0.820800
     24 CB         -7.9700    0.6470    6.6870 c3        1 2G5     -0.066400
     25 CG         -8.7140    1.2050    5.4950 c3        1 2G5     -0.209400
     26 CD         -8.9360    0.1660    4.3910 c         1 2G5      0.910600
     27 OE2        -7.9140   -0.3160    3.7880 o         1 2G5     -0.846300
     28 OE1       -10.1100   -0.1740    4.0920 o         1 2G5     -0.846300
     29 H1         -0.1090   -0.8650   -0.0850 ha        1 2G5      0.187000
     30 H2          2.1960   -1.1720    0.8340 ha        1 2G5      0.135000
     31 H3          2.5880   -1.0120    3.2930 ha        1 2G5      0.122000
     32 H4          0.6770   -0.5410    4.8350 ha        1 2G5      0.135000
     33 H5         -1.6180   -0.2200    3.9470 ha        1 2G5      0.187000
     34 H6         -2.5610    1.6950    1.3260 hn        1 2G5      0.500800
     35 H7         -4.7560    0.0900    0.6080 hx        1 2G5      0.096700
     36 H9         -5.6470    0.0570    2.8050 h1        1 2G5      0.073200
     37 H10        -6.4630    1.4460    1.9110 h1        1 2G5      0.073200
     38 H12        -6.5260    0.1560    4.7640 hn        1 2G5      0.484300
     39 H13        -6.2550    2.0090    6.7760 hx        1 2G5      0.109700
     40 H15        -8.1530   -0.4590    6.7570 hc        1 2G5      0.056200
     41 H16        -8.3570    1.1100    7.6350 hc        1 2G5      0.056200
     42 H17        -9.7190    1.5700    5.8310 hc        1 2G5      0.036700
     43 H18        -8.1700    2.0790    5.0580 hc        1 2G5      0.036700
     44 HAR2       -3.0740    0.9080    2.7600 hn        1 2G5      0.500800
     45 H21        -5.3330   -0.4810    5.7400 hn        1 2G5      0.484300
@<TRIPOS>BOND
     1    1    2 ar  
     2    1    6 ar  
     3    1   29 1   
     4    2    3 ar  
     5    2   30 1   
     6    3    4 ar  
     7    3   31 1   
     8    4    5 ar  
     9    4   32 1   
    10    5    6 ar  
    11    5   33 1   
    12    6    7 1   
    13    7    8 2   
    14    7    9 1   
    15    9   10 1   
    16    9   34 1   
    17    9   44 1   
    18   10   11 1   
    19   10   14 1   
    20   10   35 1   
    21   11   12 1   
    22   11   13 1   
    23   14   15 1   
    24   14   36 1   
    25   14   37 1   
    26   15   16 1   
    27   16   17 1   
    28   16   18 1   
    29   16   19 1   
    30   19   20 1   
    31   19   38 1   
    32   19   45 1   
    33   20   21 1   
    34   20   24 1   
    35   20   39 1   
    36   21   22 1   
    37   21   23 1   
    38   24   25 1   
    39   24   40 1   
    40   24   41 1   
    41   25   26 1   
    42   25   42 1   
    43   25   43 1   
    44   26   27 1   
    45   26   28 1   
@<TRIPOS>SUBSTRUCTURE
     1 2G5         1 TEMP              0 ****  ****    0 ROOT
