@<TRIPOS>MOLECULE
2G7
   63    63     1     0     0
SMALL
bcc


@<TRIPOS>ATOM
      1 C7          0.3630    0.6610   -0.6810 c3        1 2G7      0.278700
      2 C6          1.5290    0.3710    0.1310 ca        1 2G7     -0.200300
      3 C1          1.4940    0.5750    1.5260 ca        1 2G7     -0.056500
      4 C2          2.6410    0.3870    2.2870 ca        1 2G7     -0.135500
      5 C3          3.8320   -0.0190    1.6740 ca        1 2G7     -0.024000
      6 C4          3.8720   -0.2390    0.2930 ca        1 2G7     -0.135500
      7 C5          2.7300   -0.0510   -0.4770 ca        1 2G7     -0.056500
      8 C9         -1.5950   -0.7760   -1.1580 c         1 2G7      0.648100
      9 O10        -2.4000    0.0800   -1.4860 o         1 2G7     -0.447000
     10 O8         -0.3580   -0.7540   -0.7710 os        1 2G7     -0.417900
     11 N11        -2.1060   -2.2760   -1.1730 n4        1 2G7     -0.664800
     12 C12        -3.5670   -2.4030   -1.2540 c3        1 2G7     -0.234400
     13 P13        -4.2210   -2.8510   -2.7120 p5        1 2G7      1.490200
     14 O14        -5.1500   -2.0020   -3.4380 o         1 2G7     -0.776300
     15 O15        -3.0250   -3.4510   -3.5400 oh        1 2G7     -0.804400
     16 N16        -5.2200   -4.2680   -2.3900 n4        1 2G7     -0.809100
     17 C17        -6.2810   -4.3730   -3.4640 c3        1 2G7      0.061500
     18 C22        -7.5020   -3.4820   -3.1280 c         1 2G7      0.530100
     19 O23        -8.0220   -3.4860   -2.0220 o         1 2G7     -0.380100
     20 C18        -6.7830   -5.8180   -3.6370 c3        1 2G7     -0.122400
     21 C19        -7.7890   -5.9480   -4.7780 c3        1 2G7     -0.065700
     22 C20        -7.1810   -5.6100   -6.1220 c3        1 2G7     -0.112600
     23 C21        -8.3190   -7.3730   -4.7910 c3        1 2G7     -0.112600
     24 C28        -9.9370   -1.7920   -6.3700 c3        1 2G7     -0.115600
     25 C26        -9.8150   -1.0690   -5.0480 c3        1 2G7     -0.083700
     26 C29       -11.1550   -0.4920   -4.6250 c3        1 2G7     -0.115600
     27 C25        -9.3540   -2.0080   -3.9260 c3        1 2G7      0.108800
     28 N24        -7.9870   -2.5860   -4.2010 n4        1 2G7     -0.653800
     29 H25         0.5600    0.8840   -1.7560 h1        1 2G7      0.098700
     30 H26        -0.4040    1.3250   -0.2180 h1        1 2G7      0.098700
     31 H27         0.5630    0.9110    2.0090 ha        1 2G7      0.143000
     32 H28         2.6180    0.5680    3.3750 ha        1 2G7      0.174000
     33 H29         4.7440   -0.1580    2.2810 ha        1 2G7      0.177000
     34 H30         4.8160   -0.5500   -0.1860 ha        1 2G7      0.174000
     35 H31         2.7680   -0.2110   -1.5660 ha        1 2G7      0.143000
     36 H32        -1.6470   -2.7570   -1.9580 hn        1 2G7      0.480800
     37 H23        -3.9910   -1.3580   -0.9860 hx        1 2G7      0.198700
     38 H24        -3.9070   -3.0180   -0.3610 hx        1 2G7      0.198700
     39 H22        -2.8910   -3.2970   -4.4870 ho        1 2G7      0.574000
     40 H1         -5.7000   -4.2650   -1.4810 hn        1 2G7      0.492800
     41 H2         -5.7860   -4.0380   -4.4280 hx        1 2G7      0.133700
     42 H3         -5.9120   -6.4940   -3.8570 hc        1 2G7      0.104200
     43 H4         -7.2690   -6.1660   -2.6840 hc        1 2G7      0.104200
     44 H5         -8.6580   -5.2610   -4.5740 hc        1 2G7      0.031700
     45 H6         -6.3010   -6.2630   -6.3390 hc        1 2G7      0.065700
     46 H7         -7.9340   -5.7840   -6.9330 hc        1 2G7      0.065700
     47 H8         -6.8560   -4.5420   -6.1710 hc        1 2G7      0.065700
     48 H9         -8.7950   -7.6290   -3.8140 hc        1 2G7      0.065700
     49 H10        -7.4970   -8.1010   -4.9960 hc        1 2G7      0.065700
     50 H11        -9.0890   -7.4800   -5.5960 hc        1 2G7      0.065700
     51 H19       -10.5670   -2.7100   -6.2740 hc        1 2G7      0.068533
     52 H20       -10.4320   -1.1200   -7.1180 hc        1 2G7      0.068533
     53 H21        -8.9380   -2.0710   -6.7840 hc        1 2G7      0.068533
     54 H15        -9.0800   -0.2210   -5.1520 hc        1 2G7      0.076700
     55 H16       -11.0720    0.0380   -3.6460 hc        1 2G7      0.068533
     56 H17       -11.9280   -1.2940   -4.5410 hc        1 2G7      0.068533
     57 H18       -11.4970    0.2450   -5.3950 hc        1 2G7      0.068533
     58 H13        -9.3010   -1.4500   -2.9470 hx        1 2G7      0.120700
     59 H14       -10.0730   -2.8710   -3.8190 hx        1 2G7      0.120700
     60 H12        -8.0270   -3.1010   -5.0980 hn        1 2G7      0.493300
     61 H112       -1.7510   -2.6950   -0.2980 hn        1 2G7      0.480800
     62 H162       -4.6930   -5.1550   -2.4220 hn        1 2G7      0.492800
     63 H242       -7.3020   -1.8100   -4.3010 hn        1 2G7      0.493300
@<TRIPOS>BOND
     1    1    2 1   
     2    1   10 1   
     3    1   29 1   
     4    1   30 1   
     5    2    3 ar  
     6    2    7 ar  
     7    3    4 ar  
     8    3   31 1   
     9    4    5 ar  
    10    4   32 1   
    11    5    6 ar  
    12    5   33 1   
    13    6    7 ar  
    14    6   34 1   
    15    7   35 1   
    16    8    9 2   
    17    8   10 1   
    18    8   11 1   
    19   11   12 1   
    20   11   36 1   
    21   11   61 1   
    22   12   13 1   
    23   12   37 1   
    24   12   38 1   
    25   13   14 2   
    26   13   15 1   
    27   13   16 1   
    28   15   39 1   
    29   16   17 1   
    30   16   40 1   
    31   16   62 1   
    32   17   18 1   
    33   17   20 1   
    34   17   41 1   
    35   18   19 2   
    36   18   28 1   
    37   20   21 1   
    38   20   42 1   
    39   20   43 1   
    40   21   22 1   
    41   21   23 1   
    42   21   44 1   
    43   22   45 1   
    44   22   46 1   
    45   22   47 1   
    46   23   48 1   
    47   23   49 1   
    48   23   50 1   
    49   24   25 1   
    50   24   51 1   
    51   24   52 1   
    52   24   53 1   
    53   25   26 1   
    54   25   27 1   
    55   25   54 1   
    56   26   55 1   
    57   26   56 1   
    58   26   57 1   
    59   27   28 1   
    60   27   58 1   
    61   27   59 1   
    62   28   60 1   
    63   28   63 1   
@<TRIPOS>SUBSTRUCTURE
     1 2G7         1 TEMP              0 ****  ****    0 ROOT
