@<TRIPOS>MOLECULE
2G7
   62    62     1     0     0
SMALL
bcc


@<TRIPOS>ATOM
      1 C7          0.2380    0.5830   -0.4950 c3        1 2G7      0.230700
      2 C6          1.5420    0.2450    0.1100 ca        1 2G7     -0.167300
      3 C1          1.7190    0.3450    1.4970 ca        1 2G7     -0.083000
      4 C2          2.9660    0.0840    2.0590 ca        1 2G7     -0.129000
      5 C3          4.0380   -0.2850    1.2440 ca        1 2G7     -0.070000
      6 C4          3.8630   -0.3930   -0.1380 ca        1 2G7     -0.129000
      7 C5          2.6180   -0.1320   -0.7060 ca        1 2G7     -0.083000
      8 C9         -1.7450   -0.6750   -0.9920 c         1 2G7      0.621100
      9 O10        -2.4120    0.3050   -1.2880 o         1 2G7     -0.433000
     10 O8         -0.4850   -0.7260   -0.5700 os        1 2G7     -0.400900
     11 N11        -2.3160   -2.0800   -1.0690 ny        1 2G7     -0.623800
     12 C12        -3.7860   -2.1150   -1.1400 c3        1 2G7     -0.178400
     13 P13        -4.3570   -2.6530   -2.6680 p5        1 2G7      1.231500
     14 O14        -5.4860   -1.8430   -3.1570 o         1 2G7     -0.750000
     15 O15        -3.2060   -3.2250   -3.3690 o         1 2G7     -0.750000
     16 N16        -5.3370   -4.1860   -2.2850 ny        1 2G7     -0.743100
     17 C17        -6.3240   -4.3320   -3.3900 c3        1 2G7      0.072500
     18 C22        -7.6060   -3.5240   -3.0930 c         1 2G7      0.549100
     19 O23        -8.2490   -3.6380   -2.0600 o         1 2G7     -0.405100
     20 C18        -6.7430   -5.7910   -3.6410 c3        1 2G7     -0.117400
     21 C19        -7.6690   -5.9270   -4.8430 c3        1 2G7     -0.065700
     22 C20        -6.9840   -5.5490   -6.1390 c3        1 2G7     -0.106600
     23 C21        -8.1700   -7.3580   -4.9170 c3        1 2G7     -0.106600
     24 C28       -11.2690   -0.6360   -4.7600 c3        1 2G7     -0.112100
     25 C26        -9.8370   -1.0520   -5.0410 c3        1 2G7     -0.084700
     26 C29        -9.6990   -1.5780   -6.4520 c3        1 2G7     -0.112100
     27 C25        -9.4530   -2.1110   -4.0010 c3        1 2G7      0.105800
     28 N24        -8.0220   -2.5380   -4.1260 ny        1 2G7     -0.655800
     29 H25         0.3140    0.9560   -1.5490 h1        1 2G7      0.087700
     30 H26        -0.3900    1.2630    0.1350 h1        1 2G7      0.087700
     31 H27         0.8780    0.6460    2.1420 ha        1 2G7      0.137500
     32 H28         3.1080    0.1750    3.1480 ha        1 2G7      0.158500
     33 H29         5.0260   -0.4860    1.6900 ha        1 2G7      0.161000
     34 H30         4.7110   -0.6780   -0.7800 ha        1 2G7      0.158500
     35 H31         2.4840   -0.2080   -1.7960 ha        1 2G7      0.137500
     36 H32        -1.9690   -2.5890   -0.2440 hn        1 2G7      0.491800
     37 H23        -4.1900   -1.0620   -0.9730 hx        1 2G7      0.156700
     38 H24        -4.1740   -2.7000   -0.2610 hx        1 2G7      0.156700
     39 H1         -4.7240   -5.0050   -2.3110 hn        1 2G7      0.455300
     40 H2         -5.8060   -3.9440   -4.3260 hx        1 2G7      0.136700
     41 H3         -7.2600   -6.1940   -2.7280 hc        1 2G7      0.094700
     42 H4         -5.8240   -6.4110   -3.8260 hc        1 2G7      0.094700
     43 H5         -8.5620   -5.2550   -4.6890 hc        1 2G7      0.022700
     44 H6         -6.0460   -6.1410   -6.2800 hc        1 2G7      0.058200
     45 H7         -7.6580   -5.7650   -7.0050 hc        1 2G7      0.058200
     46 H8         -6.7240   -4.4630   -6.1630 hc        1 2G7      0.058200
     47 H9         -8.7020   -7.6400   -3.9770 hc        1 2G7      0.058200
     48 H10        -7.3190   -8.0650   -5.0750 hc        1 2G7      0.058200
     49 H11        -8.8810   -7.4680   -5.7720 hc        1 2G7      0.058200
     50 H19       -11.5640    0.1780   -5.4680 hc        1 2G7      0.061867
     51 H20       -11.3740   -0.2490   -3.7170 hc        1 2G7      0.061867
     52 H21       -11.9680   -1.4950   -4.9000 hc        1 2G7      0.061867
     53 H15        -9.1730   -0.1490   -4.9150 hc        1 2G7      0.076700
     54 H16       -10.1500   -0.8460   -7.1700 hc        1 2G7      0.061867
     55 H17        -8.6280   -1.7130   -6.7390 hc        1 2G7      0.061867
     56 H18       -10.2370   -2.5500   -6.5740 hc        1 2G7      0.061867
     57 H13        -9.6000   -1.7010   -2.9600 hx        1 2G7      0.113200
     58 H14       -10.0970   -3.0280   -4.1230 hx        1 2G7      0.113200
     59 H12        -7.4000   -1.7060   -4.0260 hn        1 2G7      0.493300
     60 H112       -1.9150   -2.5350   -1.9230 hn        1 2G7      0.491800
     61 H162       -5.8220   -4.1870   -1.3930 hn        1 2G7      0.455300
     62 H242       -7.8700   -2.9370   -5.0640 hn        1 2G7      0.493300
@<TRIPOS>BOND
     1    1    2 1   
     2    1   10 1   
     3    1   29 1   
     4    1   30 1   
     5    2    3 ar  
     6    2    7 ar  
     7    3    4 ar  
     8    3   31 1   
     9    4    5 ar  
    10    4   32 1   
    11    5    6 ar  
    12    5   33 1   
    13    6    7 ar  
    14    6   34 1   
    15    7   35 1   
    16    8    9 2   
    17    8   10 1   
    18    8   11 1   
    19   11   12 1   
    20   11   36 1   
    21   11   60 1   
    22   12   13 1   
    23   12   37 1   
    24   12   38 1   
    25   13   14 1   
    26   13   15 1   
    27   13   16 1   
    28   16   17 1   
    29   16   39 1   
    30   16   61 1   
    31   17   18 1   
    32   17   20 1   
    33   17   40 1   
    34   18   19 2   
    35   18   28 1   
    36   20   21 1   
    37   20   41 1   
    38   20   42 1   
    39   21   22 1   
    40   21   23 1   
    41   21   43 1   
    42   22   44 1   
    43   22   45 1   
    44   22   46 1   
    45   23   47 1   
    46   23   48 1   
    47   23   49 1   
    48   24   25 1   
    49   24   50 1   
    50   24   51 1   
    51   24   52 1   
    52   25   26 1   
    53   25   27 1   
    54   25   53 1   
    55   26   54 1   
    56   26   55 1   
    57   26   56 1   
    58   27   28 1   
    59   27   57 1   
    60   27   58 1   
    61   28   59 1   
    62   28   62 1   
@<TRIPOS>SUBSTRUCTURE
     1 2G7         1 TEMP              0 ****  ****    0 ROOT
