@<TRIPOS>MOLECULE
2G7
   62    62     1     0     0
SMALL
bcc


@<TRIPOS>ATOM
      1 C7          0.2300    0.5970   -0.5050 c3        1 2G7      0.230700
      2 C6          1.5260    0.2590    0.1150 ca        1 2G7     -0.167300
      3 C1          1.6920    0.3760    1.5030 ca        1 2G7     -0.083000
      4 C2          2.9330    0.1140    2.0780 ca        1 2G7     -0.129000
      5 C3          4.0090   -0.2730    1.2760 ca        1 2G7     -0.070000
      6 C4          3.8440   -0.3980   -0.1050 ca        1 2G7     -0.129000
      7 C5          2.6060   -0.1370   -0.6870 ca        1 2G7     -0.083000
      8 C9         -1.7590   -0.6550   -0.9980 c         1 2G7      0.621100
      9 O10        -2.4200    0.3260   -1.3050 o         1 2G7     -0.433000
     10 O8         -0.5000   -0.7090   -0.5710 os        1 2G7     -0.400900
     11 N11        -2.3370   -2.0570   -1.0660 n4        1 2G7     -0.623800
     12 C12        -3.8070   -2.0850   -1.1410 c3        1 2G7     -0.178400
     13 P13        -4.3770   -2.6310   -2.6670 p5        1 2G7      1.231500
     14 O14        -5.4990   -1.8180   -3.1650 o         1 2G7     -0.750000
     15 O15        -3.2260   -3.2140   -3.3610 o         1 2G7     -0.750000
     16 N16        -5.3660   -4.1550   -2.2770 n4        1 2G7     -0.743100
     17 C17        -6.3490   -4.3040   -3.3840 c3        1 2G7      0.072500
     18 C22        -7.6290   -3.4880   -3.0970 c         1 2G7      0.549100
     19 O23        -8.2760   -3.5910   -2.0650 o         1 2G7     -0.405100
     20 C18        -6.7760   -5.7620   -3.6260 c3        1 2G7     -0.117400
     21 C19        -7.6980   -5.9020   -4.8310 c3        1 2G7     -0.065700
     22 C20        -7.0050   -5.5370   -6.1260 c3        1 2G7     -0.106600
     23 C21        -8.2060   -7.3310   -4.8960 c3        1 2G7     -0.106600
     24 C28       -11.2720   -0.5960   -4.7990 c3        1 2G7     -0.112100
     25 C26        -9.8400   -1.0180   -5.0700 c3        1 2G7     -0.084700
     26 C29        -9.6960   -1.5520   -6.4780 c3        1 2G7     -0.112100
     27 C25        -9.4650   -2.0730   -4.0220 c3        1 2G7      0.105800
     28 N24        -8.0360   -2.5070   -4.1380 n4        1 2G7     -0.655800
     29 H25         0.3160    0.9570   -1.5620 h1        1 2G7      0.087700
     30 H26        -0.4000    1.2880    0.1130 h1        1 2G7      0.087700
     31 H27         0.8490    0.6900    2.1360 ha        1 2G7      0.137500
     32 H28         3.0680    0.2180    3.1660 ha        1 2G7      0.158500
     33 H29         4.9920   -0.4750    1.7330 ha        1 2G7      0.161000
     34 H30         4.6960   -0.6980   -0.7370 ha        1 2G7      0.158500
     35 H31         2.4800   -0.2270   -1.7770 ha        1 2G7      0.137500
     36 H32        -1.9360   -2.5210   -1.9150 hn        1 2G7      0.491800
     37 H23        -4.2010   -2.6610   -0.2600 hx        1 2G7      0.156700
     38 H24        -4.2060   -1.0280   -0.9820 hx        1 2G7      0.156700
     39 H1         -5.8530   -4.1480   -1.3860 hn        1 2G7      0.455300
     40 H2         -5.8270   -3.9250   -4.3200 hx        1 2G7      0.136700
     41 H3         -5.8590   -6.3890   -3.8030 hc        1 2G7      0.094700
     42 H4         -7.2980   -6.1570   -2.7130 hc        1 2G7      0.094700
     43 H5         -8.5880   -5.2240   -4.6840 hc        1 2G7      0.022700
     44 H6         -6.7410   -4.4520   -6.1580 hc        1 2G7      0.058200
     45 H7         -6.0710   -6.1350   -6.2600 hc        1 2G7      0.058200
     46 H8         -7.6780   -5.7560   -6.9930 hc        1 2G7      0.058200
     47 H9         -7.3590   -8.0440   -5.0460 hc        1 2G7      0.058200
     48 H10        -8.7430   -7.6040   -3.9560 hc        1 2G7      0.058200
     49 H11        -8.9150   -7.4430   -5.7530 hc        1 2G7      0.058200
     50 H19       -11.9740   -1.4540   -4.9390 hc        1 2G7      0.061867
     51 H20       -11.3820   -0.2040   -3.7590 hc        1 2G7      0.061867
     52 H21       -11.5610    0.2150   -5.5130 hc        1 2G7      0.061867
     53 H15        -9.1740   -0.1170   -4.9450 hc        1 2G7      0.076700
     54 H16       -10.2360   -2.5230   -6.5970 hc        1 2G7      0.061867
     55 H17        -8.6240   -1.6910   -6.7580 hc        1 2G7      0.061867
     56 H18       -10.1410   -0.8230   -7.2020 hc        1 2G7      0.061867
     57 H13       -10.1130   -2.9880   -4.1430 hx        1 2G7      0.113200
     58 H14        -9.6160   -1.6570   -2.9840 hx        1 2G7      0.113200
     59 H12        -7.8800   -2.9120   -5.0720 hn        1 2G7      0.493300
     60 H112       -1.9960   -2.5620   -0.2360 hn        1 2G7      0.491800
     61 H162       -4.7570   -4.9780   -2.2950 hn        1 2G7      0.455300
     62 H242       -7.4100   -1.6760   -4.0400 hn        1 2G7      0.493300
@<TRIPOS>BOND
     1    1    2 1   
     2    1   10 1   
     3    1   29 1   
     4    1   30 1   
     5    2    3 ar  
     6    2    7 ar  
     7    3    4 ar  
     8    3   31 1   
     9    4    5 ar  
    10    4   32 1   
    11    5    6 ar  
    12    5   33 1   
    13    6    7 ar  
    14    6   34 1   
    15    7   35 1   
    16    8    9 2   
    17    8   10 1   
    18    8   11 1   
    19   11   12 1   
    20   11   36 1   
    21   11   60 1   
    22   12   13 1   
    23   12   37 1   
    24   12   38 1   
    25   13   14 1   
    26   13   15 1   
    27   13   16 1   
    28   16   17 1   
    29   16   39 1   
    30   16   61 1   
    31   17   18 1   
    32   17   20 1   
    33   17   40 1   
    34   18   19 2   
    35   18   28 1   
    36   20   21 1   
    37   20   41 1   
    38   20   42 1   
    39   21   22 1   
    40   21   23 1   
    41   21   43 1   
    42   22   44 1   
    43   22   45 1   
    44   22   46 1   
    45   23   47 1   
    46   23   48 1   
    47   23   49 1   
    48   24   25 1   
    49   24   50 1   
    50   24   51 1   
    51   24   52 1   
    52   25   26 1   
    53   25   27 1   
    54   25   53 1   
    55   26   54 1   
    56   26   55 1   
    57   26   56 1   
    58   27   28 1   
    59   27   57 1   
    60   27   58 1   
    61   28   59 1   
    62   28   62 1   
@<TRIPOS>SUBSTRUCTURE
     1 2G7         1 TEMP              0 ****  ****    0 ROOT
