@<TRIPOS>MOLECULE
2GA
   25    22     1     0     0
SMALL
bcc


@<TRIPOS>ATOM
      1 C14        -1.8900   -1.5480    2.5010 c3        1 2GA     -0.180000
      2 C10        -0.3780   -1.5160    2.5200 c2        1 2GA      0.042000
      3 N4          0.4010   -1.5050    3.6220 n2        1 2GA     -0.156000
      4 N8          1.7120   -1.5010    3.2150 n2        1 2GA     -0.090000
      5 C9          1.7310   -1.5100    1.8660 c1        1 2GA     -0.048000
      6 C13         2.9670   -1.5460    0.9950 c2        1 2GA     -0.156000
      7 C1          0.4390   -1.5190    1.4260 c1        1 2GA     -0.453000
      8 S11        -0.0860   -1.6050   -0.2650 s         1 2GA      0.513000
      9 C2         -0.2390    0.0350   -0.9210 c2        1 2GA     -0.544000
     10 S3         -1.3540    0.5350   -1.8440 ss        1 2GA      0.514000
     11 N5          0.6970    1.0840   -0.7650 n2        1 2GA     -0.056000
     12 N7          0.2010    2.3240   -1.6040 n2        1 2GA     -0.070000
     13 C6         -1.0160    1.9770   -2.2350 c1        1 2GA     -0.525000
     14 S12        -2.0320    3.0590   -3.2060 s         1 2GA      0.330000
     15 C15        -1.1940    3.4600   -4.7160 c3        1 2GA     -0.364000
     16 H141       -2.2180   -1.9840    3.3150 hc        1 2GA      0.108667
     17 H142       -2.1970   -2.0480    1.7160 hc        1 2GA      0.108667
     18 H143       -2.2360   -0.6310    2.4590 hc        1 2GA      0.108667
     19 H4          0.1080   -1.5010    4.4850 DU        1 2GA      0.274000
     20 H131        3.7540   -1.7260    1.5510 ha        1 2GA      0.096333
     21 H132        3.0750   -0.6820    0.5450 ha        1 2GA      0.096333
     22 H133        2.8730   -2.2540    0.3230 ha        1 2GA      0.096333
     23 H151       -0.9040    2.6340   -5.1580 h1        1 2GA      0.118667
     24 H152       -1.8020    3.9510   -5.3070 h1        1 2GA      0.118667
     25 H153       -0.4110    4.0160   -4.5170 h1        1 2GA      0.118667
@<TRIPOS>BOND
     1    1    2 1   
     2    1   16 1   
     3    1   17 1   
     4    1   18 1   
     5    2    3 1   
     6    2    7 1   
     7    3    4 1   
     8    4    5 1   
     9    5    7 1   
    10    6   20 1   
    11    6   21 1   
    12    6   22 1   
    13    8    9 1   
    14    9   10 1   
    15    9   11 1   
    16   10   13 1   
    17   11   12 1   
    18   12   13 1   
    19   14   15 1   
    20   15   23 1   
    21   15   24 1   
    22   15   25 1   
@<TRIPOS>SUBSTRUCTURE
     1 2GA         1 TEMP              0 ****  ****    0 ROOT
