@<TRIPOS>MOLECULE
2GA
   25    26     1     0     0
SMALL
bcc


@<TRIPOS>ATOM
      1 C14        -2.2350    0.4480   -2.3470 c3        1 2GA     -0.054800
      2 C10        -2.7960    0.4380   -0.9870 cc        1 2GA      0.010400
      3 N4         -3.9200    1.1570   -0.5900 na        1 2GA     -0.011600
      4 N8         -4.2120    0.9940    0.7050 nc        1 2GA     -0.522800
      5 C9         -3.2710    0.1570    1.2180 cd        1 2GA      0.374600
      6 C13        -3.2170   -0.2920    2.6220 c3        1 2GA     -0.132400
      7 C1         -2.3340   -0.2410    0.1690 cd        1 2GA     -0.291400
      8 S11        -1.1020   -1.3290    0.3360 ss        1 2GA     -0.041200
      9 C2          0.3370   -0.4950    0.1900 cc        1 2GA      0.360700
     10 S3          1.7960   -1.1320    0.8400 ss        1 2GA     -0.114800
     11 N5          0.5450    0.6930   -0.4410 nd        1 2GA     -0.319000
     12 N7          1.7770    1.0930   -0.4170 nd        1 2GA     -0.333000
     13 C6          2.6240    0.2350    0.2180 cc        1 2GA      0.379700
     14 S12         4.2690    0.4280    0.4030 ss        1 2GA     -0.179400
     15 C15         4.6890    1.8520   -0.5220 c3        1 2GA     -0.064000
     16 H141       -1.4530    1.2480   -2.4250 hc        1 2GA      0.069367
     17 H142       -1.7490   -0.5380   -2.5550 hc        1 2GA      0.069367
     18 H143       -3.0190    0.6350   -3.1220 hc        1 2GA      0.069367
     19 H4         -4.4750    1.7580   -1.1550 hn        1 2GA      0.323700
     20 H131       -4.0880   -0.9560    2.8530 hc        1 2GA      0.057033
     21 H132       -2.2710   -0.8650    2.7960 hc        1 2GA      0.057033
     22 H133       -3.2450    0.5820    3.3200 hc        1 2GA      0.057033
     23 H151        4.4460    1.7420   -1.6030 h1        1 2GA      0.079367
     24 H152        4.1820    2.7670   -0.1430 h1        1 2GA      0.079367
     25 H153        5.7930    1.9640   -0.4010 h1        1 2GA      0.079367
@<TRIPOS>BOND
     1    1    2 1   
     2    1   16 1   
     3    1   17 1   
     4    1   18 1   
     5    2    3 1   
     6    2    7 2   
     7    3    4 1   
     8    3   19 1   
     9    4    5 2   
    10    5    6 1   
    11    5    7 1   
    12    6   20 1   
    13    6   21 1   
    14    6   22 1   
    15    7    8 1   
    16    8    9 1   
    17    9   10 1   
    18    9   11 2   
    19   10   13 1   
    20   11   12 1   
    21   12   13 2   
    22   13   14 1   
    23   14   15 1   
    24   15   23 1   
    25   15   24 1   
    26   15   25 1   
@<TRIPOS>SUBSTRUCTURE
     1 2GA         1 TEMP              0 ****  ****    0 ROOT
