@<TRIPOS>MOLECULE
2GA
   25    26     1     0     0
SMALL
bcc


@<TRIPOS>ATOM
      1 C14         0.1900    0.5790   -0.0380 c3        1 2GA     -0.054800
      2 C10         1.6010    0.1640   -0.0940 cc        1 2GA      0.010400
      3 N4          2.3620   -0.2010    1.0130 na        1 2GA     -0.011600
      4 N8          3.6230   -0.5150    0.6970 nc        1 2GA     -0.522800
      5 C9          3.7430   -0.3560   -0.6490 cd        1 2GA      0.374600
      6 C13         4.9760   -0.5990   -1.4210 c3        1 2GA     -0.132400
      7 C1          2.4660    0.0740   -1.2150 cd        1 2GA     -0.291400
      8 S11         2.1420    0.2820   -2.8210 ss        1 2GA     -0.041200
      9 C2          1.8900    1.9110   -3.0830 cc        1 2GA      0.360700
     10 S3          2.0790    2.5930   -4.6520 ss        1 2GA     -0.114800
     11 N5          1.5020    2.8460   -2.1740 nd        1 2GA     -0.319000
     12 N7          1.3620    4.0360   -2.6680 nd        1 2GA     -0.333000
     13 C6          1.6130    4.1110   -4.0050 cc        1 2GA      0.379700
     14 S12         1.4990    5.4750   -4.9550 ss        1 2GA     -0.179400
     15 C15         0.8370    6.7230   -3.9230 c3        1 2GA     -0.064000
     16 H141       -0.3520    0.1060    0.8180 hc        1 2GA      0.069367
     17 H142       -0.3200    0.2910   -0.9920 hc        1 2GA      0.069367
     18 H143        0.1300    1.6940    0.0680 hc        1 2GA      0.069367
     19 H4          2.0640   -0.2260    1.9600 hn        1 2GA      0.323700
     20 H131        5.2290   -1.6890   -1.4190 hc        1 2GA      0.057033
     21 H132        4.8270   -0.2650   -2.4780 hc        1 2GA      0.057033
     22 H133        5.8370   -0.0360   -0.9810 hc        1 2GA      0.057033
     23 H151        0.7540    7.6260   -4.5730 h1        1 2GA      0.079367
     24 H152       -0.1700    6.4570   -3.5300 h1        1 2GA      0.079367
     25 H153        1.4990    6.9500   -3.0580 h1        1 2GA      0.079367
@<TRIPOS>BOND
     1    1    2 1   
     2    1   16 1   
     3    1   17 1   
     4    1   18 1   
     5    2    3 1   
     6    2    7 2   
     7    3    4 1   
     8    3   19 1   
     9    4    5 2   
    10    5    6 1   
    11    5    7 1   
    12    6   20 1   
    13    6   21 1   
    14    6   22 1   
    15    7    8 1   
    16    8    9 1   
    17    9   10 1   
    18    9   11 2   
    19   10   13 1   
    20   11   12 1   
    21   12   13 2   
    22   13   14 1   
    23   14   15 1   
    24   15   23 1   
    25   15   24 1   
    26   15   25 1   
@<TRIPOS>SUBSTRUCTURE
     1 2GA         1 TEMP              0 ****  ****    0 ROOT
