@<TRIPOS>MOLECULE
2GA
   25    26     1     0     0
SMALL
bcc


@<TRIPOS>ATOM
      1 C14         0.2550    0.6200    0.0600 c3        1 2GA     -0.054800
      2 C10         1.6570    0.1880   -0.0550 cc        1 2GA      0.010400
      3 N4          2.4630   -0.1740    1.0200 na        1 2GA     -0.011600
      4 N8          3.7050   -0.5060    0.6500 nc        1 2GA     -0.522800
      5 C9          3.7650   -0.3630   -0.7010 cd        1 2GA      0.374600
      6 C13         4.9600   -0.6290   -1.5260 c3        1 2GA     -0.132400
      7 C1          2.4690    0.0750   -1.2130 cd        1 2GA     -0.291400
      8 S11         2.0740    0.2700   -2.8050 ss        1 2GA     -0.041200
      9 C2          1.8300    1.8990   -3.0740 cc        1 2GA      0.360700
     10 S3          1.9540    2.5610   -4.6570 ss        1 2GA     -0.114800
     11 N5          1.4960    2.8480   -2.1590 nd        1 2GA     -0.319000
     12 N7          1.3470    4.0340   -2.6590 nd        1 2GA     -0.333000
     13 C6          1.5360    4.0920   -4.0080 cc        1 2GA      0.379700
     14 S12         1.3950    5.4470   -4.9670 ss        1 2GA     -0.179400
     15 C15         0.7960    6.7130   -3.9200 c3        1 2GA     -0.064000
     16 H141       -0.2520    0.1640    0.9460 hc        1 2GA      0.069367
     17 H142       -0.3010    0.3270   -0.8660 hc        1 2GA      0.069367
     18 H143        0.2120    1.7370    0.1550 hc        1 2GA      0.069367
     19 H4          2.2090   -0.1850    1.9800 hn        1 2GA      0.323700
     20 H131        5.2000   -1.7220   -1.5220 hc        1 2GA      0.057033
     21 H132        4.7660   -0.3060   -2.5790 hc        1 2GA      0.057033
     22 H133        5.8460   -0.0710   -1.1320 hc        1 2GA      0.057033
     23 H151        0.6940    7.6110   -4.5750 h1        1 2GA      0.079367
     24 H152       -0.1940    6.4650   -3.4780 h1        1 2GA      0.079367
     25 H153        1.5010    6.9420   -3.0890 h1        1 2GA      0.079367
@<TRIPOS>BOND
     1    1    2 1   
     2    1   16 1   
     3    1   17 1   
     4    1   18 1   
     5    2    3 1   
     6    2    7 2   
     7    3    4 1   
     8    3   19 1   
     9    4    5 2   
    10    5    6 1   
    11    5    7 1   
    12    6   20 1   
    13    6   21 1   
    14    6   22 1   
    15    7    8 1   
    16    8    9 1   
    17    9   10 1   
    18    9   11 2   
    19   10   13 1   
    20   11   12 1   
    21   12   13 2   
    22   13   14 1   
    23   14   15 1   
    24   15   23 1   
    25   15   24 1   
    26   15   25 1   
@<TRIPOS>SUBSTRUCTURE
     1 2GA         1 TEMP              0 ****  ****    0 ROOT
