@<TRIPOS>MOLECULE
2GB
   45    46     1     0     0
SMALL
bcc


@<TRIPOS>ATOM
      1 N          -0.0200    0.0680    0.2520 ny        1 2GB     -0.742100
      2 CA          1.4520   -0.0710    0.1180 c3        1 2GB     -0.028500
      3 C           2.1640    0.1730    1.5060 c         1 2GB      0.923600
      4 OXT         1.4820    0.7470    2.4050 o         1 2GB     -0.818300
      5 CB          2.0710    0.9020   -0.8920 c3        1 2GB     -0.064400
      6 CG          1.5080    0.7500   -2.2810 c3        1 2GB     -0.215400
      7 O           3.3490   -0.2190    1.6170 o         1 2GB     -0.818300
      8 CAP         1.4420   -5.7850   -7.4970 ca        1 2GB     -0.127000
      9 CAS         2.1010   -6.4890   -8.5020 ca        1 2GB     -0.138000
     10 CAO         3.4030   -6.1460   -8.8620 ca        1 2GB     -0.156000
     11 CAR         4.0440   -5.0930   -8.2110 ca        1 2GB     -0.138000
     12 CAQ         3.3900   -4.3850   -7.2050 ca        1 2GB     -0.127000
     13 CAN         2.0780   -4.7230   -6.8360 cp        1 2GB      0.006000
     14 CAI         1.3910   -3.9810   -5.7820 cp        1 2GB     -0.083000
     15 CAM         1.5690   -2.5970   -5.6510 ca        1 2GB     -0.127500
     16 CAJ         0.9160   -1.8830   -4.6470 ca        1 2GB     -0.114500
     17 CAL         0.5510   -4.6460   -4.8760 ca        1 2GB     -0.127500
     18 CAK        -0.1000   -3.9370   -3.8720 ca        1 2GB     -0.114500
     19 CAH         0.0670   -2.5510   -3.7570 ca        1 2GB     -0.062300
     20 CAB        -0.6880   -1.8010   -2.7040 c3        1 2GB      0.215700
     21 OAT        -0.1260   -2.0420   -1.4380 os        1 2GB     -0.554200
     22 PBA        -0.9400   -1.3510   -0.1970 p5        1 2GB      1.304700
     23 OAV        -0.9280   -2.2890    0.9370 o         1 2GB     -0.785000
     24 OAU        -2.1720   -0.7580   -0.7710 o         1 2GB     -0.785000
     25 CD          2.2540    1.5350   -3.3680 c         1 2GB      0.913600
     26 OE2         2.1910    1.0660   -4.5490 o         1 2GB     -0.859800
     27 OE1         2.8520    2.6090   -3.0830 o         1 2GB     -0.859800
     28 H1         -0.1830    0.2950    1.2480 hn        1 2GB      0.444300
     29 H2          1.6510   -1.1330   -0.2030 hx        1 2GB      0.093700
     30 H4          3.1740    0.6920   -0.9030 hc        1 2GB      0.069200
     31 H5          1.9450    1.9590   -0.5410 hc        1 2GB      0.069200
     32 H6          0.4470    1.1130   -2.3200 hc        1 2GB      0.024700
     33 H7          1.5180   -0.3360   -2.5650 hc        1 2GB      0.024700
     34 H11         5.0720   -4.8180   -8.4900 ha        1 2GB      0.116000
     35 H12         3.9000   -3.5560   -6.6890 ha        1 2GB      0.141000
     36 H13         2.2320   -2.0560   -6.3440 ha        1 2GB      0.123500
     37 H14         1.1070   -0.7870   -4.5540 ha        1 2GB      0.176500
     38 H15         0.4210   -5.7360   -4.9490 ha        1 2GB      0.123500
     39 H16        -0.7390   -4.4630   -3.1480 ha        1 2GB      0.176500
     40 H17        -0.6670   -0.6930   -2.9020 h1        1 2GB      0.044200
     41 H18        -1.7630   -2.1370   -2.6840 h1        1 2GB      0.044200
     42 H8          0.4120   -6.0540   -7.2210 ha        1 2GB      0.141000
     43 H9          1.5900   -7.3180   -9.0130 ha        1 2GB      0.116000
     44 H21        -0.3290    0.8740   -0.2860 hn        1 2GB      0.444300
     45 H10         3.9220   -6.7030   -9.6540 ha        1 2GB      0.111000
@<TRIPOS>BOND
     1    1    2 1   
     2    1   22 1   
     3    1   28 1   
     4    1   44 1   
     5    2    3 1   
     6    2    5 1   
     7    2   29 1   
     8    3    4 1   
     9    3    7 1   
    10    5    6 1   
    11    5   30 1   
    12    5   31 1   
    13    6   25 1   
    14    6   32 1   
    15    6   33 1   
    16    8    9 ar  
    17    8   13 ar  
    18    8   42 1   
    19    9   10 ar  
    20    9   43 1   
    21   10   11 ar  
    22   10   45 1   
    23   11   12 ar  
    24   11   34 1   
    25   12   13 ar  
    26   12   35 1   
    27   13   14 1   
    28   14   15 ar  
    29   14   17 ar  
    30   15   16 ar  
    31   15   36 1   
    32   16   19 ar  
    33   16   37 1   
    34   17   18 ar  
    35   17   38 1   
    36   18   19 ar  
    37   18   39 1   
    38   19   20 1   
    39   20   21 1   
    40   20   40 1   
    41   20   41 1   
    42   21   22 1   
    43   22   23 1   
    44   22   24 1   
    45   25   26 1   
    46   25   27 1   
@<TRIPOS>SUBSTRUCTURE
     1 2GB         1 TEMP              0 ****  ****    0 ROOT
