@<TRIPOS>MOLECULE
2GB
   45    46     1     0     0
SMALL
bcc


@<TRIPOS>ATOM
      1 N          -0.0170    0.0500    0.2630 n4        1 2GB     -0.742100
      2 CA          1.4550   -0.0820    0.1240 c3        1 2GB     -0.028500
      3 C           2.1700    0.1610    1.5110 c         1 2GB      0.923600
      4 OXT         1.4880    0.7290    2.4140 o         1 2GB     -0.818300
      5 CB          2.0670    0.8960   -0.8840 c3        1 2GB     -0.064400
      6 CG          1.5000    0.7460   -2.2710 c3        1 2GB     -0.215400
      7 O           3.3560   -0.2270    1.6190 o         1 2GB     -0.818300
      8 CAP         1.4450   -5.7710   -7.5110 ca        1 2GB     -0.127000
      9 CAS         2.1030   -6.4700   -8.5200 ca        1 2GB     -0.138000
     10 CAO         3.4040   -6.1210   -8.8820 ca        1 2GB     -0.155000
     11 CAR         4.0430   -5.0670   -8.2280 ca        1 2GB     -0.138000
     12 CAQ         3.3890   -4.3650   -7.2190 ca        1 2GB     -0.127000
     13 CAN         2.0790   -4.7090   -6.8470 cp        1 2GB      0.006000
     14 CAI         1.3920   -3.9740   -5.7880 cp        1 2GB     -0.083000
     15 CAM         1.5650   -2.5890   -5.6530 ca        1 2GB     -0.127500
     16 CAJ         0.9130   -1.8810   -4.6440 ca        1 2GB     -0.114500
     17 CAL         0.5570   -4.6450   -4.8830 ca        1 2GB     -0.127500
     18 CAK        -0.0930   -3.9410   -3.8750 ca        1 2GB     -0.114500
     19 CAH         0.0690   -2.5560   -3.7550 ca        1 2GB     -0.062300
     20 CAB        -0.6860   -1.8120   -2.6970 c3        1 2GB      0.215700
     21 OAT        -0.1190   -2.0550   -1.4330 os        1 2GB     -0.554200
     22 PBA        -0.9320   -1.3720   -0.1880 p5        1 2GB      1.304700
     23 OAV        -0.9130   -2.3130    0.9440 o         1 2GB     -0.785000
     24 OAU        -2.1690   -0.7820   -0.7560 o         1 2GB     -0.785000
     25 CD          2.2400    1.5380   -3.3590 c         1 2GB      0.913600
     26 OE2         2.1760    1.0730   -4.5400 o         1 2GB     -0.859800
     27 OE1         2.8340    2.6140   -3.0720 o         1 2GB     -0.859800
     28 H1         -0.1790    0.2730    1.2600 hn        1 2GB      0.444300
     29 H2          1.6580   -1.1420   -0.2000 hx        1 2GB      0.093700
     30 H4          1.9370    1.9520   -0.5290 hc        1 2GB      0.069200
     31 H5          3.1710    0.6920   -0.8990 hc        1 2GB      0.069200
     32 H6          1.5140   -0.3380   -2.5590 hc        1 2GB      0.024700
     33 H7          0.4370    1.1050   -2.3070 hc        1 2GB      0.024700
     34 H11         5.0690   -4.7880   -8.5090 ha        1 2GB      0.116000
     35 H12         3.8980   -3.5370   -6.7010 ha        1 2GB      0.141000
     36 H13         2.2240   -2.0430   -6.3450 ha        1 2GB      0.123500
     37 H14         1.1000   -0.7850   -4.5480 ha        1 2GB      0.176500
     38 H15         0.4310   -5.7350   -4.9600 ha        1 2GB      0.123500
     39 H16        -0.7290   -4.4730   -3.1510 ha        1 2GB      0.176500
     40 H17        -0.6700   -0.7040   -2.8910 h1        1 2GB      0.044200
     41 H18        -1.7600   -2.1530   -2.6740 h1        1 2GB      0.044200
     42 H8          0.4160   -6.0450   -7.2320 ha        1 2GB      0.141000
     43 H9          1.5940   -7.2980   -9.0320 ha        1 2GB      0.116000
     44 H21        -0.3310    0.8560   -0.2710 hn        1 2GB      0.444300
     45 H10         3.9220   -6.6720   -9.6770 ha        1 2GB      0.111000
@<TRIPOS>BOND
     1    1    2 1   
     2    1   22 1   
     3    1   28 1   
     4    1   44 1   
     5    2    3 1   
     6    2    5 1   
     7    2   29 1   
     8    3    4 1   
     9    3    7 1   
    10    5    6 1   
    11    5   30 1   
    12    5   31 1   
    13    6   25 1   
    14    6   32 1   
    15    6   33 1   
    16    8    9 ar  
    17    8   13 ar  
    18    8   42 1   
    19    9   10 ar  
    20    9   43 1   
    21   10   11 ar  
    22   10   45 1   
    23   11   12 ar  
    24   11   34 1   
    25   12   13 ar  
    26   12   35 1   
    27   13   14 1   
    28   14   15 ar  
    29   14   17 ar  
    30   15   16 ar  
    31   15   36 1   
    32   16   19 ar  
    33   16   37 1   
    34   17   18 ar  
    35   17   38 1   
    36   18   19 ar  
    37   18   39 1   
    38   19   20 1   
    39   20   21 1   
    40   20   40 1   
    41   20   41 1   
    42   21   22 1   
    43   22   23 1   
    44   22   24 1   
    45   25   26 1   
    46   25   27 1   
@<TRIPOS>SUBSTRUCTURE
     1 2GB         1 TEMP              0 ****  ****    0 ROOT
