@<TRIPOS>MOLECULE
2GD
   27    28     1     0     0
SMALL
bcc


@<TRIPOS>ATOM
      1 C13         0.0370    0.1150   -0.0320 ca        1 2GD     -0.457600
      2 N01         2.0280   -0.4630    3.5380 nh        1 2GD     -0.924500
      3 C02         1.3580   -0.1910    2.3370 ca        1 2GD      0.895900
      4 N03         2.1230   -0.1570    1.1770 nb        1 2GD     -0.758000
      5 C04         1.4350   -0.0100    0.0240 cp        1 2GD      0.544800
      6 C05         2.1880    0.0080   -1.2500 cp        1 2GD     -0.131500
      7 C06         1.9670   -1.0210   -2.1720 ca        1 2GD     -0.103000
      8 C07         2.6540   -1.0380   -3.3840 ca        1 2GD     -0.127000
      9 C08         3.5650   -0.0300   -3.6870 ca        1 2GD     -0.111000
     10 C09         3.7900    1.0050   -2.7740 ca        1 2GD      0.010400
     11 CL1         4.9030    2.2220   -3.1760 cl        1 2GD     -0.070400
     12 C11         3.1040    1.0300   -1.5470 ca        1 2GD      0.048400
     13 CL2         3.3690    2.2920   -0.4480 cl        1 2GD     -0.051400
     14 C14        -0.6720    0.1160    1.2100 ca        1 2GD      0.710200
     15 N15        -2.0470    0.3480    1.2480 nh        1 2GD     -0.856900
     16 C16        -2.8360    0.1590    0.0700 c3        1 2GD      0.192100
     17 N17        -0.0160   -0.0460    2.4020 nb        1 2GD     -0.813000
     18 H1         -0.4750    0.2300   -0.9920 ha        1 2GD      0.155000
     19 H2          1.5500   -0.2190    4.3750 hn        1 2GD      0.424800
     20 H3          3.0100   -0.3070    3.5360 hn        1 2GD      0.424800
     21 H4          1.2490   -1.8190   -1.9300 ha        1 2GD      0.147000
     22 H5          2.4790   -1.8530   -4.1030 ha        1 2GD      0.142000
     23 H6          4.1090   -0.0450   -4.6440 ha        1 2GD      0.151000
     24 H13        -2.5050    0.1680    2.1160 hn        1 2GD      0.432800
     25 H14        -2.5650    0.9350   -0.6950 h1        1 2GD      0.041367
     26 H15        -3.9190    0.2830    0.3390 h1        1 2GD      0.041367
     27 H16        -2.6890   -0.8570   -0.3890 h1        1 2GD      0.041367
@<TRIPOS>BOND
     1    1    5 ar  
     2    1   14 ar  
     3    1   18 1   
     4    2    3 1   
     5    2   19 1   
     6    2   20 1   
     7    3    4 ar  
     8    3   17 ar  
     9    4    5 ar  
    10    5    6 1   
    11    6    7 ar  
    12    6   12 ar  
    13    7    8 ar  
    14    7   21 1   
    15    8    9 ar  
    16    8   22 1   
    17    9   10 ar  
    18    9   23 1   
    19   10   11 1   
    20   10   12 ar  
    21   12   13 1   
    22   14   15 1   
    23   14   17 ar  
    24   15   16 1   
    25   15   24 1   
    26   16   25 1   
    27   16   26 1   
    28   16   27 1   
@<TRIPOS>SUBSTRUCTURE
     1 2GD         1 TEMP              0 ****  ****    0 ROOT
