@<TRIPOS>MOLECULE
2GD
   27    28     1     0     0
SMALL
bcc


@<TRIPOS>ATOM
      1 C13         0.0290   -0.0370   -0.0410 ca        1 2GD     -0.456600
      2 N01         2.0400   -0.3720    3.5470 nv        1 2GD     -0.925500
      3 C02         1.3590   -0.1860    2.3380 ca        1 2GD      0.897900
      4 N03         2.1240   -0.1480    1.1770 nb        1 2GD     -0.758000
      5 C04         1.4320   -0.0740    0.0210 cp        1 2GD      0.544800
      6 C05         2.1860   -0.0420   -1.2530 cp        1 2GD     -0.132500
      7 C06         2.0390   -1.1110   -2.1430 ca        1 2GD     -0.102000
      8 C07         2.7300   -1.1180   -3.3530 ca        1 2GD     -0.126000
      9 C08         3.5700   -0.0580   -3.6860 ca        1 2GD     -0.111000
     10 C09         3.7200    1.0160   -2.8040 ca        1 2GD      0.010400
     11 Cl1         4.7470    2.2950   -3.2410 cl        1 2GD     -0.070400
     12 C11         3.0300    1.0310   -1.5800 ca        1 2GD      0.047400
     13 Cl2         3.2040    2.3410   -0.5190 cl        1 2GD     -0.054400
     14 C14        -0.6830   -0.0620    1.1980 ca        1 2GD      0.708200
     15 N15        -2.0790   -0.0960    1.2200 nu        1 2GD     -0.852900
     16 C16        -2.8170    0.3690    0.0850 c3        1 2GD      0.190100
     17 N17        -0.0210   -0.1070    2.3970 nb        1 2GD     -0.814000
     18 H1         -0.4870    0.0130   -1.0050 ha        1 2GD      0.155000
     19 H2          3.0110   -0.1600    3.5440 hn        1 2GD      0.426300
     20 H3          1.5440   -0.1430    4.3770 hn        1 2GD      0.426300
     21 H4          1.3770   -1.9500   -1.8770 ha        1 2GD      0.149000
     22 H5          2.6140   -1.9640   -4.0470 ha        1 2GD      0.143000
     23 H6          4.1170   -0.0650   -4.6410 ha        1 2GD      0.151000
     24 H13        -2.5100    0.0490    2.1080 hn        1 2GD      0.430800
     25 H14        -3.9070    0.3970    0.3500 h1        1 2GD      0.042033
     26 H15        -2.4970    1.3940   -0.2490 h1        1 2GD      0.042033
     27 H16        -2.6750   -0.3420   -0.7740 h1        1 2GD      0.042033
@<TRIPOS>BOND
     1    1    5 ar  
     2    1   14 ar  
     3    1   18 1   
     4    2    3 1   
     5    2   19 1   
     6    2   20 1   
     7    3    4 ar  
     8    3   17 ar  
     9    4    5 ar  
    10    5    6 1   
    11    6    7 ar  
    12    6   12 ar  
    13    7    8 ar  
    14    7   21 1   
    15    8    9 ar  
    16    8   22 1   
    17    9   10 ar  
    18    9   23 1   
    19   10   11 1   
    20   10   12 ar  
    21   12   13 1   
    22   14   15 1   
    23   14   17 ar  
    24   15   16 1   
    25   15   24 1   
    26   16   25 1   
    27   16   26 1   
    28   16   27 1   
@<TRIPOS>SUBSTRUCTURE
     1 2GD         1 TEMP              0 ****  ****    0 ROOT
