@<TRIPOS>MOLECULE
2GD
   29    30     1     0     0
SMALL
bcc


@<TRIPOS>ATOM
      1 C13         0.0460   -0.3590   -0.2480 ca        1 2GD     -0.283600
      2 N01         1.8310    0.4680    3.4600 n4        1 2GD     -0.818300
      3 C02         1.1820    0.1790    2.1460 ca        1 2GD      0.760900
      4 N03         2.0200    0.1850    1.0590 nb        1 2GD     -0.631000
      5 C04         1.4520   -0.0760   -0.1460 cp        1 2GD      0.623800
      6 C05         2.2640   -0.0920   -1.3600 cp        1 2GD     -0.238500
      7 C06         2.0730   -1.1520   -2.2660 ca        1 2GD     -0.087000
      8 C07         2.8420   -1.2350   -3.4200 ca        1 2GD     -0.108000
      9 C08         3.8030   -0.2610   -3.6950 ca        1 2GD     -0.039000
     10 C09         3.9970    0.8100   -2.8110 ca        1 2GD      0.011400
     11 CL1         5.1550    1.9770   -3.1800 cl        1 2GD      0.015600
     12 C11         3.2290    0.8990   -1.6350 ca        1 2GD      0.074400
     13 CL2         3.4380    2.2230   -0.6030 cl        1 2GD     -0.030400
     14 C14        -0.7070   -0.3370    0.9360 ca        1 2GD      0.526200
     15 N15        -2.1640   -0.6060    0.8950 n4        1 2GD     -0.746700
     16 C16        -2.9700    0.6420    0.9990 c3        1 2GD      0.081100
     17 N17        -0.1610   -0.0650    2.1650 nb        1 2GD     -0.688000
     18 H1         -0.3850   -0.5650   -1.2430 ha        1 2GD      0.215000
     19 H2          2.2420    1.4150    3.4300 hn        1 2GD      0.500133
     20 H3          2.5860   -0.2190    3.6220 hn        1 2GD      0.500133
     21 H4          1.3340   -1.9390   -2.0490 ha        1 2GD      0.139000
     22 H5          2.7000   -2.0760   -4.1210 ha        1 2GD      0.180000
     23 H6          4.4150   -0.3320   -4.6140 ha        1 2GD      0.193000
     24 H13        -2.4210   -1.2400    1.6700 hn        1 2GD      0.484300
     25 H14        -2.6930    1.3450    0.1670 hx        1 2GD      0.126700
     26 H15        -4.0600    0.3670    0.9150 hx        1 2GD      0.126700
     27 H16        -2.7820    1.1340    1.9920 hx        1 2GD      0.126700
     28 H013        1.1460    0.4150    4.2290 hn        1 2GD      0.500133
     29 H152       -2.3740   -1.0810    0.0030 hn        1 2GD      0.484300
@<TRIPOS>BOND
     1    1    5 ar  
     2    1   14 ar  
     3    1   18 1   
     4    2    3 1   
     5    2   19 1   
     6    2   20 1   
     7    2   28 1   
     8    3    4 ar  
     9    3   17 ar  
    10    4    5 ar  
    11    5    6 1   
    12    6    7 ar  
    13    6   12 ar  
    14    7    8 ar  
    15    7   21 1   
    16    8    9 ar  
    17    8   22 1   
    18    9   10 ar  
    19    9   23 1   
    20   10   11 1   
    21   10   12 ar  
    22   12   13 1   
    23   14   15 1   
    24   14   17 ar  
    25   15   16 1   
    26   15   24 1   
    27   15   29 1   
    28   16   25 1   
    29   16   26 1   
    30   16   27 1   
@<TRIPOS>SUBSTRUCTURE
     1 2GD         1 TEMP              0 ****  ****    0 ROOT
