@<TRIPOS>MOLECULE
2GE
   31    33     1     0     0
SMALL
bcc


@<TRIPOS>ATOM
      1 C13         0.0500    0.2540   -0.0130 ca        1 2GE     -0.443600
      2 C17        -3.6130   -0.4120   -0.2910 cx        1 2GE     -0.145900
      3 N01         1.7940   -1.0500    3.4940 nh        1 2GE     -0.923500
      4 C02         1.2240   -0.5360    2.3210 ca        1 2GE      0.893900
      5 N03         2.0060   -0.5590    1.1710 nb        1 2GE     -0.754000
      6 C04         1.3900   -0.1680    0.0350 cp        1 2GE      0.541800
      7 C05         2.1570   -0.1960   -1.2310 cp        1 2GE     -0.132500
      8 C06         1.7330   -1.0550   -2.2500 ca        1 2GE     -0.103000
      9 C07         2.4250   -1.1110   -3.4570 ca        1 2GE     -0.127000
     10 C08         3.5450   -0.3080   -3.6590 ca        1 2GE     -0.111000
     11 C09         3.9750    0.5580   -2.6480 ca        1 2GE      0.010400
     12 CL1         5.3400    1.5260   -2.9280 cl        1 2GE     -0.070400
     13 C11         3.2840    0.6180   -1.4250 ca        1 2GE      0.048400
     14 CL2         3.7990    1.6790   -0.2090 cl        1 2GE     -0.051400
     15 C14        -0.6690    0.2930    1.2190 ca        1 2GE      0.704200
     16 N15        -1.9640    0.8320    1.2870 nh        1 2GE     -0.807900
     17 C16        -2.7920    0.7960    0.1290 cx        1 2GE      0.144500
     18 C18        -4.3030    0.8000    0.2570 cx        1 2GE     -0.145900
     19 N19        -0.0900   -0.1130    2.3920 nb        1 2GE     -0.810000
     20 H1         -0.4040    0.5560   -0.9620 ha        1 2GE      0.156000
     21 H3         -3.5860   -1.3310    0.3210 hc        1 2GE      0.078450
     22 H4          1.3590   -0.7850    4.3470 hn        1 2GE      0.425300
     23 H5          2.7870   -1.1040    3.5100 hn        1 2GE      0.425300
     24 H6          0.8490   -1.6910   -2.0880 ha        1 2GE      0.147000
     25 H7          2.0900   -1.7920   -4.2530 ha        1 2GE      0.142000
     26 H8          4.0940   -0.3530   -4.6130 ha        1 2GE      0.152000
     27 H9         -2.4500    0.6780    2.1480 hn        1 2GE      0.422800
     28 H10        -2.3490    1.4160   -0.6850 h1        1 2GE      0.098700
     29 H11        -4.8740    1.4560   -0.4240 hc        1 2GE      0.078450
     30 H12        -4.7690    0.7430    1.2570 hc        1 2GE      0.078450
     31 H2         -3.6910   -0.6400   -1.3690 hc        1 2GE      0.078450
@<TRIPOS>BOND
     1    1    6 ar  
     2    1   15 ar  
     3    1   20 1   
     4    2   17 1   
     5    2   18 1   
     6    2   21 1   
     7    2   31 1   
     8    3    4 1   
     9    3   22 1   
    10    3   23 1   
    11    4    5 ar  
    12    4   19 ar  
    13    5    6 ar  
    14    6    7 1   
    15    7    8 ar  
    16    7   13 ar  
    17    8    9 ar  
    18    8   24 1   
    19    9   10 ar  
    20    9   25 1   
    21   10   11 ar  
    22   10   26 1   
    23   11   12 1   
    24   11   13 ar  
    25   13   14 1   
    26   15   16 1   
    27   15   19 ar  
    28   16   17 1   
    29   16   27 1   
    30   17   18 1   
    31   17   28 1   
    32   18   29 1   
    33   18   30 1   
@<TRIPOS>SUBSTRUCTURE
     1 2GE         1 TEMP              0 ****  ****    0 ROOT
