@<TRIPOS>MOLECULE
2GE
   33    35     1     0     0
SMALL
bcc


@<TRIPOS>ATOM
      1 C13         0.1150    0.5290   -0.2700 ca        1 2GE     -0.285600
      2 C17        -3.8610   -0.8890    1.1160 cx        1 2GE     -0.085400
      3 N01         1.5860   -1.0750    3.3170 n4        1 2GE     -0.818300
      4 C02         1.0500   -0.5030    2.0450 ca        1 2GE      0.756900
      5 N03         1.9210   -0.4970    0.9870 nb        1 2GE     -0.631000
      6 C04         1.4570    0.0300   -0.1760 cp        1 2GE      0.619800
      7 C05         2.3160    0.0830   -1.3580 cp        1 2GE     -0.236500
      8 C06         1.7700   -0.3270   -2.5880 ca        1 2GE     -0.088000
      9 C07         2.5510   -0.3260   -3.7360 ca        1 2GE     -0.108000
     10 C08         3.8810    0.0930   -3.6810 ca        1 2GE     -0.042000
     11 C09         4.4370    0.5180   -2.4670 ca        1 2GE      0.012400
     12 CL1         6.0430    1.0300   -2.4370 cl        1 2GE      0.014600
     13 C11         3.6570    0.5120   -1.2950 ca        1 2GE      0.072400
     14 CL2         4.3260    1.0750    0.1530 cl        1 2GE     -0.031400
     15 C14        -0.6830    0.4670    0.8830 ca        1 2GE      0.541200
     16 N15        -2.0700    0.9910    0.8500 n4        1 2GE     -0.717700
     17 C16        -3.0130    0.0200    0.2490 cx        1 2GE     -0.026500
     18 C18        -4.5090    0.2440    0.3860 cx        1 2GE     -0.085400
     19 N19        -0.2390   -0.0520    2.0710 nb        1 2GE     -0.686000
     20 H1         -0.2320    0.9550   -1.2280 ha        1 2GE      0.215000
     21 H4          1.9380   -2.0290    3.1370 hn        1 2GE      0.498800
     22 H5          2.3690   -0.4860    3.6440 hn        1 2GE      0.498800
     23 H6          0.7280   -0.6780   -2.6400 ha        1 2GE      0.138000
     24 H7          2.1230   -0.6600   -4.6970 ha        1 2GE      0.179000
     25 H8          4.5000    0.0900   -4.5980 ha        1 2GE      0.192000
     26 H9         -2.3870    1.2320    1.8040 hn        1 2GE      0.481300
     27 H10        -2.6030   -0.3660   -0.7130 hx        1 2GE      0.146700
     28 H11        -4.8970    1.1070    0.9620 hc        1 2GE      0.123450
     29 H12        -5.1320    0.0450   -0.5110 hc        1 2GE      0.123450
     30 H2         -4.0100   -1.9310    0.7660 hc        1 2GE      0.123450
     31 H013        0.8540   -1.1080    4.0420 hn        1 2GE      0.498800
     32 H152       -2.0700    1.8500    0.2770 hn        1 2GE      0.481300
     33 H3         -3.7820   -0.8400    2.2200 hc        1 2GE      0.123450
@<TRIPOS>BOND
     1    1    6 ar  
     2    1   15 ar  
     3    1   20 1   
     4    2   17 1   
     5    2   18 1   
     6    2   30 1   
     7    2   33 1   
     8    3    4 1   
     9    3   21 1   
    10    3   22 1   
    11    3   31 1   
    12    4    5 ar  
    13    4   19 ar  
    14    5    6 ar  
    15    6    7 1   
    16    7    8 ar  
    17    7   13 ar  
    18    8    9 ar  
    19    8   23 1   
    20    9   10 ar  
    21    9   24 1   
    22   10   11 ar  
    23   10   25 1   
    24   11   12 1   
    25   11   13 ar  
    26   13   14 1   
    27   15   16 1   
    28   15   19 ar  
    29   16   17 1   
    30   16   26 1   
    31   16   32 1   
    32   17   18 1   
    33   17   27 1   
    34   18   28 1   
    35   18   29 1   
@<TRIPOS>SUBSTRUCTURE
     1 2GE         1 TEMP              0 ****  ****    0 ROOT
