@<TRIPOS>MOLECULE
2GE
   31    33     1     0     0
SMALL
bcc


@<TRIPOS>ATOM
      1 C13         0.0500    0.2540   -0.0130 ca        1 2GE     -0.443600
      2 C17        -3.6130   -0.4110   -0.2910 cx        1 2GE     -0.145900
      3 N01         1.7940   -1.0510    3.4930 nv        1 2GE     -0.923500
      4 C02         1.2240   -0.5370    2.3210 ca        1 2GE      0.893900
      5 N03         2.0060   -0.5600    1.1710 nb        1 2GE     -0.754000
      6 C04         1.3900   -0.1690    0.0350 cp        1 2GE      0.541800
      7 C05         2.1570   -0.1960   -1.2310 cp        1 2GE     -0.132500
      8 C06         1.7340   -1.0580   -2.2490 ca        1 2GE     -0.103000
      9 C07         2.4270   -1.1130   -3.4560 ca        1 2GE     -0.127000
     10 C08         3.5460   -0.3080   -3.6590 ca        1 2GE     -0.111000
     11 C09         3.9730    0.5590   -2.6480 ca        1 2GE      0.010400
     12 Cl1         5.3370    1.5300   -2.9290 cl        1 2GE     -0.070400
     13 C11         3.2830    0.6200   -1.4260 ca        1 2GE      0.048400
     14 Cl2         3.7960    1.6820   -0.2100 cl        1 2GE     -0.051400
     15 C14        -0.6690    0.2930    1.2190 ca        1 2GE      0.704200
     16 N15        -1.9640    0.8320    1.2870 nu        1 2GE     -0.807900
     17 C16        -2.7920    0.7980    0.1290 cx        1 2GE      0.144500
     18 C18        -4.3020    0.8020    0.2570 cx        1 2GE     -0.145900
     19 N19        -0.0900   -0.1130    2.3920 nb        1 2GE     -0.810000
     20 H1         -0.4040    0.5560   -0.9610 ha        1 2GE      0.156000
     21 H3         -3.5870   -1.3300    0.3200 hc        1 2GE      0.078450
     22 H4          1.3590   -0.7870    4.3470 hn        1 2GE      0.425300
     23 H5          2.7870   -1.1060    3.5090 hn        1 2GE      0.425300
     24 H6          0.8520   -1.6950   -2.0870 ha        1 2GE      0.147000
     25 H7          2.0930   -1.7950   -4.2520 ha        1 2GE      0.142000
     26 H8          4.0950   -0.3530   -4.6120 ha        1 2GE      0.152000
     27 H9         -2.4490    0.6780    2.1490 hn        1 2GE      0.422800
     28 H10        -2.3490    1.4170   -0.6840 h1        1 2GE      0.098700
     29 H11        -4.8730    1.4580   -0.4230 hc        1 2GE      0.078450
     30 H12        -4.7690    0.7440    1.2570 hc        1 2GE      0.078450
     31 H2         -3.6910   -0.6370   -1.3690 hc        1 2GE      0.078450
@<TRIPOS>BOND
     1    1    6 ar  
     2    1   15 ar  
     3    1   20 1   
     4    2   17 1   
     5    2   18 1   
     6    2   21 1   
     7    2   31 1   
     8    3    4 1   
     9    3   22 1   
    10    3   23 1   
    11    4    5 ar  
    12    4   19 ar  
    13    5    6 ar  
    14    6    7 1   
    15    7    8 ar  
    16    7   13 ar  
    17    8    9 ar  
    18    8   24 1   
    19    9   10 ar  
    20    9   25 1   
    21   10   11 ar  
    22   10   26 1   
    23   11   12 1   
    24   11   13 ar  
    25   13   14 1   
    26   15   16 1   
    27   15   19 ar  
    28   16   17 1   
    29   16   27 1   
    30   17   18 1   
    31   17   28 1   
    32   18   29 1   
    33   18   30 1   
@<TRIPOS>SUBSTRUCTURE
     1 2GE         1 TEMP              0 ****  ****    0 ROOT
