@<TRIPOS>MOLECULE
2GF
   30    28     1     0     0
SMALL
bcc


@<TRIPOS>ATOM
      1 P           2.5720    3.0560    0.1790 p3        1 2GF      2.502000
      2 OP1         2.2860    2.9200    1.6540 os        1 2GF     -1.239000
      3 OP2         1.9810    4.3520   -0.3320 o         1 2GF     -1.239000
      4 O5'         1.9190    1.8260   -0.6060 os        1 2GF     -0.709000
      5 C5'         0.5310    1.5660   -0.4260 c3        1 2GF      0.095000
      6 C4'        -0.1270    1.5460   -1.7140 c3        1 2GF     -0.100000
      7 O4'        -0.1830    0.0070   -2.2700 os        1 2GF     -0.232000
      8 C3'        -1.4000    1.8640   -1.5600 c2        1 2GF      0.224000
      9 O3'        -1.8440    2.9840   -1.4110 o         1 2GF     -0.319000
     10 C2'        -2.1740    0.5110   -1.2820 c3        1 2GF     -0.260000
     11 C1'        -1.1070   -0.5870   -1.6660 c3        1 2GF      0.150000
     12 N1         -0.5870   -1.2230   -0.4590 n3        1 2GF     -0.263000
     13 C2          0.7660   -1.7780   -0.4550 c1        1 2GF      0.338000
     14 O2          1.4370   -1.7540   -1.4730 o         1 2GF     -0.401000
     15 N3          1.2980   -2.4010    0.7560 n1        1 2GF     -0.330000
     16 C4          0.4460   -2.6300    1.8720 c1        1 2GF      0.208000
     17 N4          0.8950   -3.4300    2.9560 n2        1 2GF     -0.343000
     18 C5         -0.9330   -2.1290    1.8520 c2        1 2GF     -0.325000
     19 C6         -1.4470   -1.4430    0.6510 c2        1 2GF      0.114000
     20 CL         -1.9880   -2.4290    3.2010 cl        1 2GF      0.010000
     21 H5'1        0.1350    2.2720    0.1330 h1        1 2GF      0.039000
     22 H5'2        0.4150    0.6970    0.0140 h1        1 2GF      0.039000
     23 H4'         0.4280    2.1750   -2.2140 h1        1 2GF      0.222000
     24 H2'2       -2.5910    0.3550   -0.4130 hc        1 2GF      0.116500
     25 H2'        -2.9550    0.4830   -1.8730 hc        1 2GF      0.116500
     26 H1'        -1.5120   -1.2570   -2.2500 h2        1 2GF      0.116000
     27 H42         1.6950   -3.8730    2.8970 hn        1 2GF      0.203500
     28 H41         0.3780   -3.5190    3.7020 hn        1 2GF      0.203500
     29 H6         -2.4010   -1.2200    0.5840 h4        1 2GF      0.302000
     30 OP3         4.0690    3.0610   -0.0460 o         1 2GF     -1.239000
@<TRIPOS>BOND
     1    1    3 1   
     2    1    4 1   
     3    1   30 1   
     4    4    5 1   
     5    5    6 1   
     6    5   21 1   
     7    5   22 1   
     8    6    7 1   
     9    6    8 1   
    10    6   23 1   
    11    7   11 1   
    12    8    9 1   
    13    8   10 1   
    14   10   11 1   
    15   10   24 1   
    16   10   25 1   
    17   11   12 1   
    18   11   26 1   
    19   12   13 1   
    20   12   19 1   
    21   13   14 1   
    22   15   16 1   
    23   16   18 1   
    24   17   27 1   
    25   17   28 1   
    26   18   19 1   
    27   18   20 1   
    28   19   29 1   
@<TRIPOS>SUBSTRUCTURE
     1 2GF         1 TEMP              0 ****  ****    0 ROOT
