@<TRIPOS>MOLECULE
2GF
   30    31     1     0     0
SMALL
bcc


@<TRIPOS>ATOM
      1 P           3.0400   -1.2200   -1.7120 p5        1 2GF      1.308900
      2 OP1         3.5860    0.1760   -1.8650 o         1 2GF     -0.919500
      3 OP2         3.7140   -2.0630   -0.6700 o         1 2GF     -0.919500
      4 O5'         1.5520   -0.7690   -0.8430 os        1 2GF     -0.547200
      5 C5'         1.8130    0.0140    0.2370 c3        1 2GF      0.245400
      6 C4'         1.5870    1.5250   -0.0790 c3        1 2GF     -0.038900
      7 O4'         0.3810    1.7410   -0.8490 os        1 2GF     -0.377600
      8 C3'         1.4000    2.3190    1.1860 c         1 2GF      0.563100
      9 O3'         2.2440    2.6760    2.0080 o         1 2GF     -0.557100
     10 C2'        -0.0810    2.6230    1.3220 c3        1 2GF     -0.230400
     11 C1'        -0.6980    2.1060    0.0030 c3        1 2GF      0.299500
     12 N1         -1.6520    0.9950    0.1710 n         1 2GF     -0.371000
     13 C2         -2.8980    1.2750    0.8340 c         1 2GF      0.819900
     14 O2         -3.0990    2.4430    1.2470 o         1 2GF     -0.676500
     15 N3         -3.8490    0.2650    1.0140 nc        1 2GF     -0.755100
     16 C4         -3.6030   -0.9560    0.4980 cd        1 2GF      0.731500
     17 N4         -4.5840   -1.9450    0.5980 nh        1 2GF     -0.900800
     18 C5         -2.3680   -1.2520   -0.2000 cd        1 2GF     -0.326200
     19 C6         -1.4120   -0.2510   -0.3310 cc        1 2GF      0.118600
     20 CL         -2.0700   -2.7860   -0.8450 cl        1 2GF     -0.073400
     21 H5'1        1.1090   -0.2520    1.0840 h1        1 2GF     -0.000300
     22 H5'2        2.8820   -0.0900    0.5790 h1        1 2GF     -0.000300
     23 H4'         2.4230    1.8590   -0.7650 h1        1 2GF      0.184700
     24 H2'2       -0.5040    2.1260    2.2280 hc        1 2GF      0.077200
     25 H2'        -0.2620    3.7210    1.4150 hc        1 2GF      0.077200
     26 H1'        -1.2660    2.9220   -0.5340 h2        1 2GF      0.074700
     27 H42        -5.2930   -1.8030    1.2800 hn        1 2GF      0.406800
     28 H41        -4.2410   -2.8760    0.5320 hn        1 2GF      0.406800
     29 H6         -0.4130   -0.4410   -0.8430 h4        1 2GF      0.301000
     30 OP3         2.5090   -1.9070   -2.9310 o         1 2GF     -0.919500
@<TRIPOS>BOND
     1    1    2 1   
     2    1    3 1   
     3    1    4 1   
     4    1   30 1   
     5    4    5 1   
     6    5    6 1   
     7    5   21 1   
     8    5   22 1   
     9    6    7 1   
    10    6    8 1   
    11    6   23 1   
    12    7   11 1   
    13    8    9 2   
    14    8   10 1   
    15   10   11 1   
    16   10   24 1   
    17   10   25 1   
    18   11   12 1   
    19   11   26 1   
    20   12   13 1   
    21   12   19 1   
    22   13   14 2   
    23   13   15 1   
    24   15   16 2   
    25   16   17 1   
    26   16   18 1   
    27   17   27 1   
    28   17   28 1   
    29   18   19 2   
    30   18   20 1   
    31   19   29 1   
@<TRIPOS>SUBSTRUCTURE
     1 2GF         1 TEMP              0 ****  ****    0 ROOT
