@<TRIPOS>MOLECULE
2GG
   44    46     1     0     0
SMALL
bcc


@<TRIPOS>ATOM
      1 C22         1.9400   -2.9250    4.5590 c3        1 2GG      0.111700
      2 O21         1.9320   -1.6360    3.9550 os        1 2GG     -0.324900
      3 C18         2.0100   -1.6070    2.5790 ca        1 2GG      0.138100
      4 C19         1.9940   -0.3170    2.0120 ca        1 2GG     -0.186500
      5 C20         2.0710   -0.1810    0.6340 ca        1 2GG     -0.071500
      6 C17         2.0990   -2.7410    1.7630 ca        1 2GG     -0.186500
      7 C16         2.1720   -2.5870    0.3810 ca        1 2GG     -0.071500
      8 C7          2.1620   -1.3110   -0.1980 ca        1 2GG     -0.083000
      9 C3          2.2400   -1.1500   -1.6290 cc        1 2GG     -0.201600
     10 C2          1.4250   -1.8270   -2.6460 cc        1 2GG      0.281800
     11 C8          0.3920   -2.8780   -2.4070 c         1 2GG      0.601600
     12 O9          0.6860   -3.9610   -1.8670 o         1 2GG     -0.592100
     13 N10        -0.8760   -2.5820   -2.8470 n         1 2GG     -0.554900
     14 C26        -1.9950   -3.4620   -2.6390 c3        1 2GG      0.086000
     15 C27        -3.1250   -2.8530   -1.8220 c3        1 2GG     -0.119100
     16 N1          1.7630   -1.3670   -3.8660 nd        1 2GG     -0.329300
     17 C4          3.0590   -0.3030   -2.3700 cd        1 2GG      0.323200
     18 C6          4.1300    0.6090   -2.0680 ca        1 2GG     -0.262500
     19 C11         4.9900    0.2950   -1.0030 ca        1 2GG     -0.014000
     20 C12         6.0490    1.1300   -0.6660 ca        1 2GG     -0.113600
     21 CL25        7.0650    0.7100    0.6310 cl        1 2GG     -0.082400
     22 C13         6.2710    2.3140   -1.4030 ca        1 2GG      0.192100
     23 O24         7.2870    3.1950   -1.1470 oh        1 2GG     -0.481100
     24 C14         5.4260    2.6510   -2.4660 ca        1 2GG     -0.201000
     25 C15         4.3600    1.7980   -2.7970 ca        1 2GG      0.210100
     26 O23         3.5930    2.2310   -3.8440 oh        1 2GG     -0.484100
     27 O3          2.7280   -0.4850   -3.7430 os        1 2GG     -0.132100
     28 H221        2.8930   -3.4620    4.3300 h1        1 2GG      0.047033
     29 H222        1.0610   -3.5250    4.2200 h1        1 2GG      0.047033
     30 H223        1.8670   -2.7000    5.6530 h1        1 2GG      0.047033
     31 H19         1.9220    0.5610    2.6690 ha        1 2GG      0.148500
     32 H17         2.1090   -3.7520    2.1950 ha        1 2GG      0.148500
     33 H20         2.0620    0.8250    0.1860 ha        1 2GG      0.154000
     34 H16         2.2240   -3.4810   -0.2660 ha        1 2GG      0.154000
     35 H10        -1.0610   -1.6910   -3.2410 hn        1 2GG      0.319500
     36 H261       -2.3980   -3.7560   -3.6520 h1        1 2GG      0.062700
     37 H262       -1.6290   -4.3990   -2.1270 h1        1 2GG      0.062700
     38 H271       -2.7830   -2.5930   -0.7910 hc        1 2GG      0.043700
     39 H272       -3.5240   -1.9290   -2.3060 hc        1 2GG      0.043700
     40 H273       -3.9520   -3.5990   -1.7450 hc        1 2GG      0.043700
     41 H11         4.8080   -0.6290   -0.4270 ha        1 2GG      0.167000
     42 H24         7.8090    2.8560   -0.4000 ho        1 2GG      0.436000
     43 H14         5.5950    3.5730   -3.0400 ha        1 2GG      0.178000
     44 H23         2.8770    1.5980   -4.0090 ho        1 2GG      0.442000
@<TRIPOS>BOND
     1    1    2 1   
     2    1   28 1   
     3    1   29 1   
     4    1   30 1   
     5    2    3 1   
     6    3    4 ar  
     7    3    6 ar  
     8    4    5 ar  
     9    4   31 1   
    10    5    8 ar  
    11    5   33 1   
    12    6    7 ar  
    13    6   32 1   
    14    7    8 ar  
    15    7   34 1   
    16    8    9 1   
    17    9   10 1   
    18    9   17 2   
    19   10   11 1   
    20   10   16 2   
    21   11   12 2   
    22   11   13 1   
    23   13   14 1   
    24   13   35 1   
    25   14   15 1   
    26   14   36 1   
    27   14   37 1   
    28   15   38 1   
    29   15   39 1   
    30   15   40 1   
    31   16   27 1   
    32   17   18 1   
    33   17   27 1   
    34   18   19 ar  
    35   18   25 ar  
    36   19   20 ar  
    37   19   41 1   
    38   20   21 1   
    39   20   22 ar  
    40   22   23 1   
    41   22   24 ar  
    42   23   42 1   
    43   24   25 ar  
    44   24   43 1   
    45   25   26 1   
    46   26   44 1   
@<TRIPOS>SUBSTRUCTURE
     1 2GG         1 TEMP              0 ****  ****    0 ROOT
