@<TRIPOS>MOLECULE
2GG
   45    47     1     0     0
SMALL
bcc


@<TRIPOS>ATOM
      1 C22        -0.8540   -0.1250    0.5610 c3        1 2GG      0.107700
      2 O21         0.5640   -0.1950    0.4190 os        1 2GG     -0.313900
      3 C18         1.3030   -0.1140    1.5740 ca        1 2GG      0.162100
      4 C19         2.7010   -0.1550    1.3860 ca        1 2GG     -0.184000
      5 C20         3.5380   -0.0850    2.4890 ca        1 2GG     -0.066500
      6 C17         0.7610    0.0020    2.8620 ca        1 2GG     -0.184000
      7 C16         1.6160    0.0700    3.9590 ca        1 2GG     -0.066500
      8 C7          3.0050    0.0240    3.7860 ca        1 2GG     -0.120000
      9 C3          3.8880    0.0910    4.9260 cc        1 2GG     -0.195600
     10 C2          4.3610   -1.0260    5.7350 cc        1 2GG      0.205800
     11 C8          4.0030   -2.4290    5.5630 c         1 2GG      0.498600
     12 O9          3.0790   -2.9170    4.9360 o         1 2GG     -0.386100
     13 N10         4.9310   -3.3950    6.2900 ny        1 2GG     -0.677800
     14 C26         4.6880   -4.8360    5.9760 c3        1 2GG      0.110800
     15 C27         5.2450   -5.2590    4.6340 c3        1 2GG     -0.133100
     16 N1          5.1900   -0.5560    6.7110 nd        1 2GG     -0.349300
     17 C4          4.5010    1.2060    5.5120 cd        1 2GG      0.400200
     18 C6          4.5110    2.6160    5.2760 ca        1 2GG     -0.254500
     19 C11         3.7920    3.1550    4.1940 ca        1 2GG     -0.005000
     20 C12         3.7850    4.5220    3.9470 ca        1 2GG     -0.117600
     21 Cl25        2.9040    5.1270    2.6290 cl        1 2GG     -0.056400
     22 C13         4.5110    5.3950    4.7920 ca        1 2GG      0.230100
     23 O24         4.5650    6.7470    4.6310 oh        1 2GG     -0.465100
     24 C14         5.2370    4.8820    5.8770 ca        1 2GG     -0.257000
     25 C15         5.2350    3.5040    6.1130 ca        1 2GG      0.219100
     26 O23         5.9240    2.9440    7.1520 oh        1 2GG     -0.481100
     27 O3          5.2840    0.7300    6.6050 os        1 2GG     -0.025100
     28 H221       -1.2290   -0.9840    1.1690 h1        1 2GG      0.055367
     29 H222       -1.1560    0.8470    1.0190 h1        1 2GG      0.055367
     30 H223       -1.2180   -0.1970   -0.4960 h1        1 2GG      0.055367
     31 H19         3.1050   -0.2390    0.3670 ha        1 2GG      0.160000
     32 H17        -0.3270    0.0420    3.0160 ha        1 2GG      0.160000
     33 H20         4.6290   -0.1080    2.3450 ha        1 2GG      0.140000
     34 H16         1.1900    0.1640    4.9700 ha        1 2GG      0.140000
     35 H10         4.8110   -3.2440    7.3000 hn        1 2GG      0.467300
     36 H261        3.5720   -5.0120    6.0020 hx        1 2GG      0.110700
     37 H262        5.1690   -5.4380    6.8010 hx        1 2GG      0.110700
     38 H271        6.3500   -5.1020    4.5740 hc        1 2GG      0.080033
     39 H272        5.0390   -6.3520    4.5030 hc        1 2GG      0.080033
     40 H273        4.7490   -4.7090    3.7970 hc        1 2GG      0.080033
     41 H11         3.2260    2.4720    3.5340 ha        1 2GG      0.172000
     42 H24         4.0320    6.9980    3.8560 ho        1 2GG      0.450000
     43 H14         5.7970    5.5720    6.5260 ha        1 2GG      0.176000
     44 H23         6.3670    3.6510    7.6500 ho        1 2GG      0.445000
     45 H102        5.8990   -3.1540    6.0450 hn        1 2GG      0.467300
@<TRIPOS>BOND
     1    1    2 1   
     2    1   28 1   
     3    1   29 1   
     4    1   30 1   
     5    2    3 1   
     6    3    4 ar  
     7    3    6 ar  
     8    4    5 ar  
     9    4   31 1   
    10    5    8 ar  
    11    5   33 1   
    12    6    7 ar  
    13    6   32 1   
    14    7    8 ar  
    15    7   34 1   
    16    8    9 1   
    17    9   10 1   
    18    9   17 2   
    19   10   11 1   
    20   10   16 2   
    21   11   12 2   
    22   11   13 1   
    23   13   14 1   
    24   13   35 1   
    25   13   45 1   
    26   14   15 1   
    27   14   36 1   
    28   14   37 1   
    29   15   38 1   
    30   15   39 1   
    31   15   40 1   
    32   16   27 1   
    33   17   18 1   
    34   17   27 1   
    35   18   19 ar  
    36   18   25 ar  
    37   19   20 ar  
    38   19   41 1   
    39   20   21 1   
    40   20   22 ar  
    41   22   23 1   
    42   22   24 ar  
    43   23   42 1   
    44   24   25 ar  
    45   24   43 1   
    46   25   26 1   
    47   26   44 1   
@<TRIPOS>SUBSTRUCTURE
     1 2GG         1 TEMP              0 ****  ****    0 ROOT
