@<TRIPOS>MOLECULE
2GG
   44    40     1     0     0
SMALL
bcc


@<TRIPOS>ATOM
      1 C22        -3.1550    1.0260   -4.3530 c3        1 2GG     -0.077000
      2 O21        -1.7290    1.0760   -4.1560 os        1 2GG     -0.210000
      3 C18        -1.3280    0.9650   -2.7900 c2        1 2GG      0.090000
      4 C19        -1.3330    2.1930   -1.9020 c2        1 2GG     -0.208000
      5 C20        -0.7060    2.1330   -0.5160 c1        1 2GG     -0.061000
      6 C17        -0.7310   -0.3360   -2.2810 c1        1 2GG     -0.165000
      7 C16        -0.1050   -0.3960   -0.8960 c1        1 2GG     -0.087000
      8 C7         -0.1090    0.8330   -0.0080 c1        1 2GG     -0.075000
      9 C3          0.6090    0.7950    1.3740 c2        1 2GG     -0.081000
     10 C2          1.9810    0.7320    1.4390 c2        1 2GG     -0.143000
     11 C8          2.8170    0.6970    0.1400 c2        1 2GG      0.383000
     12 O9          2.2600    0.7260   -0.9380 o         1 2GG     -0.356000
     13 N10         4.2820    0.8020    0.2100 n         1 2GG     -0.359000
     14 C26         5.1180   -0.1430   -0.5240 c3        1 2GG     -0.033000
     15 C27         6.2320    0.6180   -1.2530 c3        1 2GG     -0.239000
     16 N1          2.3660   -0.0480    2.5470 n1        1 2GG     -0.007000
     17 C4          0.0470    0.0510    2.4510 c1        1 2GG      0.033000
     18 C6         -1.2530   -0.6980    2.2590 c1        1 2GG     -0.097000
     19 C11        -1.2290   -2.1560    1.8780 c2        1 2GG     -0.022000
     20 C12        -2.5010   -2.9750    1.9380 c1        1 2GG     -0.193000
     21 CL25       -2.4490   -4.6850    1.6260 cl        1 2GG     -0.003000
     22 C13        -3.8170   -2.3040    2.2600 c2        1 2GG      0.152000
     23 O24        -4.9970   -3.0430    2.2550 oh        1 2GG     -0.237000
     24 C14        -3.8540   -0.8290    2.5670 c1        1 2GG     -0.256000
     25 C15        -2.5650   -0.0250    2.5820 c1        1 2GG      0.154000
     26 O23        -2.5820    1.3120    2.9870 oh        1 2GG     -0.221000
     27 O3          1.1400   -0.5470    3.2850 o         1 2GG     -0.023000
     28 H221       -3.5850    0.6660   -3.5470 h1        1 2GG      0.085333
     29 H222       -3.3590    0.4460   -5.1190 h1        1 2GG      0.085333
     30 H223       -3.4960    1.9350   -4.5290 h1        1 2GG      0.085333
     31 H19        -1.7190    3.0350   -2.2310 ha        1 2GG      0.143000
     32 H17        -0.7280   -1.1250   -2.8500 ha        1 2GG      0.151000
     33 H20        -0.7090    2.9280    0.0570 ha        1 2GG      0.169000
     34 H16         0.2800   -1.2370   -0.5680 ha        1 2GG      0.139000
     35 H10         4.6680    1.4700    0.6930 hn        1 2GG      0.232000
     36 H261        4.5720   -0.6220   -1.1760 h1        1 2GG      0.101500
     37 H262        5.5170   -0.7860    0.1070 h1        1 2GG      0.101500
     38 H271        7.1100    0.2380   -1.0000 hc        1 2GG      0.083000
     39 H272        6.1070    0.5310   -2.2230 hc        1 2GG      0.083000
     40 H273        6.2000    1.5710   -1.0010 hc        1 2GG      0.083000
     41 H11        -0.4130   -2.5550    1.5420 ha        1 2GG      0.173000
     42 H24        -5.2260   -3.2410    3.0910 ho        1 2GG      0.237000
     43 H14        -4.7010   -0.3950    2.7750 ha        1 2GG      0.163000
     44 H23        -2.9290    1.3700    3.8020 ho        1 2GG      0.228000
@<TRIPOS>BOND
     1    1    2 1   
     2    1   28 1   
     3    1   29 1   
     4    1   30 1   
     5    2    3 1   
     6    3    4 1   
     7    3    6 1   
     8    4    5 1   
     9    4   31 1   
    10    5   33 1   
    11    6   32 1   
    12    7    8 1   
    13    7   34 1   
    14    8    9 1   
    15    9   10 1   
    16    9   17 1   
    17   10   11 1   
    18   10   16 1   
    19   11   12 1   
    20   11   13 1   
    21   13   14 1   
    22   13   35 1   
    23   14   15 1   
    24   14   36 1   
    25   14   37 1   
    26   15   38 1   
    27   15   39 1   
    28   15   40 1   
    29   17   27 1   
    30   18   19 1   
    31   18   25 1   
    32   19   20 1   
    33   19   41 1   
    34   20   22 1   
    35   22   23 1   
    36   22   24 1   
    37   23   42 1   
    38   24   43 1   
    39   25   26 1   
    40   26   44 1   
@<TRIPOS>SUBSTRUCTURE
     1 2GG         1 TEMP              0 ****  ****    0 ROOT
