@<TRIPOS>MOLECULE
2GG
   45    47     1     0     0
SMALL
bcc


@<TRIPOS>ATOM
      1 C22        -0.9120   -0.1530    0.6320 c3        1 2GG      0.107700
      2 O21         0.5030   -0.2280    0.4690 os        1 2GG     -0.313900
      3 C18         1.2600   -0.1360    1.6110 ca        1 2GG      0.162100
      4 C19         2.6550   -0.1850    1.4020 ca        1 2GG     -0.184000
      5 C20         3.5090   -0.1040    2.4910 ca        1 2GG     -0.066500
      6 C17         0.7400   -0.0040    2.9060 ca        1 2GG     -0.184000
      7 C16         1.6110    0.0730    3.9890 ca        1 2GG     -0.066500
      8 C7          2.9980    0.0210    3.7940 ca        1 2GG     -0.120000
      9 C3          3.8980    0.0970    4.9200 cc        1 2GG     -0.195600
     10 C2          4.3810   -1.0130    5.7330 cc        1 2GG      0.205800
     11 C8          4.0180   -2.4160    5.5800 c         1 2GG      0.498600
     12 O9          3.0850   -2.9090    4.9710 o         1 2GG     -0.386100
     13 N10         4.9540   -3.3780    6.3040 n4        1 2GG     -0.677800
     14 C26         4.7030   -4.8210    6.0090 c3        1 2GG      0.110800
     15 C27         5.2410   -5.2590    4.6640 c3        1 2GG     -0.133100
     16 N1          5.2270   -0.5350    6.6910 nd        1 2GG     -0.349300
     17 C4          4.5230    1.2170    5.4850 cd        1 2GG      0.400200
     18 C6          4.5320    2.6250    5.2340 ca        1 2GG     -0.254500
     19 C11         3.7940    3.1540    4.1620 ca        1 2GG     -0.005000
     20 C12         3.7860    4.5190    3.9010 ca        1 2GG     -0.117600
     21 CL25        2.8810    5.1140    2.5950 cl        1 2GG     -0.056400
     22 C13         4.5300    5.3980    4.7230 ca        1 2GG      0.230100
     23 O24         4.5850    6.7480    4.5480 oh        1 2GG     -0.465100
     24 C14         5.2760    4.8940    5.7990 ca        1 2GG     -0.257000
     25 C15         5.2740    3.5180    6.0480 ca        1 2GG      0.219100
     26 O23         5.9820    2.9660    7.0800 oh        1 2GG     -0.481100
     27 O3          5.3220    0.7500    6.5700 os        1 2GG     -0.025100
     28 H221       -1.2040    0.8260    1.0830 h1        1 2GG      0.055367
     29 H222       -1.2800   -1.0030    1.2560 h1        1 2GG      0.055367
     30 H223       -1.2930   -0.2360   -0.4180 h1        1 2GG      0.055367
     31 H19         3.0430   -0.2810    0.3770 ha        1 2GG      0.160000
     32 H17        -0.3460    0.0410    3.0770 ha        1 2GG      0.160000
     33 H20         4.5980   -0.1320    2.3290 ha        1 2GG      0.140000
     34 H16         1.2020    0.1800    5.0050 ha        1 2GG      0.140000
     35 H10         4.8480   -3.2160    7.3130 hn        1 2GG      0.467300
     36 H261        3.5870   -4.9940    6.0510 hx        1 2GG      0.110700
     37 H262        5.1940   -5.4150    6.8330 hx        1 2GG      0.110700
     38 H271        4.7340   -4.7160    3.8270 hc        1 2GG      0.080033
     39 H272        6.3450   -5.1060    4.5860 hc        1 2GG      0.080033
     40 H273        5.0300   -6.3530    4.5470 hc        1 2GG      0.080033
     41 H11         3.2130    2.4670    3.5190 ha        1 2GG      0.172000
     42 H24         4.0380    6.9940    3.7800 ho        1 2GG      0.450000
     43 H14         5.8500    5.5880    6.4300 ha        1 2GG      0.176000
     44 H23         6.4370    3.6770    7.5620 ho        1 2GG      0.445000
     45 H102        5.9190   -3.1420    6.0420 hn        1 2GG      0.467300
@<TRIPOS>BOND
     1    1    2 1   
     2    1   28 1   
     3    1   29 1   
     4    1   30 1   
     5    2    3 1   
     6    3    4 ar  
     7    3    6 ar  
     8    4    5 ar  
     9    4   31 1   
    10    5    8 ar  
    11    5   33 1   
    12    6    7 ar  
    13    6   32 1   
    14    7    8 ar  
    15    7   34 1   
    16    8    9 1   
    17    9   10 1   
    18    9   17 2   
    19   10   11 1   
    20   10   16 2   
    21   11   12 2   
    22   11   13 1   
    23   13   14 1   
    24   13   35 1   
    25   13   45 1   
    26   14   15 1   
    27   14   36 1   
    28   14   37 1   
    29   15   38 1   
    30   15   39 1   
    31   15   40 1   
    32   16   27 1   
    33   17   18 1   
    34   17   27 1   
    35   18   19 ar  
    36   18   25 ar  
    37   19   20 ar  
    38   19   41 1   
    39   20   21 1   
    40   20   22 ar  
    41   22   23 1   
    42   22   24 ar  
    43   23   42 1   
    44   24   25 ar  
    45   24   43 1   
    46   25   26 1   
    47   26   44 1   
@<TRIPOS>SUBSTRUCTURE
     1 2GG         1 TEMP              0 ****  ****    0 ROOT
