@<TRIPOS>MOLECULE
2GG
   45    47     1     0     0
SMALL
bcc


@<TRIPOS>ATOM
      1 C22        -0.8540   -0.1540    0.5620 c3        1 2GG      0.107700
      2 O21         0.5650   -0.2150    0.4200 os        1 2GG     -0.313900
      3 C18         1.3030   -0.1290    1.5750 ca        1 2GG      0.162100
      4 C19         2.7020   -0.1630    1.3870 ca        1 2GG     -0.184000
      5 C20         3.5380   -0.0870    2.4890 ca        1 2GG     -0.066500
      6 C17         0.7620   -0.0140    2.8620 ca        1 2GG     -0.184000
      7 C16         1.6160    0.0600    3.9590 ca        1 2GG     -0.066500
      8 C7          3.0060    0.0210    3.7860 ca        1 2GG     -0.120000
      9 C3          3.8880    0.0940    4.9260 cc        1 2GG     -0.195600
     10 C2          4.3670   -1.0190    5.7360 cc        1 2GG      0.205800
     11 C8          4.0160   -2.4240    5.5660 c         1 2GG      0.498600
     12 O9          3.0950   -2.9180    4.9390 o         1 2GG     -0.386100
     13 N10         4.9490   -3.3850    6.2950 n4        1 2GG     -0.677800
     14 C26         4.7130   -4.8270    5.9840 c3        1 2GG      0.110800
     15 C27         5.2730   -5.2500    4.6430 c3        1 2GG     -0.133100
     16 N1          5.1940   -0.5440    6.7120 nd        1 2GG     -0.349300
     17 C4          4.4960    1.2130    5.5100 cd        1 2GG      0.400200
     18 C6          4.4990    2.6230    5.2710 ca        1 2GG     -0.254500
     19 C11         3.7790    3.1560    4.1880 ca        1 2GG     -0.005000
     20 C12         3.7650    4.5220    3.9380 ca        1 2GG     -0.117600
     21 CL25        2.8830    5.1210    2.6180 cl        1 2GG     -0.056400
     22 C13         4.4850    5.4010    4.7840 ca        1 2GG      0.230100
     23 O24         4.5310    6.7520    4.6210 oh        1 2GG     -0.465100
     24 C14         5.2110    4.8930    5.8710 ca        1 2GG     -0.257000
     25 C15         5.2160    3.5160    6.1080 ca        1 2GG      0.219100
     26 O23         5.9070    2.9610    7.1500 oh        1 2GG     -0.481100
     27 O3          5.2810    0.7430    6.6040 os        1 2GG     -0.025100
     28 H221       -1.2240   -1.0130    1.1710 h1        1 2GG      0.055367
     29 H222       -1.1610    0.8180    1.0190 h1        1 2GG      0.055367
     30 H223       -1.2180   -0.2290   -0.4950 h1        1 2GG      0.055367
     31 H19         3.1060   -0.2460    0.3670 ha        1 2GG      0.160000
     32 H17        -0.3260    0.0190    3.0170 ha        1 2GG      0.160000
     33 H20         4.6300   -0.1040    2.3440 ha        1 2GG      0.140000
     34 H16         1.1900    0.1530    4.9710 ha        1 2GG      0.140000
     35 H10         4.8270   -3.2320    7.3040 hn        1 2GG      0.467300
     36 H261        3.5980   -5.0090    6.0090 hx        1 2GG      0.110700
     37 H262        5.1970   -5.4260    6.8100 hx        1 2GG      0.110700
     38 H271        6.3760   -5.0880    4.5820 hc        1 2GG      0.080033
     39 H272        5.0720   -6.3440    4.5140 hc        1 2GG      0.080033
     40 H273        4.7740   -4.7040    3.8040 hc        1 2GG      0.080033
     41 H11         3.2180    2.4690    3.5270 ha        1 2GG      0.172000
     42 H24         3.9990    7.0000    3.8440 ho        1 2GG      0.450000
     43 H14         5.7660    5.5870    6.5200 ha        1 2GG      0.176000
     44 H23         6.3450    3.6710    7.6470 ho        1 2GG      0.445000
     45 H102        5.9160   -3.1390    6.0500 hn        1 2GG      0.467300
@<TRIPOS>BOND
     1    1    2 1   
     2    1   28 1   
     3    1   29 1   
     4    1   30 1   
     5    2    3 1   
     6    3    4 ar  
     7    3    6 ar  
     8    4    5 ar  
     9    4   31 1   
    10    5    8 ar  
    11    5   33 1   
    12    6    7 ar  
    13    6   32 1   
    14    7    8 ar  
    15    7   34 1   
    16    8    9 1   
    17    9   10 1   
    18    9   17 2   
    19   10   11 1   
    20   10   16 2   
    21   11   12 2   
    22   11   13 1   
    23   13   14 1   
    24   13   35 1   
    25   13   45 1   
    26   14   15 1   
    27   14   36 1   
    28   14   37 1   
    29   15   38 1   
    30   15   39 1   
    31   15   40 1   
    32   16   27 1   
    33   17   18 1   
    34   17   27 1   
    35   18   19 ar  
    36   18   25 ar  
    37   19   20 ar  
    38   19   41 1   
    39   20   21 1   
    40   20   22 ar  
    41   22   23 1   
    42   22   24 ar  
    43   23   42 1   
    44   24   25 ar  
    45   24   43 1   
    46   25   26 1   
    47   26   44 1   
@<TRIPOS>SUBSTRUCTURE
     1 2GG         1 TEMP              0 ****  ****    0 ROOT
