@<TRIPOS>MOLECULE
2GH
   51    50     1     0     0
SMALL
bcc


@<TRIPOS>ATOM
      1 OAH         1.5810    1.8160   -6.8890 o         1 2GH     -0.920500
      2 PAX         2.7090    1.2120   -6.1230 p5        1 2GH      1.336900
      3 OAI         3.0810   -0.2320   -6.3350 o         1 2GH     -0.920500
      4 OAF         4.0030    1.9970   -5.9960 o         1 2GH     -0.920500
      5 OAS         2.1380    1.2270   -4.5010 os        1 2GH     -0.560200
      6 CAP         2.9960    0.6610   -3.5920 c3        1 2GH      0.227400
      7 CAW         3.4860    1.6850   -2.5240 c3        1 2GH     -0.111000
      8 CAB         3.4990    3.0920   -3.0980 c3        1 2GH     -0.091100
      9 CAC         2.5140    1.6340   -1.3490 c3        1 2GH     -0.091100
     10 CAV         4.8820    1.3260   -1.9780 c3        1 2GH      0.094100
     11 OAG         5.0680   -0.0660   -1.7880 oh        1 2GH     -0.617800
     12 CAU         6.0690    1.8990   -2.7800 c         1 2GH      0.621100
     13 OAE         6.9950    2.4700   -2.1470 o         1 2GH     -0.700100
     14 NAR         6.1240    1.6770   -4.1270 n         1 2GH     -0.538900
     15 CAN         7.2120    2.2120   -4.9060 c3        1 2GH      0.113000
     16 CAO         6.9710    2.1240   -6.4120 c3        1 2GH     -0.176400
     17 CAT         7.1050    0.6920   -6.9020 c         1 2GH      0.656100
     18 OAD         8.2100    0.2980   -7.3720 o         1 2GH     -0.736100
     19 NAQ         6.0230   -0.1300   -6.7940 n         1 2GH     -0.534900
     20 CAM         6.0710   -1.5000   -7.2230 c3        1 2GH      0.116000
     21 CAL         4.9210   -1.8990   -8.1490 c3        1 2GH     -0.134400
     22 CAK         4.9780   -3.3810   -8.4430 c3        1 2GH     -0.062400
     23 CAJ         3.8370   -3.7980   -9.3470 c3        1 2GH     -0.084400
     24 CAA         3.8550   -5.2790   -9.6250 c3        1 2GH     -0.086100
     25 H3          2.4660   -0.1680   -3.0340 h1        1 2GH     -0.004300
     26 H4          3.8740    0.1960   -4.1270 h1        1 2GH     -0.004300
     27 H5          3.6870    3.0430   -4.2100 hc        1 2GH      0.033700
     28 H6          2.5000    3.5710   -2.9570 hc        1 2GH      0.033700
     29 H7          4.2730    3.7230   -2.6000 hc        1 2GH      0.033700
     30 H8          1.4700    1.7460   -1.7320 hc        1 2GH      0.033700
     31 H9          2.7240    2.4570   -0.6250 hc        1 2GH      0.033700
     32 H10         2.6030    0.6580   -0.8150 hc        1 2GH      0.033700
     33 H11         4.9880    1.7490   -0.9350 h1        1 2GH      0.062700
     34 H12         4.9480   -0.4990   -2.6430 ho        1 2GH      0.419000
     35 H13         5.2450    1.5530   -4.6430 hn        1 2GH      0.400500
     36 H14         8.1530    1.6520   -4.6370 h1        1 2GH      0.021700
     37 H15         7.3860    3.2950   -4.6370 h1        1 2GH      0.021700
     38 H16         5.9460    2.5310   -6.6650 hc        1 2GH      0.093700
     39 H17         7.7530    2.7350   -6.9280 hc        1 2GH      0.093700
     40 H18         5.1050    0.2370   -6.5190 hn        1 2GH      0.409500
     41 H19         7.0540   -1.7050   -7.7360 h1        1 2GH      0.021700
     42 H20         6.0220   -2.1550   -6.3030 h1        1 2GH      0.021700
     43 H21         4.9850   -1.3210   -9.1070 hc        1 2GH      0.093700
     44 H22         3.9400   -1.6270   -7.6520 hc        1 2GH      0.093700
     45 H23         4.9200   -3.9570   -7.4820 hc        1 2GH      0.017700
     46 H24         5.9560   -3.6440   -8.9280 hc        1 2GH      0.017700
     47 H25         2.8650   -3.5120   -8.8640 hc        1 2GH      0.046700
     48 H26         3.9020   -3.2330  -10.3140 hc        1 2GH      0.046700
     49 H27         4.8110   -5.5770  -10.1200 hc        1 2GH      0.015367
     50 H28         3.7610   -5.8580   -8.6750 hc        1 2GH      0.015367
     51 H29         3.0090   -5.5630  -10.2960 hc        1 2GH      0.015367
@<TRIPOS>BOND
     1    1    2 1   
     2    2    3 1   
     3    2    4 1   
     4    2    5 1   
     5    5    6 1   
     6    6    7 1   
     7    6   25 1   
     8    6   26 1   
     9    7    8 1   
    10    7    9 1   
    11    7   10 1   
    12    8   27 1   
    13    8   28 1   
    14    8   29 1   
    15    9   30 1   
    16    9   31 1   
    17    9   32 1   
    18   10   11 1   
    19   10   12 1   
    20   10   33 1   
    21   11   34 1   
    22   12   13 2   
    23   12   14 1   
    24   14   15 1   
    25   14   35 1   
    26   15   16 1   
    27   15   36 1   
    28   15   37 1   
    29   16   17 1   
    30   16   38 1   
    31   16   39 1   
    32   17   18 2   
    33   17   19 1   
    34   19   20 1   
    35   19   40 1   
    36   20   21 1   
    37   20   41 1   
    38   20   42 1   
    39   21   22 1   
    40   21   43 1   
    41   21   44 1   
    42   22   23 1   
    43   22   45 1   
    44   22   46 1   
    45   23   24 1   
    46   23   47 1   
    47   23   48 1   
    48   24   49 1   
    49   24   50 1   
    50   24   51 1   
@<TRIPOS>SUBSTRUCTURE
     1 2GH         1 TEMP              0 ****  ****    0 ROOT
