@<TRIPOS>MOLECULE
2GJ
   66    69     1     0     0
SMALL
bcc


@<TRIPOS>ATOM
      1 C25         0.3610    0.6090    1.0560 c3        1 2GJ      0.128800
      2 C26         1.8220    0.1990    0.8350 c3        1 2GJ      0.126400
      3 O27         2.3780   -0.4090    1.9940 os        1 2GJ     -0.407600
      4 C28         1.6240   -1.5360    2.4230 c3        1 2GJ      0.126400
      5 C29         0.1600   -1.1640    2.6870 c3        1 2GJ      0.128800
      6 N24        -0.4570   -0.4940    1.5490 n3        1 2GJ     -0.728600
      7 C23        -1.8250   -0.0720    1.8240 c3        1 2GJ      0.205100
      8 C20        -2.7930   -1.2120    1.9580 ca        1 2GJ     -0.052300
      9 C21        -2.8160   -2.2490    1.0180 ca        1 2GJ     -0.119000
     10 C22        -3.7510   -3.2750    1.1250 ca        1 2GJ     -0.106500
     11 C19        -3.7210   -1.2130    3.0050 ca        1 2GJ     -0.119000
     12 C18        -4.6610   -2.2350    3.1140 ca        1 2GJ     -0.106500
     13 C7         -4.6790   -3.2770    2.1770 ca        1 2GJ     -0.070000
     14 C3         -5.6450   -4.3470    2.2940 cc        1 2GJ     -0.209600
     15 C2         -5.4720   -5.6050    3.0080 cc        1 2GJ      0.209800
     16 C8         -4.2850   -6.0210    3.7440 c         1 2GJ      0.497600
     17 O9         -3.2400   -5.4210    3.9250 o         1 2GJ     -0.389100
     18 N10        -4.3910   -7.4140    4.3580 ny        1 2GJ     -0.677800
     19 C11        -3.1960   -7.8320    5.1520 c3        1 2GJ      0.110800
     20 C12        -3.1520   -7.2200    6.5360 c3        1 2GJ     -0.133100
     21 N1         -6.6070   -6.3520    2.8830 nd        1 2GJ     -0.356300
     22 O5         -7.4690   -5.7000    2.1720 os        1 2GJ     -0.026100
     23 C4         -6.9400   -4.4380    1.7660 cd        1 2GJ      0.410200
     24 C6         -7.7910   -3.6110    0.9700 ca        1 2GJ     -0.261500
     25 C13        -7.3400   -2.3560    0.5150 ca        1 2GJ     -0.019000
     26 C14        -8.1330   -1.5220   -0.2610 ca        1 2GJ     -0.127300
     27 C30        -7.6290   -0.1930   -0.7310 c3        1 2GJ     -0.020400
     28 C32        -7.3120    0.7140    0.4430 c3        1 2GJ     -0.090100
     29 C31        -6.4120   -0.3580   -1.6220 c3        1 2GJ     -0.090100
     30 C15        -9.4390   -1.9630   -0.6000 ca        1 2GJ      0.222100
     31 O34       -10.2000   -1.1250   -1.3650 oh        1 2GJ     -0.472100
     32 C16        -9.9210   -3.2040   -0.1670 ca        1 2GJ     -0.318000
     33 C17        -9.0980   -4.0230    0.6150 ca        1 2GJ      0.221100
     34 O33        -9.5080   -5.2460    1.0710 oh        1 2GJ     -0.483100
     35 H251       -0.0670    0.9440    0.0700 h1        1 2GJ      0.043200
     36 H252        0.3400    1.4880    1.7640 h1        1 2GJ      0.043200
     37 H261        1.9090   -0.5020   -0.0360 h1        1 2GJ      0.057450
     38 H262        2.4560    1.1090    0.6650 h1        1 2GJ      0.057450
     39 H281        2.1180   -1.8570    3.3770 h1        1 2GJ      0.057450
     40 H282        1.6940   -2.3510    1.6570 h1        1 2GJ      0.057450
     41 H291        0.1190   -0.5240    3.6170 h1        1 2GJ      0.043200
     42 H292       -0.4240   -2.1040    2.8860 h1        1 2GJ      0.043200
     43 H231       -1.8820    0.5720    2.7530 h1        1 2GJ      0.050700
     44 H232       -2.1710    0.5620    0.9550 h1        1 2GJ      0.050700
     45 H21        -2.0890   -2.2540    0.1900 ha        1 2GJ      0.155000
     46 H19        -3.7150   -0.4010    3.7490 ha        1 2GJ      0.155000
     47 H22        -3.7640   -4.0830    0.3780 ha        1 2GJ      0.139000
     48 H18        -5.3910   -2.2210    3.9370 ha        1 2GJ      0.139000
     49 H10        -4.5410   -8.0830    3.5930 hn        1 2GJ      0.466800
     50 H111       -2.2740   -7.5330    4.5710 hx        1 2GJ      0.109700
     51 H112       -3.2290   -8.9570    5.2280 hx        1 2GJ      0.109700
     52 H121       -3.0700   -6.1060    6.4850 hc        1 2GJ      0.080033
     53 H122       -2.2430   -7.6140    7.0590 hc        1 2GJ      0.080033
     54 H123       -4.0500   -7.4950    7.1410 hc        1 2GJ      0.080033
     55 H13        -6.3210   -2.0280    0.7880 ha        1 2GJ      0.162000
     56 H30        -8.4400    0.3020   -1.3430 hc        1 2GJ      0.081700
     57 H321       -6.9790    1.7120    0.0690 hc        1 2GJ      0.039700
     58 H322       -8.2170    0.8570    1.0810 hc        1 2GJ      0.039700
     59 H323       -6.4980    0.2810    1.0710 hc        1 2GJ      0.039700
     60 H311       -5.5680   -0.8250   -1.0590 hc        1 2GJ      0.039700
     61 H312       -6.0790    0.6410   -1.9950 hc        1 2GJ      0.039700
     62 H313       -6.6550   -1.0030   -2.5000 hc        1 2GJ      0.039700
     63 H34       -11.0630   -1.5420   -1.5240 ho        1 2GJ      0.437000
     64 H16       -10.9350   -3.5340   -0.4360 ha        1 2GJ      0.154000
     65 H33       -10.4130   -5.4070    0.7600 ho        1 2GJ      0.440000
     66 H102       -5.2220   -7.4320    4.9640 hn        1 2GJ      0.466800
@<TRIPOS>BOND
     1    1    2 1   
     2    1    6 1   
     3    1   35 1   
     4    1   36 1   
     5    2    3 1   
     6    2   37 1   
     7    2   38 1   
     8    3    4 1   
     9    4    5 1   
    10    4   39 1   
    11    4   40 1   
    12    5    6 1   
    13    5   41 1   
    14    5   42 1   
    15    6    7 1   
    16    7    8 1   
    17    7   43 1   
    18    7   44 1   
    19    8    9 ar  
    20    8   11 ar  
    21    9   10 ar  
    22    9   45 1   
    23   10   13 ar  
    24   10   47 1   
    25   11   12 ar  
    26   11   46 1   
    27   12   13 ar  
    28   12   48 1   
    29   13   14 1   
    30   14   15 1   
    31   14   23 2   
    32   15   16 1   
    33   15   21 2   
    34   16   17 2   
    35   16   18 1   
    36   18   19 1   
    37   18   49 1   
    38   18   66 1   
    39   19   20 1   
    40   19   50 1   
    41   19   51 1   
    42   20   52 1   
    43   20   53 1   
    44   20   54 1   
    45   21   22 1   
    46   22   23 1   
    47   23   24 1   
    48   24   25 ar  
    49   24   33 ar  
    50   25   26 ar  
    51   25   55 1   
    52   26   27 1   
    53   26   30 ar  
    54   27   28 1   
    55   27   29 1   
    56   27   56 1   
    57   28   57 1   
    58   28   58 1   
    59   28   59 1   
    60   29   60 1   
    61   29   61 1   
    62   29   62 1   
    63   30   31 1   
    64   30   32 ar  
    65   31   63 1   
    66   32   33 ar  
    67   32   64 1   
    68   33   34 1   
    69   34   65 1   
@<TRIPOS>SUBSTRUCTURE
     1 2GJ         1 TEMP              0 ****  ****    0 ROOT
