@<TRIPOS>MOLECULE
2GJ
   66    69     1     0     0
SMALL
bcc


@<TRIPOS>ATOM
      1 C25         0.3530    0.6060    1.0030 c3        1 2GJ      0.128800
      2 C26         1.8130    0.1940    0.7750 c3        1 2GJ      0.126400
      3 O27         2.3770   -0.4060    1.9340 os        1 2GJ     -0.407600
      4 C28         1.6270   -1.5290    2.3760 c3        1 2GJ      0.126400
      5 C29         0.1650   -1.1560    2.6480 c3        1 2GJ      0.128800
      6 N24        -0.4610   -0.4940    1.5100 n3        1 2GJ     -0.728600
      7 C23        -1.8270   -0.0700    1.7920 c3        1 2GJ      0.205100
      8 C20        -2.7940   -1.2100    1.9410 ca        1 2GJ     -0.052300
      9 C21        -2.8230   -2.2530    1.0090 ca        1 2GJ     -0.119000
     10 C22        -3.7580   -3.2790    1.1300 ca        1 2GJ     -0.106000
     11 C19        -3.7150   -1.2030    2.9940 ca        1 2GJ     -0.119000
     12 C18        -4.6540   -2.2240    3.1180 ca        1 2GJ     -0.106000
     13 C7         -4.6780   -3.2730    2.1880 ca        1 2GJ     -0.070000
     14 C3         -5.6430   -4.3410    2.3190 cc        1 2GJ     -0.209600
     15 C2         -5.4660   -5.5940    3.0430 cc        1 2GJ      0.209800
     16 C8         -4.2750   -6.0050    3.7750 c         1 2GJ      0.497600
     17 O9         -3.2270   -5.4040    3.9430 o         1 2GJ     -0.389100
     18 N10        -4.3790   -7.3910    4.4040 n4        1 2GJ     -0.677800
     19 C11        -3.1790   -7.8010    5.1940 c3        1 2GJ      0.110800
     20 C12        -3.1250   -7.1760    6.5720 c3        1 2GJ     -0.133100
     21 N1         -6.6030   -6.3410    2.9320 nd        1 2GJ     -0.356300
     22 O5         -7.4680   -5.6950    2.2210 os        1 2GJ     -0.026100
     23 C4         -6.9420   -4.4370    1.8010 cd        1 2GJ      0.410200
     24 C6         -7.7970   -3.6170    1.0020 ca        1 2GJ     -0.261500
     25 C13        -7.3450   -2.3700    0.5250 ca        1 2GJ     -0.019000
     26 C14        -8.1430   -1.5430   -0.2540 ca        1 2GJ     -0.127300
     27 C30        -7.6370   -0.2240   -0.7480 c3        1 2GJ     -0.020400
     28 C32        -7.3030    0.6980    0.4100 c3        1 2GJ     -0.090100
     29 C31        -6.4300   -0.4070   -1.6490 c3        1 2GJ     -0.090100
     30 C15        -9.4540   -1.9810   -0.5720 ca        1 2GJ      0.222100
     31 O34       -10.2200   -1.1500   -1.3390 oh        1 2GJ     -0.472100
     32 C16        -9.9380   -3.2140   -0.1160 ca        1 2GJ     -0.318000
     33 C17        -9.1100   -4.0260    0.6670 ca        1 2GJ      0.221100
     34 O33        -9.5210   -5.2410    1.1450 oh        1 2GJ     -0.483100
     35 H251       -0.0820    0.9330    0.0190 h1        1 2GJ      0.043200
     36 H252        0.3370    1.4900    1.7050 h1        1 2GJ      0.043200
     37 H261        2.4450    1.1020    0.5940 h1        1 2GJ      0.057450
     38 H262        1.8940   -0.5130   -0.0920 h1        1 2GJ      0.057450
     39 H281        1.6920   -2.3500    1.6150 h1        1 2GJ      0.057450
     40 H282        2.1280   -1.8450    3.3290 h1        1 2GJ      0.057450
     41 H291       -0.4180   -2.0950    2.8580 h1        1 2GJ      0.043200
     42 H292        0.1300   -0.5100    3.5740 h1        1 2GJ      0.043200
     43 H231       -1.8770    0.5800    2.7170 h1        1 2GJ      0.050700
     44 H232       -2.1800    0.5580    0.9210 h1        1 2GJ      0.050700
     45 H21        -2.1020   -2.2640    0.1760 ha        1 2GJ      0.155000
     46 H19        -3.7030   -0.3850    3.7320 ha        1 2GJ      0.155000
     47 H22        -3.7760   -4.0920    0.3880 ha        1 2GJ      0.139000
     48 H18        -5.3780   -2.2040    3.9450 ha        1 2GJ      0.139000
     49 H10        -5.2050   -7.4010    5.0160 hn        1 2GJ      0.466800
     50 H111       -3.2130   -8.9270    5.2820 hx        1 2GJ      0.109700
     51 H112       -2.2600   -7.5100    4.6040 hx        1 2GJ      0.109700
     52 H121       -2.2130   -7.5660    7.0930 hc        1 2GJ      0.080033
     53 H122       -3.0410   -6.0630    6.5090 hc        1 2GJ      0.080033
     54 H123       -4.0190   -7.4440    7.1860 hc        1 2GJ      0.080033
     55 H13        -6.3210   -2.0440    0.7830 ha        1 2GJ      0.162000
     56 H30        -8.4520    0.2680   -1.3570 hc        1 2GJ      0.081700
     57 H321       -6.4840    0.2700    1.0360 hc        1 2GJ      0.039700
     58 H322       -6.9680    1.6890    0.0190 hc        1 2GJ      0.039700
     59 H323       -8.2000    0.8550    1.0560 hc        1 2GJ      0.039700
     60 H311       -6.0970    0.5850   -2.0390 hc        1 2GJ      0.039700
     61 H312       -6.6860   -1.0630   -2.5150 hc        1 2GJ      0.039700
     62 H313       -5.5820   -0.8700   -1.0890 hc        1 2GJ      0.039700
     63 H34       -11.0860   -1.5650   -1.4840 ho        1 2GJ      0.437000
     64 H16       -10.9560   -3.5420   -0.3690 ha        1 2GJ      0.154000
     65 H33       -10.4310   -5.4010    0.8460 ho        1 2GJ      0.440000
     66 H102       -4.5340   -8.0670    3.6470 hn        1 2GJ      0.466800
@<TRIPOS>BOND
     1    1    2 1   
     2    1    6 1   
     3    1   35 1   
     4    1   36 1   
     5    2    3 1   
     6    2   37 1   
     7    2   38 1   
     8    3    4 1   
     9    4    5 1   
    10    4   39 1   
    11    4   40 1   
    12    5    6 1   
    13    5   41 1   
    14    5   42 1   
    15    6    7 1   
    16    7    8 1   
    17    7   43 1   
    18    7   44 1   
    19    8    9 ar  
    20    8   11 ar  
    21    9   10 ar  
    22    9   45 1   
    23   10   13 ar  
    24   10   47 1   
    25   11   12 ar  
    26   11   46 1   
    27   12   13 ar  
    28   12   48 1   
    29   13   14 1   
    30   14   15 1   
    31   14   23 2   
    32   15   16 1   
    33   15   21 2   
    34   16   17 2   
    35   16   18 1   
    36   18   19 1   
    37   18   49 1   
    38   18   66 1   
    39   19   20 1   
    40   19   50 1   
    41   19   51 1   
    42   20   52 1   
    43   20   53 1   
    44   20   54 1   
    45   21   22 1   
    46   22   23 1   
    47   23   24 1   
    48   24   25 ar  
    49   24   33 ar  
    50   25   26 ar  
    51   25   55 1   
    52   26   27 1   
    53   26   30 ar  
    54   27   28 1   
    55   27   29 1   
    56   27   56 1   
    57   28   57 1   
    58   28   58 1   
    59   28   59 1   
    60   29   60 1   
    61   29   61 1   
    62   29   62 1   
    63   30   31 1   
    64   30   32 ar  
    65   31   63 1   
    66   32   33 ar  
    67   32   64 1   
    68   33   34 1   
    69   34   65 1   
@<TRIPOS>SUBSTRUCTURE
     1 2GJ         1 TEMP              0 ****  ****    0 ROOT
