@<TRIPOS>MOLECULE
2GJ
   65    61     1     0     0
SMALL
bcc


@<TRIPOS>ATOM
      1 C25         3.9920    1.1990   -3.4760 c3        1 2GJ     -0.106500
      2 C26         5.1730    1.6490   -4.0090 c3        1 2GJ     -0.040000
      3 O27         6.2290    1.9660   -3.3270 os        1 2GJ     -0.279000
      4 C28         5.8990    2.6370   -2.1240 c3        1 2GJ     -0.040000
      5 C29         4.4280    3.2450   -2.1350 c3        1 2GJ     -0.106500
      6 N24         3.6730    1.8830   -2.2860 n3        1 2GJ     -0.249000
      7 C23         2.2450    2.1140   -2.2320 c3        1 2GJ     -0.035000
      8 C20         1.6390    1.3630   -1.0030 c2        1 2GJ     -0.073000
      9 C21         1.6940   -0.0300   -0.9470 c2        1 2GJ     -0.117000
     10 C22         0.9780   -0.7210    0.0380 c1        1 2GJ     -0.114000
     11 C19         0.8690    2.0660   -0.0740 c1        1 2GJ     -0.133000
     12 C18         0.1540    1.3750    0.9090 c1        1 2GJ     -0.102000
     13 C7          0.2090   -0.0170    0.9640 c1        1 2GJ     -0.028000
     14 C3         -0.5900   -0.7250    1.9130 c1        1 2GJ     -0.069000
     15 C2         -0.3320   -0.8380    3.2710 c1        1 2GJ     -0.144000
     16 C8          0.9570   -0.4020    3.9840 c1        1 2GJ      0.383000
     17 O9          1.8640    0.0920    3.3480 o         1 2GJ     -0.354000
     18 N10         1.0560   -0.5070    5.4290 n3        1 2GJ     -0.360000
     19 C11         2.3040   -0.9110    6.0430 c3        1 2GJ     -0.033000
     20 C12         2.1270   -0.9880    7.5480 c3        1 2GJ     -0.239000
     21 N1         -1.3780   -1.4720    3.8430 n2        1 2GJ     -0.005000
     22 O5         -2.3090   -1.7640    2.8420 os        1 2GJ     -0.043000
     23 C4         -1.8190   -1.3050    1.6660 c2        1 2GJ      0.037000
     24 C6         -2.4300   -1.4490    0.4020 c1        1 2GJ     -0.102000
     25 C13        -3.6000   -0.7410    0.1130 c1        1 2GJ     -0.028000
     26 C14        -4.3220   -1.0300   -1.0410 c1        1 2GJ     -0.124000
     27 C30        -5.5890   -0.2280   -1.3760 c2        1 2GJ     -0.051000
     28 C32        -5.5330    0.2210   -2.8190 c3        1 2GJ     -0.209000
     29 C31        -6.8090   -1.1010   -1.1670 c3        1 2GJ     -0.209000
     30 C15        -3.8810   -2.0210   -1.9050 c2        1 2GJ      0.146000
     31 O34        -4.5650   -2.2570   -3.1050 oh        1 2GJ     -0.240000
     32 C16        -2.7200   -2.7260   -1.6200 c1        1 2GJ     -0.311000
     33 C17        -1.9930   -2.4380   -0.4620 c1        1 2GJ      0.150000
     34 O33        -0.8380   -3.1750   -0.1570 oh        1 2GJ     -0.242000
     35 H251        4.0710    0.2450   -3.2850 h1        1 2GJ      0.095000
     36 H252        3.2740    1.3360   -4.1270 h1        1 2GJ      0.095000
     37 H261        5.4590    0.9630   -4.6420 h1        1 2GJ      0.089250
     38 H262        4.9450    2.4450   -4.5380 h1        1 2GJ      0.089250
     39 H281        6.5400    3.3660   -1.9840 h1        1 2GJ      0.089250
     40 H282        5.9720    2.0050   -1.3810 h1        1 2GJ      0.089250
     41 H291        4.2140    3.6850   -1.2950 h1        1 2GJ      0.095000
     42 H292        4.2810    3.8310   -2.9090 h1        1 2GJ      0.095000
     43 H231        1.8300    1.7820   -3.0560 h1        1 2GJ      0.081500
     44 H232        2.0740    3.0740   -2.1440 h1        1 2GJ      0.081500
     45 H21         2.2300   -0.5210   -1.5910 ha        1 2GJ      0.144000
     46 H19         0.8300    3.0350   -0.1110 ha        1 2GJ      0.135000
     47 H22         1.0160   -1.6930    0.0770 ha        1 2GJ      0.144000
     48 H18        -0.3830    1.8660    1.5550 ha        1 2GJ      0.166000
     49 H10         0.3310   -0.3030    5.9550 hn        1 2GJ      0.232000
     50 H111        2.5660   -1.7890    5.7000 h1        1 2GJ      0.101500
     51 H112        3.0000   -0.2560    5.8290 h1        1 2GJ      0.101500
     52 H121        2.6760   -0.2970    7.9780 hc        1 2GJ      0.083000
     53 H122        1.1880   -0.8450    7.7730 hc        1 2GJ      0.083000
     54 H123        2.4080   -1.8730    7.8650 hc        1 2GJ      0.083000
     55 H13        -3.9440   -0.0940    0.7510 ha        1 2GJ      0.152000
     56 H30        -5.6440    0.5510   -0.7960 ha        1 2GJ      0.088000
     57 H321       -5.6230   -0.5590   -3.4080 hc        1 2GJ      0.079167
     58 H322       -6.2660    0.8510   -2.9960 hc        1 2GJ      0.079167
     59 H323       -4.6790    0.6610   -2.9900 hc        1 2GJ      0.079167
     60 H311       -6.9180   -1.7000   -1.9370 hc        1 2GJ      0.079167
     61 H312       -7.6070   -0.5340   -1.0780 hc        1 2GJ      0.079167
     62 H313       -6.6950   -1.6300   -0.3560 hc        1 2GJ      0.079167
     63 H34        -4.5560   -3.1190   -3.2840 ho        1 2GJ      0.220000
     64 H16        -2.4120   -3.4200   -2.2260 ha        1 2GJ      0.140000
     65 H33        -0.9560   -4.0270   -0.3990 ho        1 2GJ      0.224000
@<TRIPOS>BOND
     1    1    2 1   
     2    1    6 1   
     3    1   35 1   
     4    1   36 1   
     5    2    3 1   
     6    2   37 1   
     7    2   38 1   
     8    3    4 1   
     9    4    5 1   
    10    4   39 1   
    11    4   40 1   
    12    5    6 1   
    13    5   41 1   
    14    5   42 1   
    15    6    7 1   
    16    7    8 1   
    17    7   43 1   
    18    7   44 1   
    19    8    9 1   
    20    8   11 1   
    21    9   10 1   
    22    9   45 1   
    23   10   47 1   
    24   11   46 1   
    25   12   13 1   
    26   12   48 1   
    27   14   15 1   
    28   14   23 1   
    29   15   21 1   
    30   16   17 1   
    31   16   18 1   
    32   18   19 1   
    33   18   49 1   
    34   19   20 1   
    35   19   50 1   
    36   19   51 1   
    37   20   52 1   
    38   20   53 1   
    39   20   54 1   
    40   21   22 1   
    41   22   23 1   
    42   23   24 1   
    43   24   33 1   
    44   25   26 1   
    45   25   55 1   
    46   26   30 1   
    47   27   28 1   
    48   27   29 1   
    49   27   56 1   
    50   28   57 1   
    51   28   58 1   
    52   28   59 1   
    53   29   60 1   
    54   29   61 1   
    55   29   62 1   
    56   30   31 1   
    57   30   32 1   
    58   31   63 1   
    59   32   64 1   
    60   33   34 1   
    61   34   65 1   
@<TRIPOS>SUBSTRUCTURE
     1 2GJ         1 TEMP              0 ****  ****    0 ROOT
