@<TRIPOS>MOLECULE
2GJ
   65    68     1     0     0
SMALL
bcc


@<TRIPOS>ATOM
      1 C25        36.3410    4.4580   21.8320 c3        1 2GJ      0.129300
      2 C26        36.3850    2.9290   21.7310 c3        1 2GJ      0.126900
      3 O27        36.5810    2.3210   23.0010 os        1 2GJ     -0.416600
      4 C28        35.5880    2.7150   23.9430 c3        1 2GJ      0.126900
      5 C29        35.5280    4.2380   24.0970 c3        1 2GJ      0.129300
      6 N24        35.3710    4.9200   22.8180 n3        1 2GJ     -0.724600
      7 C23        35.3870    6.3720   22.9450 c3        1 2GJ      0.213100
      8 C20        34.2890    6.9290   23.8030 ca        1 2GJ     -0.075300
      9 C21        32.9660    6.5030   23.6480 ca        1 2GJ     -0.123500
     10 C22        31.9510    7.0590   24.4260 ca        1 2GJ     -0.104500
     11 C19        34.5860    7.9230   24.7430 ca        1 2GJ     -0.123500
     12 C18        33.5730    8.4870   25.5150 ca        1 2GJ     -0.104500
     13 C7         32.2480    8.0570   25.3640 ca        1 2GJ     -0.027000
     14 C3         31.1990    8.6240   26.1830 cc        1 2GJ     -0.230600
     15 C2         30.6780    8.0600   27.4330 cc        1 2GJ      0.287800
     16 C8         31.1080    6.7770   28.0640 c         1 2GJ      0.598600
     17 O9         31.0780    5.7060   27.4310 o         1 2GJ     -0.581100
     18 N10        31.5090    6.8600   29.3770 n         1 2GJ     -0.560900
     19 C11        31.9960    5.7240   30.1120 c3        1 2GJ      0.087000
     20 C12        33.4010    5.9000   30.6700 c3        1 2GJ     -0.117100
     21 N1         29.7100    8.8630   27.9140 nd        1 2GJ     -0.336300
     22 O5         29.5570    9.8850   27.1010 os        1 2GJ     -0.135100
     23 C4         30.4540    9.7820   25.9980 cd        1 2GJ      0.346200
     24 C6         30.4040   10.8340   25.0180 ca        1 2GJ     -0.271500
     25 C13        31.5970   11.2120   24.3770 ca        1 2GJ     -0.022000
     26 C14        31.6410   12.2310   23.4310 ca        1 2GJ     -0.191300
     27 C30        32.9170   12.6180   22.7530 c3        1 2GJ     -0.016400
     28 C32        33.4980   13.8750   23.3790 c3        1 2GJ     -0.093100
     29 C31        33.9550   11.5140   22.7540 c3        1 2GJ     -0.093100
     30 C15        30.4330   12.9030   23.1250 ca        1 2GJ      0.185100
     31 O34        30.3390   13.9370   22.2260 oh        1 2GJ     -0.492100
     32 C16        29.2240   12.5400   23.7260 ca        1 2GJ     -0.206000
     33 C17        29.2100   11.5020   24.6720 ca        1 2GJ      0.209100
     34 O33        27.9760   11.2240   25.1920 oh        1 2GJ     -0.487100
     35 H251       37.3820    4.8300   22.0660 h1        1 2GJ      0.043200
     36 H252       36.0410    4.8740   20.8310 h1        1 2GJ      0.043200
     37 H261       35.4410    2.5360   21.2680 h1        1 2GJ      0.054700
     38 H262       37.2730    2.6090   21.1260 h1        1 2GJ      0.054700
     39 H281       34.5920    2.3070   23.6290 h1        1 2GJ      0.054700
     40 H282       35.9140    2.2420   24.9060 h1        1 2GJ      0.054700
     41 H291       34.6390    4.5040   24.7340 h1        1 2GJ      0.043200
     42 H292       36.4600    4.5780   24.6360 h1        1 2GJ      0.043200
     43 H231       36.3830    6.7400   23.3390 h1        1 2GJ      0.040700
     44 H232       35.2590    6.7980   21.9060 h1        1 2GJ      0.040700
     45 H21        32.7250    5.7180   22.9150 ha        1 2GJ      0.142500
     46 H19        35.6240    8.2620   24.8780 ha        1 2GJ      0.142500
     47 H22        30.9160    6.7020   24.3150 ha        1 2GJ      0.140500
     48 H18        33.8170    9.2650   26.2530 ha        1 2GJ      0.140500
     49 H10        31.5270    7.7420   29.8300 hn        1 2GJ      0.320500
     50 H111       31.2870    5.5330   30.9710 h1        1 2GJ      0.061700
     51 H112       31.9740    4.8190   29.4380 h1        1 2GJ      0.061700
     52 H121       34.1460    6.0380   29.8510 hc        1 2GJ      0.042367
     53 H122       33.4590    6.7800   31.3550 hc        1 2GJ      0.042367
     54 H123       33.6720    4.9830   31.2470 hc        1 2GJ      0.042367
     55 H13        32.5200   10.6680   24.6440 ha        1 2GJ      0.151000
     56 H30        32.6800   12.8350   21.6680 hc        1 2GJ      0.043700
     57 H321       33.7860   13.6850   24.4400 hc        1 2GJ      0.040200
     58 H322       34.4070   14.1970   22.8160 hc        1 2GJ      0.040200
     59 H323       32.7520   14.7060   23.3630 hc        1 2GJ      0.040200
     60 H311       34.7960   11.7900   22.0720 hc        1 2GJ      0.040200
     61 H312       34.3760   11.3580   23.7760 hc        1 2GJ      0.040200
     62 H313       33.5080   10.5550   22.3990 hc        1 2GJ      0.040200
     63 H34        31.2270   14.1680   21.9170 ho        1 2GJ      0.428000
     64 H16        28.2920   13.0620   23.4660 ha        1 2GJ      0.174000
     65 H33        28.0330   10.4530   25.7760 ho        1 2GJ      0.441000
@<TRIPOS>BOND
     1    1    2 1   
     2    1    6 1   
     3    1   35 1   
     4    1   36 1   
     5    2    3 1   
     6    2   37 1   
     7    2   38 1   
     8    3    4 1   
     9    4    5 1   
    10    4   39 1   
    11    4   40 1   
    12    5    6 1   
    13    5   41 1   
    14    5   42 1   
    15    6    7 1   
    16    7    8 1   
    17    7   43 1   
    18    7   44 1   
    19    8    9 ar  
    20    8   11 ar  
    21    9   10 ar  
    22    9   45 1   
    23   10   13 ar  
    24   10   47 1   
    25   11   12 ar  
    26   11   46 1   
    27   12   13 ar  
    28   12   48 1   
    29   13   14 1   
    30   14   15 1   
    31   14   23 2   
    32   15   16 1   
    33   15   21 2   
    34   16   17 2   
    35   16   18 1   
    36   18   19 1   
    37   18   49 1   
    38   19   20 1   
    39   19   50 1   
    40   19   51 1   
    41   20   52 1   
    42   20   53 1   
    43   20   54 1   
    44   21   22 1   
    45   22   23 1   
    46   23   24 1   
    47   24   25 ar  
    48   24   33 ar  
    49   25   26 ar  
    50   25   55 1   
    51   26   27 1   
    52   26   30 ar  
    53   27   28 1   
    54   27   29 1   
    55   27   56 1   
    56   28   57 1   
    57   28   58 1   
    58   28   59 1   
    59   29   60 1   
    60   29   61 1   
    61   29   62 1   
    62   30   31 1   
    63   30   32 ar  
    64   31   63 1   
    65   32   33 ar  
    66   32   64 1   
    67   33   34 1   
    68   34   65 1   
@<TRIPOS>SUBSTRUCTURE
     1 2GJ         1 TEMP              0 ****  ****    0 ROOT
