@<TRIPOS>MOLECULE
2GL
   27    27     1     0     0
SMALL
bcc


@<TRIPOS>ATOM
      1 O5          1.7380    0.9330    0.1450 os        1 2GL     -0.448600
      2 C1          2.4490   -0.2960    0.0150 c3        1 2GL      0.343900
      3 C2          1.5080   -1.4970    0.0650 c3        1 2GL     -0.170400
      4 C3          0.4360   -1.3700   -1.0080 c3        1 2GL      0.146100
      5 O3         -0.4870   -2.4370   -0.9450 oh        1 2GL     -0.585800
      6 C4         -0.2810   -0.0110   -0.8920 c3        1 2GL      0.077100
      7 O4         -1.0310   -0.0710    0.3310 os        1 2GL     -0.443900
      8 CME        -2.9140    0.4000    1.7050 c3        1 2GL     -0.151100
      9 CO4        -2.2500    0.5550    0.3810 c         1 2GL      0.638100
     10 OC4        -2.6580    1.1480   -0.6180 o         1 2GL     -0.538000
     11 C5          0.7480    1.1290   -0.8640 c3        1 2GL      0.143100
     12 O1          3.3240   -0.2490    1.1090 oh        1 2GL     -0.587800
     13 C6          0.1110    2.4750   -0.5820 c3        1 2GL     -0.095100
     14 HO1         2.8180    0.0380    1.8820 ho        1 2GL      0.422000
     15 H1          3.0910   -0.2970   -0.9100 h2        1 2GL      0.072700
     16 H21         2.0950   -2.4380   -0.0850 hc        1 2GL      0.071200
     17 H22         1.0210   -1.5470    1.0740 hc        1 2GL      0.071200
     18 H3          0.8890   -1.4510   -2.0370 h1        1 2GL      0.083700
     19 HO3        -0.9220   -2.3890   -0.0840 ho        1 2GL      0.410000
     20 H4         -0.9810    0.1360   -1.7610 h1        1 2GL      0.096700
     21 HM41       -3.1030    1.4160    2.1340 hc        1 2GL      0.078033
     22 HM42       -3.8920   -0.1220    1.5590 hc        1 2GL      0.078033
     23 HM43       -2.2780   -0.1870    2.4100 hc        1 2GL      0.078033
     24 H5          1.2590    1.1410   -1.8700 h1        1 2GL      0.045700
     25 H61        -0.3270    2.4830    0.4450 hc        1 2GL      0.054367
     26 H62         0.8770    3.2830   -0.6520 hc        1 2GL      0.054367
     27 H63        -0.7050    2.6590   -1.3220 hc        1 2GL      0.054367
@<TRIPOS>BOND
     1    1    2 1   
     2    1   11 1   
     3    2    3 1   
     4    2   12 1   
     5    2   15 1   
     6    3    4 1   
     7    3   16 1   
     8    3   17 1   
     9    4    5 1   
    10    4    6 1   
    11    4   18 1   
    12    5   19 1   
    13    6    7 1   
    14    6   11 1   
    15    6   20 1   
    16    7    9 1   
    17    8    9 1   
    18    8   21 1   
    19    8   22 1   
    20    8   23 1   
    21    9   10 2   
    22   11   13 1   
    23   11   24 1   
    24   12   14 1   
    25   13   25 1   
    26   13   26 1   
    27   13   27 1   
@<TRIPOS>SUBSTRUCTURE
     1 2GL         1 TEMP              0 ****  ****    0 ROOT
