@<TRIPOS>MOLECULE
2GL
   27    27     1     0     0
SMALL
bcc


@<TRIPOS>ATOM
      1 O5         -0.1080    0.3400   -2.0730 os        1 2GL     -0.448600
      2 C1          1.3610    0.3400   -2.0730 c3        1 2GL      0.343900
      3 C2          1.9410    0.3400   -0.6750 c3        1 2GL     -0.170400
      4 C3          1.3760   -0.7310    0.1670 c3        1 2GL      0.146100
      5 O3          1.8440   -0.5490    1.5380 oh        1 2GL     -0.585800
      6 C4         -0.1070   -0.7240    0.1620 c3        1 2GL      0.077100
      7 O4         -0.5700    0.4490    0.8560 os        1 2GL     -0.443900
      8 CME        -1.5670    1.3280    3.0060 c3        1 2GL     -0.151100
      9 CO4        -1.0460    0.1920    2.1530 c         1 2GL      0.638100
     10 OC4        -1.0380   -0.9410    2.5890 o         1 2GL     -0.538000
     11 C5         -0.6770   -0.7190   -1.2410 c3        1 2GL      0.143100
     12 O1          1.8100    1.4710   -2.7460 oh        1 2GL     -0.587800
     13 C6         -2.1610   -0.5270   -1.1600 c3        1 2GL     -0.095100
     14 HO1         1.8190    1.3120   -3.6190 ho        1 2GL      0.422000
     15 H1          1.6760   -0.4540   -2.5440 h2        1 2GL      0.072700
     16 H21         1.7560    1.2020   -0.2560 hc        1 2GL      0.071200
     17 H22         2.9080    0.2190   -0.7350 hc        1 2GL      0.071200
     18 H3          1.6900   -1.5940   -0.1640 h1        1 2GL      0.083700
     19 HO3         2.5080   -1.1150    1.7020 ho        1 2GL      0.410000
     20 H4         -0.4290   -1.5180    0.6310 h1        1 2GL      0.096700
     21 HM41       -2.5310    1.2280    3.1270 hc        1 2GL      0.078033
     22 HM42       -1.1270    1.3100    3.8770 hc        1 2GL      0.078033
     23 HM43       -1.3820    2.1780    2.5650 hc        1 2GL      0.078033
     24 H5         -0.4930   -1.5820   -1.6590 h1        1 2GL      0.045700
     25 H61        -2.5580   -0.6880   -2.0370 hc        1 2GL      0.054367
     26 H62        -2.3570    0.3860   -0.8770 hc        1 2GL      0.054367
     27 H63        -2.5360   -1.1550   -0.5140 hc        1 2GL      0.054367
@<TRIPOS>BOND
     1    1    2 1   
     2    1   11 1   
     3    2    3 1   
     4    2   12 1   
     5    2   15 1   
     6    3    4 1   
     7    3   16 1   
     8    3   17 1   
     9    4    5 1   
    10    4    6 1   
    11    4   18 1   
    12    5   19 1   
    13    6    7 1   
    14    6   11 1   
    15    6   20 1   
    16    7    9 1   
    17    8    9 1   
    18    8   21 1   
    19    8   22 1   
    20    8   23 1   
    21    9   10 2   
    22   11   13 1   
    23   11   24 1   
    24   12   14 1   
    25   13   25 1   
    26   13   26 1   
    27   13   27 1   
@<TRIPOS>SUBSTRUCTURE
     1 2GL         1 TEMP              0 ****  ****    0 ROOT
