@<TRIPOS>MOLECULE
2GN
   67    72     1     0     0
SMALL
bcc


@<TRIPOS>ATOM
      1 O25        -4.6760   -0.5260    3.0600 o         1 2GN     -0.640300
      2 S21        -5.7980   -0.6400    2.2120 sy        1 2GN      1.502200
      3 O24        -6.6750   -1.7050    2.4840 o         1 2GN     -0.640300
      4 N23        -6.5990    0.7640    2.1550 n3        1 2GN     -0.818500
      5 C28        -8.0390    0.8610    2.1400 c3        1 2GN      0.187300
      6 C30        -8.5810    1.8640    3.1680 c3        1 2GN      0.114900
      7 O31        -7.9320    3.1250    3.0580 os        1 2GN     -0.407600
      8 C29        -6.5200    3.0220    3.1920 c3        1 2GN      0.114900
      9 C27        -5.9250    2.0400    2.1710 c3        1 2GN      0.187300
     10 C18        -5.1750   -0.8110    0.6150 ca        1 2GN     -0.350500
     11 C16        -3.7840   -0.7350    0.4670 ca        1 2GN      0.027000
     12 C22        -5.9360   -1.0520   -0.5370 ca        1 2GN      0.152400
     13 CL2        -7.6270   -1.1430   -0.4630 cl        1 2GN     -0.049400
     14 C19        -5.3360   -1.2200   -1.7890 ca        1 2GN     -0.157000
     15 C17        -3.9460   -1.1500   -1.9070 ca        1 2GN      0.097400
     16 CL1        -3.2490   -1.3400   -3.4400 cl        1 2GN     -0.046400
     17 C14        -3.1610   -0.9090   -0.7700 ca        1 2GN     -0.167600
     18 C13        -1.6760   -0.7750   -0.8200 c         1 2GN      0.676700
     19 O15        -1.0940    0.2290   -0.3690 o         1 2GN     -0.568100
     20 N10        -0.9720   -1.8440   -1.3550 n         1 2GN     -0.425100
     21 C5          0.4080   -1.8810   -1.4860 cc        1 2GN      0.058500
     22 C2          1.1050   -2.9330   -2.1110 cd        1 2GN     -0.118000
     23 C6          0.4930   -4.0600   -2.6880 ch        1 2GN      0.261800
     24 N11        -0.0150   -4.9910   -3.1680 n1        1 2GN     -0.382800
     25 S7          1.4800   -0.7010   -0.9210 ss        1 2GN      0.168200
     26 C3          2.8300   -1.5120   -1.4650 cc        1 2GN     -0.182400
     27 C8          4.2270   -1.0270   -1.3210 c3        1 2GN      0.250100
     28 N12         5.2320   -2.0410   -1.6350 n3        1 2GN     -0.725600
     29 C9          4.8880   -2.8740   -2.7810 c3        1 2GN      0.172800
     30 C4          3.5530   -3.6100   -2.6190 c3        1 2GN     -0.019100
     31 C1          2.5160   -2.7080   -2.0870 cd        1 2GN     -0.033300
     32 C32         6.5660   -1.4660   -1.7730 c3        1 2GN      0.212100
     33 C33         7.0630   -0.7630   -0.5440 ca        1 2GN     -0.072300
     34 C38         6.9740   -1.3650    0.7160 ca        1 2GN     -0.128500
     35 C37         7.4880   -0.7270    1.8420 ca        1 2GN     -0.096000
     36 C36         8.1050    0.5270    1.7190 ca        1 2GN     -0.123500
     37 C35         8.1960    1.1310    0.4560 ca        1 2GN     -0.096000
     38 C34         7.6770    0.4880   -0.6650 ca        1 2GN     -0.128500
     39 C06         8.6460    1.1980    2.8900 cc        1 2GN      0.548500
     40 N01         9.2240    2.4420    2.9440 nd        1 2GN     -0.491800
     41 N02         8.6590    0.6420    4.2190 nc        1 2GN     -0.366000
     42 N05         9.2020    1.4960    4.9810 nd        1 2GN     -0.145800
     43 N04         9.5410    2.5690    4.2360 na        1 2GN      0.097900
     44 H281       -8.3720    1.1920    1.1130 h1        1 2GN      0.064700
     45 H282       -8.4830   -0.1540    2.3520 h1        1 2GN      0.064700
     46 H271       -4.8370    1.8820    2.4230 h1        1 2GN      0.064700
     47 H272       -5.9950    2.5060    1.1460 h1        1 2GN      0.064700
     48 H301       -9.6600    2.0840    2.9560 h1        1 2GN      0.061200
     49 H302       -8.4640    1.4700    4.2120 h1        1 2GN      0.061200
     50 H291       -6.1430    4.0590    2.9910 h1        1 2GN      0.061200
     51 H292       -6.2620    2.7120    4.2390 h1        1 2GN      0.061200
     52 H16        -3.1510   -0.5300    1.3560 ha        1 2GN      0.194000
     53 H19        -5.9570   -1.4080   -2.6810 ha        1 2GN      0.175000
     54 H10        -1.4750   -2.6270   -1.7160 hn        1 2GN      0.342500
     55 H81         4.3500   -0.1080   -1.9730 h1        1 2GN      0.048200
     56 H82         4.4180   -0.7160   -0.2520 h1        1 2GN      0.048200
     57 H91         4.8480   -2.2690   -3.7340 h1        1 2GN      0.035700
     58 H92         5.7000   -3.6460   -2.9000 h1        1 2GN      0.035700
     59 H321        7.2770   -2.3180   -1.9870 h1        1 2GN      0.043700
     60 H322        6.6180   -0.7530   -2.6510 h1        1 2GN      0.043700
     61 H41         3.2480   -4.0220   -3.6160 hc        1 2GN      0.067200
     62 H42         3.6800   -4.4760   -1.9150 hc        1 2GN      0.067200
     63 H38         6.4900   -2.3500    0.8190 ha        1 2GN      0.145000
     64 H34         7.7540    0.9720   -1.6500 ha        1 2GN      0.145000
     65 H37         7.4060   -1.2170    2.8250 ha        1 2GN      0.152500
     66 H35         8.6770    2.1140    0.3390 ha        1 2GN      0.152500
     67 H04         9.9870    3.3880    4.6000 hn        1 2GN      0.352700
@<TRIPOS>BOND
     1    1    2 2   
     2    2    3 2   
     3    2    4 1   
     4    2   10 1   
     5    4    5 1   
     6    4    9 1   
     7    5    6 1   
     8    5   44 1   
     9    5   45 1   
    10    6    7 1   
    11    6   48 1   
    12    6   49 1   
    13    7    8 1   
    14    8    9 1   
    15    8   50 1   
    16    8   51 1   
    17    9   46 1   
    18    9   47 1   
    19   10   11 ar  
    20   10   12 ar  
    21   11   17 ar  
    22   11   52 1   
    23   12   13 1   
    24   12   14 ar  
    25   14   15 ar  
    26   14   53 1   
    27   15   16 1   
    28   15   17 ar  
    29   17   18 1   
    30   18   19 2   
    31   18   20 1   
    32   20   21 1   
    33   20   54 1   
    34   21   22 2   
    35   21   25 1   
    36   22   23 1   
    37   22   31 1   
    38   23   24 3   
    39   25   26 1   
    40   26   27 1   
    41   26   31 2   
    42   27   28 1   
    43   27   55 1   
    44   27   56 1   
    45   28   29 1   
    46   28   32 1   
    47   29   30 1   
    48   29   57 1   
    49   29   58 1   
    50   30   31 1   
    51   30   61 1   
    52   30   62 1   
    53   32   33 1   
    54   32   59 1   
    55   32   60 1   
    56   33   34 ar  
    57   33   38 ar  
    58   34   35 ar  
    59   34   63 1   
    60   35   36 ar  
    61   35   65 1   
    62   36   37 ar  
    63   36   39 1   
    64   37   38 ar  
    65   37   66 1   
    66   38   64 1   
    67   39   40 2   
    68   39   41 1   
    69   40   43 1   
    70   41   42 2   
    71   42   43 1   
    72   43   67 1   
@<TRIPOS>SUBSTRUCTURE
     1 2GN         1 TEMP              0 ****  ****    0 ROOT
