@<TRIPOS>MOLECULE
2GN
   67    63     1     0     0
SMALL
bcc


@<TRIPOS>ATOM
      1 O25         1.9270    5.8660   -6.0280 o         1 2GN     -0.919500
      2 S21         0.7840    5.3770   -5.3160 ss        1 2GN      2.841000
      3 O24         0.5660    4.1180   -5.9740 o         1 2GN     -0.919500
      4 N23        -0.5610    6.4230   -5.5050 n2        1 2GN     -0.838000
      5 C28        -1.8840    5.9750   -5.1620 c3        1 2GN     -0.049500
      6 C30        -2.9690    6.7590   -5.8890 c3        1 2GN     -0.035500
      7 O31        -2.8110    8.1610   -5.7450 os        1 2GN     -0.264000
      8 C29        -1.4850    8.6060   -6.0890 c3        1 2GN     -0.035500
      9 C27        -0.4010    7.8210   -5.3610 c3        1 2GN     -0.049500
     10 C18         1.1420    5.1520   -3.6180 c1        1 2GN     -0.795000
     11 C16         0.9080    3.9040   -3.0110 c2        1 2GN      0.027000
     12 C22         1.8020    6.1690   -2.9000 c1        1 2GN      0.074000
     13 CL2         2.1410    7.7190   -3.6730 cl        1 2GN      0.031000
     14 C19         2.2260    5.9360   -1.5850 c2        1 2GN     -0.157000
     15 C17         1.9920    4.6870   -0.9800 c1        1 2GN      0.019000
     16 CL1         2.7290    4.3190    0.5390 cl        1 2GN      0.031000
     17 C14         1.3330    3.6730   -1.6960 c2        1 2GN     -0.147000
     18 C13         1.0220    2.2970   -1.0010 c2        1 2GN      0.350000
     19 O15         0.4210    1.4460   -1.6000 o         1 2GN     -0.329000
     20 N10         1.5740    2.0070    0.2990 n         1 2GN     -0.279000
     21 C5          1.4050    0.7120    0.8690 c2        1 2GN     -0.202000
     22 C2          2.4490   -0.3110    1.0010 c1        1 2GN     -0.114000
     23 C6          3.8770   -0.1550    0.5980 c1        1 2GN     -0.069000
     24 N11         4.9640   -0.0360    0.2900 n1        1 2GN     -0.055000
     25 S7          0.0470    0.1160    1.4650 ss        1 2GN      0.702000
     26 C3          0.3500   -1.3360    1.9630 c1        1 2GN     -0.449000
     27 C8         -0.4100   -2.3110    2.9160 c2        1 2GN      0.012000
     28 N12         0.2750   -3.4340    3.3200 n3        1 2GN     -0.251000
     29 C9          1.6630   -3.3140    3.5560 c3        1 2GN     -0.068000
     30 C4          2.4550   -2.7370    2.4870 c3        1 2GN     -0.106000
     31 C1          1.7970   -1.6190    1.6930 c2        1 2GN     -0.021000
     32 C32        -0.3750   -4.0000    4.5030 c3        1 2GN     -0.032000
     33 C33        -0.7230   -5.5210    4.2410 c2        1 2GN     -0.063000
     34 C38        -0.1760   -6.5060    5.0560 c2        1 2GN     -0.138000
     35 C37        -0.5890   -7.8400    4.9200 c1        1 2GN     -0.100000
     36 C36        -1.5430   -8.1800    3.9700 c1        1 2GN     -0.016000
     37 C35        -2.0930   -7.1920    3.1500 c1        1 2GN     -0.093000
     38 C34        -1.6820   -5.8610    3.2860 c1        1 2GN     -0.117000
     39 C06        -2.1030   -9.6330    3.9190 c2        1 2GN     -0.085000
     40 N01        -3.0900  -10.1350    4.7060 nc        1 2GN     -0.081500
     41 N02        -1.6260  -10.6300    3.1700 nc        1 2GN     -0.081500
     42 N05        -2.3110  -11.7590    3.4870 nc        1 2GN     -0.084500
     43 N04        -3.2120  -11.4470    4.4330 nc        1 2GN     -0.084500
     44 H281       -2.0140    6.0820   -4.1720 h1        1 2GN      0.104000
     45 H282       -1.9670    5.0350   -5.3910 h1        1 2GN      0.104000
     46 H271        0.4980    8.0870   -5.7320 h1        1 2GN      0.104000
     47 H272       -0.4320    8.0480   -4.4020 h1        1 2GN      0.104000
     48 H301       -3.8670    6.4890   -5.5210 h1        1 2GN      0.100250
     49 H302       -2.9370    6.5360   -6.8310 h1        1 2GN      0.100250
     50 H291       -1.3540    8.5020   -7.0710 h1        1 2GN      0.100250
     51 H292       -1.4000    9.5380   -5.8600 h1        1 2GN      0.100250
     52 H16         0.4410    3.1830   -3.5170 ha        1 2GN      0.194000
     53 H19         2.6870    6.6460   -1.0830 ha        1 2GN      0.175000
     54 H10         2.1160    2.6140    0.7070 hn        1 2GN      0.256000
     55 H81        -1.2430   -2.6070    2.4530 h4        1 2GN      0.082000
     56 H82        -0.6710   -1.8050    3.7270 h4        1 2GN      0.082000
     57 H91         1.7680   -2.7200    4.3430 h1        1 2GN      0.080000
     58 H92         2.0050   -4.2170    3.7050 h1        1 2GN      0.080000
     59 H321       -1.2040   -3.5020    4.6920 h1        1 2GN      0.082000
     60 H322        0.2340   -3.9310    5.2780 h1        1 2GN      0.082000
     61 H41         3.2370   -2.3680    2.8890 hc        1 2GN      0.107500
     62 H42         2.6510   -3.4660    1.8480 hc        1 2GN      0.107500
     63 H38         0.4910   -6.2710    5.7210 ha        1 2GN      0.135000
     64 H34        -2.0730   -5.1610    2.7050 ha        1 2GN      0.154000
     65 H37        -0.2000   -8.5380    5.4990 ha        1 2GN      0.148000
     66 H35        -2.7630   -7.4290    2.4830 ha        1 2GN      0.156000
     67 H04        -3.8070  -12.0270    4.8250 DU        1 2GN      0.303000
@<TRIPOS>BOND
     1    1    2 1   
     2    2    3 1   
     3    4    5 1   
     4    4    9 1   
     5    5    6 1   
     6    5   44 1   
     7    5   45 1   
     8    6    7 1   
     9    6   48 1   
    10    6   49 1   
    11    7    8 1   
    12    8    9 1   
    13    8   50 1   
    14    8   51 1   
    15    9   46 1   
    16    9   47 1   
    17   10   11 1   
    18   10   12 1   
    19   11   17 1   
    20   11   52 1   
    21   12   14 1   
    22   14   15 1   
    23   14   53 1   
    24   15   17 1   
    25   17   18 1   
    26   18   19 1   
    27   18   20 1   
    28   20   21 1   
    29   20   54 1   
    30   21   22 1   
    31   21   25 1   
    32   22   31 1   
    33   23   24 1   
    34   25   26 1   
    35   26   31 1   
    36   27   28 1   
    37   27   55 1   
    38   27   56 1   
    39   28   29 1   
    40   28   32 1   
    41   29   30 1   
    42   29   57 1   
    43   29   58 1   
    44   30   31 1   
    45   30   61 1   
    46   30   62 1   
    47   32   33 1   
    48   32   59 1   
    49   32   60 1   
    50   33   34 1   
    51   33   38 1   
    52   34   35 1   
    53   34   63 1   
    54   35   65 1   
    55   36   37 1   
    56   36   39 1   
    57   37   66 1   
    58   38   64 1   
    59   39   40 1   
    60   39   41 1   
    61   40   43 1   
    62   41   42 1   
    63   42   43 1   
@<TRIPOS>SUBSTRUCTURE
     1 2GN         1 TEMP              0 ****  ****    0 ROOT
