@<TRIPOS>MOLECULE
2GN
   67    71     1     0     0
SMALL
bcc


@<TRIPOS>ATOM
      1 O25         1.3680    2.3040    0.9380 o         1 2GN     -0.635800
      2 S21         2.4560    1.5630    0.4370 sy        1 2GN      1.502200
      3 O24         3.7320    1.9860    0.8440 o         1 2GN     -0.635800
      4 N23         2.2390   -0.0290    0.7750 nh        1 2GN     -0.669300
      5 C28         3.2530   -0.7840    1.3760 c2        1 2GN      0.053000
      6 C30         3.1660   -2.0420    1.8310 c2        1 2GN     -0.279000
      7 O31        -1.2090   -1.2880    1.3430 oh        1 2GN     -0.586800
      8 C29         0.0030   -0.6690    1.7150 c3        1 2GN      0.103400
      9 C27         0.9660   -0.6510    0.5140 c3        1 2GN      0.176800
     10 C18         2.3470    1.6040   -1.2690 ca        1 2GN     -0.368500
     11 C16         1.3030    2.3550   -1.8280 ca        1 2GN      0.027000
     12 C22         3.2480    0.9900   -2.1520 ca        1 2GN      0.149400
     13 Cl2         4.5310    0.0490   -1.5670 cl        1 2GN     -0.050400
     14 C19         3.1240    1.1280   -3.5370 ca        1 2GN     -0.159000
     15 C17         2.0710    1.8800   -4.0680 ca        1 2GN      0.101400
     16 Cl1         1.9560    2.0430   -5.7490 cl        1 2GN     -0.041400
     17 C14         1.1460    2.4900   -3.2080 ca        1 2GN     -0.167600
     18 C13         0.0080    3.3300   -3.7000 c         1 2GN      0.678700
     19 O15        -0.1280    4.5030   -3.3100 o         1 2GN     -0.562100
     20 N10        -0.8790    2.7040   -4.5650 ns        1 2GN     -0.417100
     21 C5         -1.9930    3.3000   -5.1110 ce        1 2GN      0.199300
     22 C2         -2.8420    2.6360   -6.0060 cf        1 2GN     -0.145700
     23 C6         -2.6670    1.3130   -6.4520 ch        1 2GN      0.229500
     24 N11        -2.5110    0.2160   -6.8140 n1        1 2GN     -0.428800
     25 S7         -2.5740    4.9390   -4.8030 sx        1 2GN     -0.076400
     26 C3         -3.9060    4.6970   -5.8670 ce        1 2GN     -0.033500
     27 C8         -4.8130    5.8620   -6.0040 c3        1 2GN      0.270000
     28 N12        -4.2780    6.9340   -5.1400 nh        1 2GN     -0.545400
     29 C9         -3.1670    6.6010   -4.5030 c2        1 2GN     -0.165000
     30 C4         -4.9650    2.9800   -7.3880 c3        1 2GN     -0.050900
     31 C1         -3.9470    3.4580   -6.4380 cf        1 2GN      0.025800
     32 C32        -4.9570    8.2120   -5.0990 c3        1 2GN      0.219100
     33 C33        -4.6730    9.0980   -6.2770 ca        1 2GN     -0.107300
     34 C38        -5.4480    8.9980   -7.4360 ca        1 2GN     -0.119500
     35 C37        -5.2070    9.8370   -8.5210 ca        1 2GN     -0.093000
     36 C36        -4.1780   10.7900   -8.4550 ca        1 2GN     -0.103500
     37 C35        -3.3990   10.8890   -7.2930 ca        1 2GN     -0.093000
     38 C34        -3.6470   10.0450   -6.2120 ca        1 2GN     -0.119500
     39 C06        -3.9210   11.6700   -9.5850 cc        1 2GN      0.536500
     40 N01        -2.9060   12.5850   -9.7110 nd        1 2GN     -0.481800
     41 N02        -4.7180   11.7160  -10.7830 nc        1 2GN     -0.363000
     42 N05        -4.2050   12.5890  -11.5430 nd        1 2GN     -0.141800
     43 N04        -3.1290   13.1130  -10.9170 na        1 2GN      0.102900
     44 H281        4.2120   -0.2230    1.4600 h4        1 2GN      0.164000
     45 H282        4.0420   -2.5260    2.2810 ha        1 2GN      0.124000
     46 H271        0.4690   -1.1970    2.5880 h1        1 2GN      0.065700
     47 H272        0.4630   -0.0880   -0.3270 h1        1 2GN      0.058700
     48 H301       -1.0170   -2.2170    1.1640 ho        1 2GN      0.396000
     49 H302        2.2580   -2.6540    1.7940 ha        1 2GN      0.124000
     50 H291       -0.2860    0.3760    2.0120 h1        1 2GN      0.065700
     51 H292        1.1230   -1.7100    0.1590 h1        1 2GN      0.058700
     52 H16         0.5820    2.8700   -1.1590 ha        1 2GN      0.194000
     53 H19         3.8540    0.6480   -4.2100 ha        1 2GN      0.174000
     54 H10        -0.6790    1.7620   -4.8300 hn        1 2GN      0.315500
     55 H81        -4.8550    6.2420   -7.0640 h1        1 2GN      0.069700
     56 H82        -5.8600    5.6150   -5.6670 h1        1 2GN      0.069700
     57 H91        -4.5960    3.1000   -8.4380 hc        1 2GN      0.048033
     58 H92        -2.6700    7.3250   -3.8410 h5        1 2GN      0.149000
     59 H321       -4.6500    8.7430   -4.1520 h1        1 2GN      0.073700
     60 H322       -6.0680    8.0140   -5.0450 h1        1 2GN      0.073700
     61 H41        -5.9140    3.5620   -7.2790 hc        1 2GN      0.048033
     62 H42        -5.1860    1.8970   -7.2180 hc        1 2GN      0.048033
     63 H38        -6.2560    8.2520   -7.4950 ha        1 2GN      0.138500
     64 H34        -3.0290   10.1290   -5.3050 ha        1 2GN      0.138500
     65 H37        -5.8280    9.7450   -9.4260 ha        1 2GN      0.158000
     66 H35        -2.5870   11.6290   -7.2250 ha        1 2GN      0.158000
     67 H04        -2.5410   13.8230  -11.3090 hn        1 2GN      0.355700
@<TRIPOS>BOND
     1    1    2 2   
     2    2    3 2   
     3    2    4 1   
     4    2   10 1   
     5    4    5 1   
     6    4    9 1   
     7    5    6 2   
     8    5   44 1   
     9    6   45 1   
    10    6   49 1   
    11    7    8 1   
    12    7   48 1   
    13    8    9 1   
    14    8   46 1   
    15    8   50 1   
    16    9   47 1   
    17    9   51 1   
    18   10   11 ar  
    19   10   12 ar  
    20   11   17 ar  
    21   11   52 1   
    22   12   13 1   
    23   12   14 ar  
    24   14   15 ar  
    25   14   53 1   
    26   15   16 1   
    27   15   17 ar  
    28   17   18 1   
    29   18   19 2   
    30   18   20 1   
    31   20   21 1   
    32   20   54 1   
    33   21   22 2   
    34   21   25 1   
    35   22   23 1   
    36   22   31 1   
    37   23   24 3   
    38   25   26 1   
    39   25   29 2   
    40   26   27 1   
    41   26   31 2   
    42   27   28 1   
    43   27   55 1   
    44   27   56 1   
    45   28   29 1   
    46   28   32 1   
    47   29   58 1   
    48   30   31 1   
    49   30   57 1   
    50   30   61 1   
    51   30   62 1   
    52   32   33 1   
    53   32   59 1   
    54   32   60 1   
    55   33   34 ar  
    56   33   38 ar  
    57   34   35 ar  
    58   34   63 1   
    59   35   36 ar  
    60   35   65 1   
    61   36   37 ar  
    62   36   39 1   
    63   37   38 ar  
    64   37   66 1   
    65   38   64 1   
    66   39   40 2   
    67   39   41 1   
    68   40   43 1   
    69   41   42 2   
    70   42   43 1   
    71   43   67 1   
@<TRIPOS>SUBSTRUCTURE
     1 2GN         1 TEMP              0 ****  ****    0 ROOT
