@<TRIPOS>MOLECULE
2GN
   68    72     1     0     0
SMALL
bcc


@<TRIPOS>ATOM
      1 O25         1.6620    2.7630   -0.8840 o         1 2GN     -0.630300
      2 S21         2.2970    1.8020   -1.7000 sy        1 2GN      1.495200
      3 O24         3.6980    1.7920   -1.7180 o         1 2GN     -0.630300
      4 N23         1.6920    0.3390   -1.4370 n3        1 2GN     -0.824500
      5 C28         2.5040   -0.8570   -1.3680 c3        1 2GN      0.183300
      6 C30         2.2440   -1.6820   -0.0980 c3        1 2GN      0.113400
      7 O31         0.8550   -1.9400    0.0710 os        1 2GN     -0.397600
      8 C29         0.0870   -0.7460    0.1260 c3        1 2GN      0.113400
      9 C27         0.2970    0.1150   -1.1300 c3        1 2GN      0.183300
     10 C18         1.7540    2.2000   -3.3190 ca        1 2GN     -0.317500
     11 C16         0.9880    3.3630   -3.4480 ca        1 2GN      0.045000
     12 C22         2.0850    1.4990   -4.4850 ca        1 2GN      0.173400
     13 CL2         3.0360    0.1080   -4.4310 cl        1 2GN     -0.002400
     14 C19         1.6480    1.9380   -5.7480 ca        1 2GN     -0.141000
     15 C17         0.8740    3.0890   -5.8530 ca        1 2GN      0.094400
     16 CL1         0.3840    3.6120   -7.3910 cl        1 2GN     -0.048400
     17 C14         0.5360    3.8130   -4.6940 ca        1 2GN     -0.224600
     18 C13        -0.2090    5.0790   -4.7220 c         1 2GN      0.592700
     19 O15         0.0920    6.1410   -4.2040 o         1 2GN     -0.395100
     20 N10        -1.5360    5.0440   -5.4780 n4        1 2GN     -0.507200
     21 C5         -2.6670    5.3060   -4.6310 cc        1 2GN     -0.151500
     22 C2         -3.4370    4.2940   -4.0170 cd        1 2GN      0.011000
     23 C6         -3.1810    2.9140   -4.1490 ch        1 2GN      0.209800
     24 N11        -2.9740    1.7730   -4.2480 n1        1 2GN     -0.296800
     25 S7         -3.2640    6.8290   -4.2620 ss        1 2GN      0.308200
     26 C3         -4.4820    6.2490   -3.3260 cc        1 2GN     -0.144400
     27 C8         -5.4850    7.0800   -2.6000 c3        1 2GN      0.267100
     28 N12        -6.6670    6.3150   -2.2140 n3        1 2GN     -0.468400
     29 C9         -6.3610    5.0190   -1.6160 c3        1 2GN      0.127800
     30 C4         -5.5300    4.0980   -2.5170 c3        1 2GN     -0.040100
     31 C1         -4.4980    4.8500   -3.2580 cd        1 2GN     -0.048300
     32 C32        -7.8480    6.8240   -2.4450 c1        1 2GN     -0.082500
     33 C33        -4.5050    9.5400   -9.2700 ca        1 2GN     -0.095000
     34 C38        -4.2350    8.1770   -9.1310 ca        1 2GN     -0.129000
     35 C37        -2.9750    7.7510   -8.7170 ca        1 2GN     -0.097000
     36 C36        -1.9770    8.6940   -8.4370 ca        1 2GN     -0.152500
     37 C35        -2.2450   10.0630   -8.5820 ca        1 2GN     -0.097000
     38 C34        -3.5100   10.4790   -8.9960 ca        1 2GN     -0.129000
     39 C06        -0.6560    8.2570   -8.0120 cc        1 2GN      0.585500
     40 N01         0.5460    8.8730   -8.2680 nd        1 2GN     -0.458800
     41 N02        -0.3880    7.0830   -7.2390 nc        1 2GN     -0.498000
     42 N05         0.8740    7.0180   -7.0590 nd        1 2GN     -0.160800
     43 N04         1.4310    8.0740   -7.6630 na        1 2GN      0.145900
     44 H281        3.5950   -0.5740   -1.4010 h1        1 2GN      0.065950
     45 H282        2.2700   -1.5050   -2.2620 h1        1 2GN      0.065950
     46 H271       -0.1890   -0.4050   -2.0050 h1        1 2GN      0.065950
     47 H272       -0.2110    1.1090   -0.9680 h1        1 2GN      0.065950
     48 H301        2.7080   -2.6980   -0.2010 h1        1 2GN      0.068200
     49 H302        2.6470   -1.1610    0.8100 h1        1 2GN      0.068200
     50 H291        0.3480   -0.1690    1.0520 h1        1 2GN      0.068200
     51 H292       -0.9770   -1.0980    0.1740 h1        1 2GN      0.068200
     52 H16         0.7410    3.9530   -2.5390 ha        1 2GN      0.199000
     53 H19         1.9280    1.3720   -6.6550 ha        1 2GN      0.191000
     54 H10        -1.4970    5.7590   -6.2370 hn        1 2GN      0.482300
     55 H81        -5.0020    7.4850   -1.6600 h1        1 2GN      0.098200
     56 H82        -5.8210    7.9530   -3.2340 h1        1 2GN      0.098200
     57 H91        -7.3290    4.5000   -1.3650 h1        1 2GN      0.073700
     58 H92        -5.7980    5.1920   -0.6550 h1        1 2GN      0.073700
     59 H321       -5.5000    9.8730   -9.6020 ha        1 2GN      0.152000
     60 H322       -8.7230    6.2210   -2.1300 ha        1 2GN      0.009500
     61 H41        -6.2020    3.5790   -3.2550 hc        1 2GN      0.082200
     62 H42        -5.0560    3.3050   -1.8790 hc        1 2GN      0.082200
     63 H38        -5.0160    7.4370   -9.3610 ha        1 2GN      0.150000
     64 H34        -3.7190   11.5540   -9.1120 ha        1 2GN      0.150000
     65 H37        -2.7630    6.6760   -8.6340 ha        1 2GN      0.140000
     66 H35        -1.4630   10.8100   -8.3750 ha        1 2GN      0.140000
     67 H04         2.4200    8.2590   -7.6760 hn        1 2GN      0.375700
     68 H102       -1.6540    4.1160   -5.9080 hn        1 2GN      0.482300
@<TRIPOS>BOND
     1    1    2 2   
     2    2    3 2   
     3    2    4 1   
     4    2   10 1   
     5    4    5 1   
     6    4    9 1   
     7    5    6 1   
     8    5   44 1   
     9    5   45 1   
    10    6    7 1   
    11    6   48 1   
    12    6   49 1   
    13    7    8 1   
    14    8    9 1   
    15    8   50 1   
    16    8   51 1   
    17    9   46 1   
    18    9   47 1   
    19   10   11 ar  
    20   10   12 ar  
    21   11   17 ar  
    22   11   52 1   
    23   12   13 1   
    24   12   14 ar  
    25   14   15 ar  
    26   14   53 1   
    27   15   16 1   
    28   15   17 ar  
    29   17   18 1   
    30   18   19 2   
    31   18   20 1   
    32   20   21 1   
    33   20   54 1   
    34   20   68 1   
    35   21   22 2   
    36   21   25 1   
    37   22   23 1   
    38   22   31 1   
    39   23   24 3   
    40   25   26 1   
    41   26   27 1   
    42   26   31 2   
    43   27   28 1   
    44   27   55 1   
    45   27   56 1   
    46   28   29 1   
    47   28   32 3   
    48   29   30 1   
    49   29   57 1   
    50   29   58 1   
    51   30   31 1   
    52   30   61 1   
    53   30   62 1   
    54   32   60 1   
    55   33   34 ar  
    56   33   38 ar  
    57   33   59 1   
    58   34   35 ar  
    59   34   63 1   
    60   35   36 ar  
    61   35   65 1   
    62   36   37 ar  
    63   36   39 1   
    64   37   38 ar  
    65   37   66 1   
    66   38   64 1   
    67   39   40 2   
    68   39   41 1   
    69   40   43 1   
    70   41   42 2   
    71   42   43 1   
    72   43   67 1   
@<TRIPOS>SUBSTRUCTURE
     1 2GN         1 TEMP              0 ****  ****    0 ROOT
