@<TRIPOS>MOLECULE
2GN
   67    71     1     0     0
SMALL
bcc


@<TRIPOS>ATOM
      1 O25         1.4710    3.4130    0.1230 o         1 2GN     -0.639800
      2 S21         2.4070    2.3650   -0.0110 sy        1 2GN      1.503200
      3 O24         3.7430    2.6770    0.2970 o         1 2GN     -0.639800
      4 N23         1.9120    1.0730    0.8280 n3        1 2GN     -0.818500
      5 C28         2.7950    0.2470    1.6170 c3        1 2GN      0.187800
      6 C30         2.2810    0.0180    3.0450 c3        1 2GN      0.113900
      7 O31         0.9350   -0.4440    3.0460 os        1 2GN     -0.406600
      8 C29         0.0580    0.4410    2.3600 c3        1 2GN      0.113900
      9 C27         0.5220    0.6940    0.9170 c3        1 2GN      0.187800
     10 C18         2.3080    1.8450   -1.6500 ca        1 2GN     -0.349500
     11 C16         1.3990    2.5190   -2.4750 ca        1 2GN      0.027000
     12 C22         3.0920    0.8410   -2.2350 ca        1 2GN      0.152400
     13 CL2         4.2240   -0.0270   -1.3200 cl        1 2GN     -0.048400
     14 C19         2.9770    0.5180   -3.5920 ca        1 2GN     -0.156000
     15 C17         2.0530    1.1980   -4.3900 ca        1 2GN      0.098400
     16 CL1         1.9450    0.7960   -6.0320 cl        1 2GN     -0.045400
     17 C14         1.2510    2.2020   -3.8270 ca        1 2GN     -0.168600
     18 C13         0.2680    2.9950   -4.6200 c         1 2GN      0.676700
     19 O15         0.2930    4.2380   -4.6490 o         1 2GN     -0.561100
     20 N10        -0.7120    2.2730   -5.2920 n         1 2GN     -0.429100
     21 C5         -1.7070    2.8450   -6.0670 cc        1 2GN      0.070500
     22 C2         -2.6970    2.1030   -6.7380 cd        1 2GN     -0.134000
     23 C6         -2.7900    0.7000   -6.7000 ch        1 2GN      0.261800
     24 N11        -2.8630   -0.4620   -6.6640 n1        1 2GN     -0.381800
     25 S7         -1.9160    4.4960   -6.3440 ss        1 2GN      0.138200
     26 C3         -3.2630    4.2810   -7.3130 cc        1 2GN     -0.218400
     27 C8         -3.9760    5.4170   -7.9470 c3        1 2GN      0.285100
     28 N12        -5.1970    5.8200   -7.2470 n3        1 2GN     -0.456400
     29 C9         -6.3500    5.3760   -7.6630 c1        1 2GN     -0.117500
     30 C4         -4.7230    2.4360   -8.2660 c3        1 2GN     -0.067800
     31 C1         -3.6010    2.9470   -7.4630 cd        1 2GN      0.010700
     32 C32        -4.9880    6.6890   -6.0890 c3        1 2GN      0.167100
     33 C33        -4.6810    8.1180   -6.4290 ca        1 2GN     -0.092300
     34 C38        -5.5730    8.8700   -7.2000 ca        1 2GN     -0.128000
     35 C37        -5.3080   10.2070   -7.4840 ca        1 2GN     -0.092500
     36 C36        -4.1410   10.8110   -6.9920 ca        1 2GN     -0.116500
     37 C35        -3.2470   10.0580   -6.2160 ca        1 2GN     -0.092500
     38 C34        -3.5180    8.7190   -5.9410 ca        1 2GN     -0.128000
     39 C06        -3.8580   12.2080   -7.2830 cc        1 2GN      0.543500
     40 N01        -2.7460   12.9250   -6.9180 nd        1 2GN     -0.486800
     41 N02        -4.7310   13.0830   -8.0220 nc        1 2GN     -0.365000
     42 N05        -4.1690   14.2160   -8.0810 nd        1 2GN     -0.144800
     43 N04        -2.9890   14.1350   -7.4290 na        1 2GN      0.099900
     44 H281        2.9010   -0.7580    1.1140 h1        1 2GN      0.063700
     45 H282        3.8130    0.7320    1.6690 h1        1 2GN      0.063700
     46 H271        0.3600   -0.2500    0.3210 h1        1 2GN      0.063700
     47 H272       -0.1150    1.5150    0.4790 h1        1 2GN      0.063700
     48 H301        2.3580    0.9560    3.6550 h1        1 2GN      0.061200
     49 H302        2.8610   -0.8090    3.5320 h1        1 2GN      0.061200
     50 H291       -0.9300   -0.0900    2.3570 h1        1 2GN      0.061200
     51 H292       -0.0220    1.4060    2.9270 h1        1 2GN      0.061200
     52 H16         0.7830    3.3410   -2.0520 ha        1 2GN      0.194000
     53 H19         3.6150   -0.2660   -4.0320 ha        1 2GN      0.176000
     54 H10        -0.6920    1.2760   -5.2560 hn        1 2GN      0.341500
     55 H81        -4.2690    5.1180   -8.9980 h1        1 2GN      0.079200
     56 H82        -3.2950    6.3150   -8.0020 h1        1 2GN      0.079200
     57 H91        -4.4010    2.3160   -9.3320 hc        1 2GN      0.068367
     58 H92        -7.2470    5.7140   -7.1030 ha        1 2GN     -0.010500
     59 H321       -4.1480    6.2600   -5.4680 h1        1 2GN      0.067200
     60 H322       -5.9250    6.6700   -5.4600 h1        1 2GN      0.067200
     61 H41        -5.5870    3.1550   -8.2420 hc        1 2GN      0.068367
     62 H42        -5.0650    1.4420   -7.8870 hc        1 2GN      0.068367
     63 H38        -6.4920    8.4030   -7.5880 ha        1 2GN      0.141500
     64 H34        -2.8090    8.1390   -5.3300 ha        1 2GN      0.141500
     65 H37        -6.0220   10.7820   -8.0950 ha        1 2GN      0.155500
     66 H35        -2.3270   10.5140   -5.8210 ha        1 2GN      0.155500
     67 H04        -2.3480   14.8970   -7.3290 hn        1 2GN      0.353700
@<TRIPOS>BOND
     1    1    2 2   
     2    2    3 2   
     3    2    4 1   
     4    2   10 1   
     5    4    5 1   
     6    4    9 1   
     7    5    6 1   
     8    5   44 1   
     9    5   45 1   
    10    6    7 1   
    11    6   48 1   
    12    6   49 1   
    13    7    8 1   
    14    8    9 1   
    15    8   50 1   
    16    8   51 1   
    17    9   46 1   
    18    9   47 1   
    19   10   11 ar  
    20   10   12 ar  
    21   11   17 ar  
    22   11   52 1   
    23   12   13 1   
    24   12   14 ar  
    25   14   15 ar  
    26   14   53 1   
    27   15   16 1   
    28   15   17 ar  
    29   17   18 1   
    30   18   19 2   
    31   18   20 1   
    32   20   21 1   
    33   20   54 1   
    34   21   22 2   
    35   21   25 1   
    36   22   23 1   
    37   22   31 1   
    38   23   24 3   
    39   25   26 1   
    40   26   27 1   
    41   26   31 2   
    42   27   28 1   
    43   27   55 1   
    44   27   56 1   
    45   28   29 3   
    46   28   32 1   
    47   29   58 1   
    48   30   31 1   
    49   30   57 1   
    50   30   61 1   
    51   30   62 1   
    52   32   33 1   
    53   32   59 1   
    54   32   60 1   
    55   33   34 ar  
    56   33   38 ar  
    57   34   35 ar  
    58   34   63 1   
    59   35   36 ar  
    60   35   65 1   
    61   36   37 ar  
    62   36   39 1   
    63   37   38 ar  
    64   37   66 1   
    65   38   64 1   
    66   39   40 2   
    67   39   41 1   
    68   40   43 1   
    69   41   42 2   
    70   42   43 1   
    71   43   67 1   
@<TRIPOS>SUBSTRUCTURE
     1 2GN         1 TEMP              0 ****  ****    0 ROOT
