@<TRIPOS>MOLECULE
2GP
   36    38     1     0     0
SMALL
bcc


@<TRIPOS>ATOM
      1 P           2.4560    0.2000   -0.1680 p5        1 2GP      1.341900
      2 O1P         2.2530    1.4860    0.5680 o         1 2GP     -0.915833
      3 O2P         3.7550   -0.5260   -0.0540 o         1 2GP     -0.915833
      4 O3P         1.8330    0.1410   -1.5500 o         1 2GP     -0.915833
      5 O5'        -3.1740    0.4980    3.9620 oh        1 2GP     -0.634800
      6 C5'        -1.8270    0.8270    3.6640 c3        1 2GP      0.108400
      7 C4'        -0.9830   -0.4210    3.4140 c3        1 2GP      0.085100
      8 O4'        -1.6430   -1.2350    2.4340 os        1 2GP     -0.454600
      9 C3'         0.4170   -0.0670    2.8870 c3        1 2GP      0.097100
     10 O3'         1.3500   -0.9270    3.5110 oh        1 2GP     -0.641800
     11 C2'         0.3260   -0.2440    1.3430 c3        1 2GP      0.188100
     12 O2'         1.4290   -0.8420    0.8240 os        1 2GP     -0.541200
     13 C1'        -0.9440   -1.1800    1.1780 c3        1 2GP      0.189800
     14 N9         -1.8700   -0.7690    0.1250 na        1 2GP     -0.222900
     15 C8         -2.7280    0.3750    0.2040 cc        1 2GP      0.355400
     16 N7         -2.8320    1.0680   -0.9370 nd        1 2GP     -0.615000
     17 C5         -1.9480    0.4360   -1.8270 cd        1 2GP      0.104800
     18 C6         -1.3610    0.9040   -3.0620 c         1 2GP      0.660000
     19 O6         -1.7470    1.8540   -3.7760 o         1 2GP     -0.689500
     20 N1         -0.2350    0.1570   -3.5090 n         1 2GP     -0.470400
     21 C2          0.2340   -0.9870   -2.8150 cd        1 2GP      0.798800
     22 N2          1.3350   -1.6900   -3.4110 nh        1 2GP     -0.855800
     23 N3         -0.4220   -1.5500   -1.7570 nc        1 2GP     -0.694100
     24 C4         -1.3450   -0.7120   -1.1910 cc        1 2GP      0.183800
     25 HO5'       -3.4390   -0.1820    3.3280 ho        1 2GP      0.412000
     26 H5'1       -1.4510    1.3800    4.5630 h1        1 2GP      0.048700
     27 H5'2       -1.8000    1.4990    2.7640 h1        1 2GP      0.048700
     28 H3'         0.7050    0.9880    3.1360 h1        1 2GP      0.070700
     29 H2'         0.1470    0.7690    0.8780 h1        1 2GP      0.083700
     30 H1'        -0.6240   -2.2360    0.9430 h2        1 2GP      0.101700
     31 H8         -3.2630    0.5870    1.1340 h5        1 2GP      0.040100
     32 HN1         0.4320    0.6680   -4.0450 hn        1 2GP      0.322500
     33 HN21        1.6290   -2.4310   -2.7990 hn        1 2GP      0.403300
     34 HN22        2.1050   -1.0380   -3.4920 hn        1 2GP      0.403300
     35 H4'        -0.9350   -1.0580    4.3370 h1        1 2GP      0.064700
     36 HO3'        1.9270   -1.2790    2.8110 ho        1 2GP      0.452000
@<TRIPOS>BOND
     1    1    2 1   
     2    1    3 1   
     3    1    4 1   
     4    1   12 1   
     5    5    6 1   
     6    5   25 1   
     7    6    7 1   
     8    6   26 1   
     9    6   27 1   
    10    7    8 1   
    11    7    9 1   
    12    7   35 1   
    13    8   13 1   
    14    9   10 1   
    15    9   11 1   
    16    9   28 1   
    17   10   36 1   
    18   11   12 1   
    19   11   13 1   
    20   11   29 1   
    21   13   14 1   
    22   13   30 1   
    23   14   15 1   
    24   14   24 1   
    25   15   16 2   
    26   15   31 1   
    27   16   17 1   
    28   17   18 1   
    29   17   24 2   
    30   18   19 2   
    31   18   20 1   
    32   20   21 1   
    33   20   32 1   
    34   21   22 1   
    35   21   23 2   
    36   22   33 1   
    37   22   34 1   
    38   23   24 1   
@<TRIPOS>SUBSTRUCTURE
     1 2GP         1 TEMP              0 ****  ****    0 ROOT
