@<TRIPOS>MOLECULE
2GP
   37    39     1     0     0
SMALL
bcc


@<TRIPOS>ATOM
      1 P           1.1020    1.2020   -0.3030 p5        1 2GP      1.446800
      2 O1P         1.5970    2.7050    0.0540 oh        1 2GP     -0.775400
      3 O2P         0.7130    0.6450    1.0160 o         1 2GP     -0.831000
      4 O3P         1.9560    0.5600   -1.3080 o         1 2GP     -0.831000
      5 O5'        -5.7480    2.5960   -2.2830 oh        1 2GP     -0.608800
      6 C5'        -4.9010    1.5790   -1.7840 c3        1 2GP      0.112400
      7 C4'        -3.4320    1.8710   -2.0830 c3        1 2GP      0.058100
      8 O4'        -3.0850    3.1350   -1.4950 os        1 2GP     -0.428600
      9 C3'        -2.4900    0.7890   -1.5220 c3        1 2GP      0.115100
     10 O3'        -1.8550    0.0980   -2.5680 oh        1 2GP     -0.599800
     11 C2'        -1.5190    1.5280   -0.5610 c3        1 2GP      0.154100
     12 O2'        -0.2790    1.6500   -1.1450 os        1 2GP     -0.562200
     13 C1'        -2.1640    2.9620   -0.4170 c3        1 2GP      0.223800
     14 N9         -2.8500    3.1820    0.8480 na        1 2GP     -0.220900
     15 C8         -4.2310    3.3640    1.1110 cc        1 2GP      0.392400
     16 N7         -4.5480    3.2600    2.4160 nd        1 2GP     -0.606000
     17 C5         -3.3420    2.9650    3.0580 cd        1 2GP      0.154800
     18 C6         -3.0390    2.6100    4.4290 c         1 2GP      0.653000
     19 O6         -3.7920    2.6380    5.4180 o         1 2GP     -0.639500
     20 N1         -1.7080    2.1560    4.6330 ns        1 2GP     -0.520400
     21 C2         -0.7310    2.1460    3.6090 cd        1 2GP      0.686800
     22 N2          0.5680    1.6660    3.9050 nv        1 2GP     -0.869800
     23 N3         -0.9550    2.6250    2.3640 nc        1 2GP     -0.643100
     24 C4         -2.2710    2.9240    2.0940 cc        1 2GP      0.118800
     25 HO5'       -5.3590    3.4420   -2.0230 ho        1 2GP      0.409000
     26 H5'1       -5.0590    1.4700   -0.6770 h1        1 2GP      0.051700
     27 H5'2       -5.2220    0.6420   -2.3110 h1        1 2GP      0.051700
     28 H3'        -3.0710    0.0050   -0.9640 h1        1 2GP      0.072700
     29 H2'        -1.4380    0.9820    0.4210 h1        1 2GP      0.103700
     30 H1'        -1.3830    3.7690   -0.5420 h2        1 2GP      0.118700
     31 H8         -4.9290    3.5910    0.2970 h5        1 2GP      0.063100
     32 HN1        -1.4670    1.8560    5.5510 hn        1 2GP      0.324500
     33 HN21        1.2610    3.0170    0.8870 ho        1 2GP      0.438000
     34 HN22        1.0740    1.4110    3.0650 hn        1 2GP      0.428300
     35 HO3'       -1.0610    0.5940   -2.8240 ho        1 2GP      0.443000
     36 H23         0.5710    0.9290    4.5780 hn        1 2GP      0.428300
     37 H4'        -3.2800    2.0100   -3.1890 h1        1 2GP      0.088700
@<TRIPOS>BOND
     1    1    2 1   
     2    1    3 1   
     3    1    4 1   
     4    1   12 1   
     5    2   33 1   
     6    5    6 1   
     7    5   25 1   
     8    6    7 1   
     9    6   26 1   
    10    6   27 1   
    11    7    8 1   
    12    7    9 1   
    13    7   37 1   
    14    8   13 1   
    15    9   10 1   
    16    9   11 1   
    17    9   28 1   
    18   10   35 1   
    19   11   12 1   
    20   11   13 1   
    21   11   29 1   
    22   13   14 1   
    23   13   30 1   
    24   14   15 1   
    25   14   24 1   
    26   15   16 2   
    27   15   31 1   
    28   16   17 1   
    29   17   18 1   
    30   17   24 2   
    31   18   19 2   
    32   18   20 1   
    33   20   21 1   
    34   20   32 1   
    35   21   22 1   
    36   21   23 2   
    37   22   34 1   
    38   22   36 1   
    39   23   24 1   
@<TRIPOS>SUBSTRUCTURE
     1 2GP         1 TEMP              0 ****  ****    0 ROOT
