@<TRIPOS>MOLECULE
2GP
   37    39     1     0     0
SMALL
bcc


@<TRIPOS>ATOM
      1 P           0.7610    0.6080   -0.0030 p5        1 2GP      1.432800
      2 O1P         1.4230    1.7420    0.9700 oh        1 2GP     -0.785400
      3 O2P        -0.0800   -0.2690    0.8300 o         1 2GP     -0.813500
      4 O3P         1.7540    0.2250   -1.0140 o         1 2GP     -0.813500
      5 O5'        -5.7960    2.5930   -2.2220 oh        1 2GP     -0.609800
      6 C5'        -4.8270    1.5910   -1.9740 c3        1 2GP      0.110400
      7 C4'        -3.4120    2.0980   -2.2400 c3        1 2GP      0.060100
      8 O4'        -3.1660    3.2460   -1.4130 os        1 2GP     -0.431600
      9 C3'        -2.3400    1.0360   -1.9330 c3        1 2GP      0.109100
     10 O3'        -1.4920    0.8830   -3.0450 oh        1 2GP     -0.599800
     11 C2'        -1.6350    1.5100   -0.6330 c3        1 2GP      0.144100
     12 O2'        -0.2770    1.6610   -0.8180 os        1 2GP     -0.575200
     13 C1'        -2.2690    2.9250   -0.3480 c3        1 2GP      0.227800
     14 N9         -2.9630    3.0130    0.9240 na        1 2GP     -0.216900
     15 C8         -4.3460    3.0180    1.2300 cc        1 2GP      0.395400
     16 N7         -4.6020    2.8990    2.5470 nd        1 2GP     -0.606000
     17 C5         -3.3470    2.7800    3.1510 cd        1 2GP      0.164800
     18 C6         -2.9540    2.5290    4.5220 c         1 2GP      0.654000
     19 O6         -3.6770    2.4630    5.5320 o         1 2GP     -0.638500
     20 N1         -1.5590    2.3300    4.7030 n         1 2GP     -0.509400
     21 C2         -0.6240    2.4300    3.6490 cd        1 2GP      0.679800
     22 N2          0.7540    2.2620    3.9560 nh        1 2GP     -0.872800
     23 N3         -0.9590    2.7430    2.3780 nc        1 2GP     -0.643100
     24 C4         -2.3120    2.8540    2.1500 cc        1 2GP      0.119800
     25 HO5'       -5.4750    3.4060   -1.8100 ho        1 2GP      0.409000
     26 H5'1       -4.9210    1.2350   -0.9130 h1        1 2GP      0.052700
     27 H5'2       -5.0790    0.7560   -2.6800 h1        1 2GP      0.052700
     28 H3'        -2.8110    0.0270   -1.7760 h1        1 2GP      0.078700
     29 H2'        -1.8380    0.7800    0.2060 h1        1 2GP      0.115700
     30 H1'        -1.4680    3.7240   -0.3590 h2        1 2GP      0.109700
     31 H8         -5.0940    3.1310    0.4380 h5        1 2GP      0.062100
     32 HN1        -1.2470    2.1120    5.6230 hn        1 2GP      0.326500
     33 HN21        1.3250    2.2260    3.1230 hn        1 2GP      0.421300
     34 HN22        0.9200    1.4720    4.5450 hn        1 2GP      0.421300
     35 HO3'       -0.7030    1.4280   -2.9090 ho        1 2GP      0.439000
     36 H23         1.2940    2.6320    0.6650 ho        1 2GP      0.436000
     37 H4'        -3.3230    2.4770   -3.2950 h1        1 2GP      0.090700
@<TRIPOS>BOND
     1    1    2 1   
     2    1    3 1   
     3    1    4 1   
     4    1   12 1   
     5    2   36 1   
     6    5    6 1   
     7    5   25 1   
     8    6    7 1   
     9    6   26 1   
    10    6   27 1   
    11    7    8 1   
    12    7    9 1   
    13    7   37 1   
    14    8   13 1   
    15    9   10 1   
    16    9   11 1   
    17    9   28 1   
    18   10   35 1   
    19   11   12 1   
    20   11   13 1   
    21   11   29 1   
    22   13   14 1   
    23   13   30 1   
    24   14   15 1   
    25   14   24 1   
    26   15   16 2   
    27   15   31 1   
    28   16   17 1   
    29   17   18 1   
    30   17   24 2   
    31   18   19 2   
    32   18   20 1   
    33   20   21 1   
    34   20   32 1   
    35   21   22 1   
    36   21   23 2   
    37   22   33 1   
    38   22   34 1   
    39   23   24 1   
@<TRIPOS>SUBSTRUCTURE
     1 2GP         1 TEMP              0 ****  ****    0 ROOT
