@<TRIPOS>MOLECULE
2GP
   37    39     1     0     0
SMALL
bcc


@<TRIPOS>ATOM
      1 P           0.7860    0.6900   -0.0700 p5        1 2GP      1.432800
      2 O1P         1.4290    1.7920    0.9510 oh        1 2GP     -0.785400
      3 O2P        -0.0360   -0.2390    0.7240 o         1 2GP     -0.813500
      4 O3P         1.7830    0.3720   -1.1000 o         1 2GP     -0.813500
      5 O5'        -5.8140    2.6470   -2.1860 oh        1 2GP     -0.609800
      6 C5'        -4.8260    1.6540   -1.9860 c3        1 2GP      0.110400
      7 C4'        -3.4210    2.1990   -2.2310 c3        1 2GP      0.060100
      8 O4'        -3.1950    3.3130   -1.3540 os        1 2GP     -0.431600
      9 C3'        -2.3290    1.1450   -1.9740 c3        1 2GP      0.109100
     10 O3'        -1.4810    1.0580   -3.0930 oh        1 2GP     -0.599800
     11 C2'        -1.6290    1.5740   -0.6550 c3        1 2GP      0.144100
     12 O2'        -0.2750    1.7590   -0.8360 os        1 2GP     -0.575200
     13 C1'        -2.2890    2.9620   -0.3060 c3        1 2GP      0.227800
     14 N9         -2.9810    2.9800    0.9700 na        1 2GP     -0.216900
     15 C8         -4.3630    2.9440    1.2780 cc        1 2GP      0.395400
     16 N7         -4.6130    2.7610    2.5900 nd        1 2GP     -0.606000
     17 C5         -3.3540    2.6390    3.1860 cd        1 2GP      0.164800
     18 C6         -2.9530    2.3340    4.5430 c         1 2GP      0.654000
     19 O6         -3.6720    2.2100    5.5500 o         1 2GP     -0.638500
     20 N1         -1.5540    2.1540    4.7120 n         1 2GP     -0.509400
     21 C2         -0.6240    2.3200    3.6610 cd        1 2GP      0.679800
     22 N2          0.7580    2.1650    3.9580 nh        1 2GP     -0.872800
     23 N3         -0.9680    2.6830    2.4070 nc        1 2GP     -0.643100
     24 C4         -2.3240    2.7780    2.1870 cc        1 2GP      0.119800
     25 HO5'       -5.5070    3.4470   -1.7390 ho        1 2GP      0.409000
     26 H5'1       -5.0640    0.8480   -2.7280 h1        1 2GP      0.052700
     27 H5'2       -4.9100    1.2490   -0.9420 h1        1 2GP      0.052700
     28 H3'        -2.7800    0.1210   -1.8610 h1        1 2GP      0.078700
     29 H2'        -1.8160    0.8030    0.1500 h1        1 2GP      0.115700
     30 H1'        -1.5030    3.7750   -0.2820 h2        1 2GP      0.109700
     31 H8         -5.1150    3.0780    0.4930 h5        1 2GP      0.062100
     32 HN1        -1.2350    1.9020    5.6200 hn        1 2GP      0.326500
     33 HN21        1.3270    2.1780    3.1230 hn        1 2GP      0.421300
     34 HN22        0.9410    1.3520    4.5110 hn        1 2GP      0.421300
     35 HO3'       -0.7010    1.6120   -2.9340 ho        1 2GP      0.439000
     36 H23         1.2820    2.6920    0.6870 ho        1 2GP      0.436000
     37 H4'        -3.3420    2.6270   -3.2680 h1        1 2GP      0.090700
@<TRIPOS>BOND
     1    1    2 1   
     2    1    3 1   
     3    1    4 1   
     4    1   12 1   
     5    2   36 1   
     6    5    6 1   
     7    5   25 1   
     8    6    7 1   
     9    6   26 1   
    10    6   27 1   
    11    7    8 1   
    12    7    9 1   
    13    7   37 1   
    14    8   13 1   
    15    9   10 1   
    16    9   11 1   
    17    9   28 1   
    18   10   35 1   
    19   11   12 1   
    20   11   13 1   
    21   11   29 1   
    22   13   14 1   
    23   13   30 1   
    24   14   15 1   
    25   14   24 1   
    26   15   16 2   
    27   15   31 1   
    28   16   17 1   
    29   17   18 1   
    30   17   24 2   
    31   18   19 2   
    32   18   20 1   
    33   20   21 1   
    34   20   32 1   
    35   21   22 1   
    36   21   23 2   
    37   22   33 1   
    38   22   34 1   
    39   23   24 1   
@<TRIPOS>SUBSTRUCTURE
     1 2GP         1 TEMP              0 ****  ****    0 ROOT
