@<TRIPOS>MOLECULE
2GQ
   30    27     1     0     0
SMALL
bcc


@<TRIPOS>ATOM
      1 O          -3.4710   -0.3690    0.8620 o         1 2GQ     -0.369000
      2 C8         -2.2640   -0.2330    0.8610 c1        1 2GQ      0.345000
      3 C3         -1.4870   -0.2050    2.2020 c2        1 2GQ     -0.136000
      4 C2         -2.1800   -0.3090    3.4180 c1        1 2GQ     -0.063000
      5 C1         -1.4830   -0.2930    4.6180 c1        1 2GQ     -0.125000
      6 N          -1.5530   -0.0970   -0.3910 n2        1 2GQ     -0.324000
      7 C7         -0.1280   -0.0120   -0.3980 c1        1 2GQ      0.107000
      8 C6          0.6260    0.0160    0.8930 c1        1 2GQ     -0.191000
      9 C4         -0.1180   -0.0860    2.2000 c1        1 2GQ      0.024000
     10 C5          0.5870   -0.0700    3.4150 c1        1 2GQ     -0.143000
     11 C          -0.0990   -0.1730    4.6160 c1        1 2GQ     -0.125000
     12 N1          0.5720    0.0790   -1.6290 n2        1 2GQ     -0.189000
     13 C12         0.9490   -0.9250   -2.3720 c3        1 2GQ     -0.095000
     14 C11         1.8780   -0.3020   -3.5410 c3        1 2GQ     -0.187000
     15 C10         1.3440    0.8270   -3.8620 c3        1 2GQ     -0.187000
     16 C9          0.5920    1.3000   -2.5740 c3        1 2GQ     -0.095000
     17 H1         -3.1530   -0.3930    3.4200 ha        1 2GQ      0.158000
     18 H2         -1.9650   -0.3660    5.4640 ha        1 2GQ      0.136000
     19 H3          1.6000    0.0740    0.8890 ha        1 2GQ      0.161000
     20 H5          1.5590    0.0140    3.4130 ha        1 2GQ      0.138000
     21 H6          0.3910   -0.1620    5.4600 ha        1 2GQ      0.136000
     22 H7          0.1670   -1.3660   -2.7640 h1        1 2GQ      0.103500
     23 H8          1.4650   -1.5640   -1.8370 h1        1 2GQ      0.103500
     24 H9          2.7890   -0.1610   -3.2080 hc        1 2GQ      0.092500
     25 H10         1.8910   -0.9010   -4.3160 hc        1 2GQ      0.092500
     26 H11         2.0370    1.4740   -4.1080 hc        1 2GQ      0.092500
     27 H12         0.7110    0.7060   -4.6000 hc        1 2GQ      0.092500
     28 H13        -0.3210    1.5700   -2.7960 h1        1 2GQ      0.103500
     29 H14         1.0730    2.0430   -2.1550 h1        1 2GQ      0.103500
     30 H15        -2.0120   -0.1140   -1.1790 hn        1 2GQ      0.242000
@<TRIPOS>BOND
     1    1    2 1   
     2    2    3 1   
     3    3    4 1   
     4    3    9 1   
     5    4   17 1   
     6    5   11 1   
     7    5   18 1   
     8    6    7 1   
     9    6   30 1   
    10    7    8 1   
    11    8   19 1   
    12    9   10 1   
    13   10   20 1   
    14   11   21 1   
    15   12   13 1   
    16   12   16 1   
    17   13   14 1   
    18   13   22 1   
    19   13   23 1   
    20   14   15 1   
    21   14   24 1   
    22   14   25 1   
    23   15   16 1   
    24   15   26 1   
    25   15   27 1   
    26   16   28 1   
    27   16   29 1   
@<TRIPOS>SUBSTRUCTURE
     1 2GQ         1 TEMP              0 ****  ****    0 ROOT
