@<TRIPOS>MOLECULE
2GQ
   30    32     1     0     0
SMALL
bcc


@<TRIPOS>ATOM
      1 O          -0.0410    0.1710   -0.0460 o         1 2GQ     -0.642500
      2 C8          1.2030    0.1330    0.0240 c         1 2GQ      0.719100
      3 C3          1.9760    0.0480    1.2690 ca        1 2GQ     -0.180600
      4 C2          1.3100   -0.0070    2.5050 ca        1 2GQ     -0.053000
      5 C1          2.0410   -0.0820    3.6790 ca        1 2GQ     -0.170000
      6 N           1.9150    0.1640   -1.1850 ns        1 2GQ     -0.471100
      7 C7          3.3160    0.1580   -1.2350 cc        1 2GQ      0.283600
      8 C6          4.0450    0.0830   -0.0550 cd        1 2GQ     -0.292200
      9 C4          3.3840    0.0280    1.2120 ca        1 2GQ      0.051200
     10 C5          4.1100   -0.0480    2.4210 ca        1 2GQ     -0.159000
     11 C           3.4430   -0.1020    3.6320 ca        1 2GQ     -0.087000
     12 N1          3.9540    0.3220   -2.4850 nh        1 2GQ     -0.651400
     13 C12         3.2540   -0.0280   -3.7170 c3        1 2GQ      0.183800
     14 C11         4.3130   -0.3550   -4.7830 c3        1 2GQ     -0.088400
     15 C10         5.6530   -0.3940   -4.0580 c3        1 2GQ     -0.088400
     16 C9          5.3610   -0.0560   -2.5880 c3        1 2GQ      0.183800
     17 H1          0.2080    0.0120    2.5160 ha        1 2GQ      0.155000
     18 H2          1.5260   -0.1260    4.6500 ha        1 2GQ      0.136000
     19 H3          5.1420    0.0860   -0.0610 ha        1 2GQ      0.148000
     20 H5          5.2090   -0.0620    2.3860 ha        1 2GQ      0.134000
     21 H6          4.0140   -0.1610    4.5720 ha        1 2GQ      0.131000
     22 H7          2.5700   -0.9120   -3.5870 h1        1 2GQ      0.051200
     23 H8          2.6330    0.8560   -4.0290 h1        1 2GQ      0.051200
     24 H9          4.3140    0.4290   -5.5800 hc        1 2GQ      0.055950
     25 H10         4.0850   -1.3360   -5.2660 hc        1 2GQ      0.055950
     26 H11         6.3640    0.3500   -4.4930 hc        1 2GQ      0.055950
     27 H12         6.1240   -1.4040   -4.1350 hc        1 2GQ      0.055950
     28 H13         5.9770    0.8190   -2.2440 h1        1 2GQ      0.051200
     29 H14         5.6070   -0.9380   -1.9320 h1        1 2GQ      0.051200
     30 H15         1.3830    0.2660   -2.0230 hn        1 2GQ      0.330500
@<TRIPOS>BOND
     1    1    2 2   
     2    2    3 1   
     3    2    6 1   
     4    3    4 ar  
     5    3    9 ar  
     6    4    5 ar  
     7    4   17 1   
     8    5   11 ar  
     9    5   18 1   
    10    6    7 1   
    11    6   30 1   
    12    7    8 2   
    13    7   12 1   
    14    8    9 1   
    15    8   19 1   
    16    9   10 ar  
    17   10   11 ar  
    18   10   20 1   
    19   11   21 1   
    20   12   13 1   
    21   12   16 1   
    22   13   14 1   
    23   13   22 1   
    24   13   23 1   
    25   14   15 1   
    26   14   24 1   
    27   14   25 1   
    28   15   16 1   
    29   15   26 1   
    30   15   27 1   
    31   16   28 1   
    32   16   29 1   
@<TRIPOS>SUBSTRUCTURE
     1 2GQ         1 TEMP              0 ****  ****    0 ROOT
