@<TRIPOS>MOLECULE
2GQ
   30    32     1     0     0
SMALL
bcc


@<TRIPOS>ATOM
      1 O           1.4310   -2.7960    0.1210 o         1 2GQ     -0.642500
      2 C8          1.0670   -1.6030    0.1170 c         1 2GQ      0.719100
      3 C3          1.9670   -0.4470    0.0320 ca        1 2GQ     -0.180600
      4 C2          3.3540   -0.6450   -0.0640 ca        1 2GQ     -0.053000
      5 C1          4.2030    0.4480   -0.1400 ca        1 2GQ     -0.170000
      6 N          -0.3120   -1.3540    0.1910 n         1 2GQ     -0.471100
      7 C7         -0.8420   -0.0560    0.2260 cc        1 2GQ      0.283600
      8 C6          0.0130    1.0370    0.1510 cd        1 2GQ     -0.292200
      9 C4          1.4280    0.8550    0.0540 ca        1 2GQ      0.051200
     10 C5          2.3100    1.9550   -0.0230 ca        1 2GQ     -0.159000
     11 C           3.6750    1.7490   -0.1180 ca        1 2GQ     -0.087000
     12 N1         -2.2300    0.1080    0.4310 nh        1 2GQ     -0.651400
     13 C12        -3.1550   -0.9660    0.0840 c3        1 2GQ      0.183800
     14 C11        -4.5280   -0.3340   -0.1930 c3        1 2GQ     -0.088400
     15 C10        -4.3110    1.1750   -0.2050 c3        1 2GQ     -0.088400
     16 C9         -2.8210    1.4010    0.0980 c3        1 2GQ      0.183800
     17 H1          3.7450   -1.6750   -0.0780 ha        1 2GQ      0.155000
     18 H2          5.2900    0.3010   -0.2160 ha        1 2GQ      0.136000
     19 H3         -0.3710    2.0640    0.1860 ha        1 2GQ      0.148000
     20 H5          1.8980    2.9740   -0.0040 ha        1 2GQ      0.134000
     21 H6          4.3580    2.6100   -0.1780 ha        1 2GQ      0.131000
     22 H7         -2.8200   -1.5450   -0.8230 h1        1 2GQ      0.051200
     23 H8         -3.2090   -1.6750    0.9540 h1        1 2GQ      0.051200
     24 H9         -4.9290   -0.6930   -1.1720 hc        1 2GQ      0.055950
     25 H10        -5.2550   -0.6250    0.6040 hc        1 2GQ      0.055950
     26 H11        -4.5730    1.6120   -1.2000 hc        1 2GQ      0.055950
     27 H12        -4.9430    1.6760    0.5680 hc        1 2GQ      0.055950
     28 H13        -2.6870    2.0790    0.9840 h1        1 2GQ      0.051200
     29 H14        -2.3150    1.8770   -0.7890 h1        1 2GQ      0.051200
     30 H15        -0.9130   -2.1430    0.2920 hn        1 2GQ      0.330500
@<TRIPOS>BOND
     1    1    2 2   
     2    2    3 1   
     3    2    6 1   
     4    3    4 ar  
     5    3    9 ar  
     6    4    5 ar  
     7    4   17 1   
     8    5   11 ar  
     9    5   18 1   
    10    6    7 1   
    11    6   30 1   
    12    7    8 2   
    13    7   12 1   
    14    8    9 1   
    15    8   19 1   
    16    9   10 ar  
    17   10   11 ar  
    18   10   20 1   
    19   11   21 1   
    20   12   13 1   
    21   12   16 1   
    22   13   14 1   
    23   13   22 1   
    24   13   23 1   
    25   14   15 1   
    26   14   24 1   
    27   14   25 1   
    28   15   16 1   
    29   15   26 1   
    30   15   27 1   
    31   16   28 1   
    32   16   29 1   
@<TRIPOS>SUBSTRUCTURE
     1 2GQ         1 TEMP              0 ****  ****    0 ROOT
