@<TRIPOS>MOLECULE
2GQ
   30    32     1     0     0
SMALL
bcc


@<TRIPOS>ATOM
      1 O          -0.0430    0.1660   -0.0520 o         1 2GQ     -0.642500
      2 C8          1.2020    0.1300    0.0210 c         1 2GQ      0.719100
      3 C3          1.9730    0.0470    1.2670 ca        1 2GQ     -0.180600
      4 C2          1.3040   -0.0070    2.5010 ca        1 2GQ     -0.053000
      5 C1          2.0340   -0.0800    3.6770 ca        1 2GQ     -0.170000
      6 N           1.9150    0.1610   -1.1880 n         1 2GQ     -0.471100
      7 C7          3.3160    0.1570   -1.2360 cc        1 2GQ      0.283600
      8 C6          4.0440    0.0840   -0.0540 cd        1 2GQ     -0.292200
      9 C4          3.3810    0.0290    1.2120 ca        1 2GQ      0.051200
     10 C5          4.1050   -0.0440    2.4220 ca        1 2GQ     -0.159000
     11 C           3.4370   -0.0980    3.6320 ca        1 2GQ     -0.087000
     12 N1          3.9560    0.3210   -2.4850 nh        1 2GQ     -0.651400
     13 C12         3.2590   -0.0310   -3.7180 c3        1 2GQ      0.183800
     14 C11         4.3190   -0.3570   -4.7810 c3        1 2GQ     -0.088400
     15 C10         5.6580   -0.3930   -4.0540 c3        1 2GQ     -0.088400
     16 C9          5.3640   -0.0540   -2.5850 c3        1 2GQ      0.183800
     17 H1          0.2020    0.0100    2.5110 ha        1 2GQ      0.155000
     18 H2          1.5180   -0.1240    4.6470 ha        1 2GQ      0.136000
     19 H3          5.1410    0.0890   -0.0590 ha        1 2GQ      0.148000
     20 H5          5.2040   -0.0570    2.3880 ha        1 2GQ      0.134000
     21 H6          4.0060   -0.1550    4.5730 ha        1 2GQ      0.131000
     22 H7          2.5750   -0.9160   -3.5870 h1        1 2GQ      0.051200
     23 H8          2.6360    0.8520   -4.0310 h1        1 2GQ      0.051200
     24 H9          4.3200    0.4260   -5.5790 hc        1 2GQ      0.055950
     25 H10         4.0930   -1.3380   -5.2640 hc        1 2GQ      0.055950
     26 H11         6.3690    0.3510   -4.4890 hc        1 2GQ      0.055950
     27 H12         6.1310   -1.4030   -4.1300 hc        1 2GQ      0.055950
     28 H13         5.6100   -0.9350   -1.9280 h1        1 2GQ      0.051200
     29 H14         5.9780    0.8220   -2.2410 h1        1 2GQ      0.051200
     30 H15         1.3850    0.2610   -2.0260 hn        1 2GQ      0.330500
@<TRIPOS>BOND
     1    1    2 2   
     2    2    3 1   
     3    2    6 1   
     4    3    4 ar  
     5    3    9 ar  
     6    4    5 ar  
     7    4   17 1   
     8    5   11 ar  
     9    5   18 1   
    10    6    7 1   
    11    6   30 1   
    12    7    8 2   
    13    7   12 1   
    14    8    9 1   
    15    8   19 1   
    16    9   10 ar  
    17   10   11 ar  
    18   10   20 1   
    19   11   21 1   
    20   12   13 1   
    21   12   16 1   
    22   13   14 1   
    23   13   22 1   
    24   13   23 1   
    25   14   15 1   
    26   14   24 1   
    27   14   25 1   
    28   15   16 1   
    29   15   26 1   
    30   15   27 1   
    31   16   28 1   
    32   16   29 1   
@<TRIPOS>SUBSTRUCTURE
     1 2GQ         1 TEMP              0 ****  ****    0 ROOT
