@<TRIPOS>MOLECULE
2GR
   43    43     1     0     0
SMALL
bcc


@<TRIPOS>ATOM
      1 CAK        -0.7040   -0.1860    0.3970 ca        1 2GR     -0.089500
      2 CAI         0.1870    0.8540    0.1410 ca        1 2GR     -0.150500
      3 CAH         0.2080    1.9740    0.9730 ca        1 2GR     -0.119000
      4 CAJ        -0.6590    2.0500    2.0610 ca        1 2GR     -0.150500
      5 CAL        -1.5590    1.0150    2.3220 ca        1 2GR     -0.089500
      6 CAW        -1.5830   -0.1050    1.4840 ca        1 2GR     -0.140600
      7 CAV        -2.5060   -1.2550    1.7200 c         1 2GR      0.664700
      8 OAC        -2.1690   -2.4210    1.4090 o         1 2GR     -0.642100
      9 NAQ        -3.7650   -0.9750    2.2120 ns        1 2GR     -0.547900
     10 CAM        -4.6510   -2.0140    2.6600 c3        1 2GR      0.056000
     11 CAN        -4.8670   -2.0740    4.1860 c3        1 2GR      0.166400
     12 OAS        -5.6110   -0.9760    4.6320 os        1 2GR     -0.600200
     13 PAY        -4.7820    0.1430    5.5260 p5        1 2GR      1.320700
     14 OAG        -4.0220    0.9130    4.5170 o         1 2GR     -0.775000
     15 OAD        -4.2550   -0.5330    6.7180 o         1 2GR     -0.775000
     16 N          -6.1620    1.0760    6.0530 ny        1 2GR     -0.737100
     17 CA         -6.0050    2.5220    5.7820 c3        1 2GR     -0.056500
     18 C          -6.3380    3.3890    7.0800 c         1 2GR      0.924600
     19 OXT        -6.1680    4.6220    6.9590 o         1 2GR     -0.788800
     20 O          -6.7360    2.7520    8.0890 o         1 2GR     -0.788800
     21 CB         -6.8770    3.0580    4.6520 c3        1 2GR     -0.082400
     22 CG         -6.3570    2.7040    3.2730 c3        1 2GR     -0.198400
     23 CD         -6.8160    3.6920    2.2450 c         1 2GR      0.633100
     24 OE2        -6.4050    4.9930    2.3350 oh        1 2GR     -0.595100
     25 OE1        -7.5310    3.4740    1.2650 o         1 2GR     -0.517000
     26 H1         -0.7210   -1.0830   -0.2420 ha        1 2GR      0.171000
     27 H2          0.8730    0.7900   -0.7160 ha        1 2GR      0.129000
     28 H3          0.9110    2.7960    0.7700 ha        1 2GR      0.122000
     29 H4         -0.6410    2.9290    2.7220 ha        1 2GR      0.129000
     30 H5         -2.2350    1.0940    3.1970 ha        1 2GR      0.171000
     31 H6         -5.8720    5.1140    3.1350 ho        1 2GR      0.438000
     32 H7         -5.6540   -1.8370    2.1770 h1        1 2GR      0.062700
     33 H8         -4.2570   -3.0150    2.3250 h1        1 2GR      0.062700
     34 H9         -5.4690   -3.0000    4.4060 h1        1 2GR      0.042700
     35 H10        -3.8910   -2.1280    4.7410 h1        1 2GR      0.042700
     36 H12        -7.0250    0.7440    5.6320 hn        1 2GR      0.454300
     37 H13        -4.9160    2.7030    5.5400 hx        1 2GR      0.113700
     38 H15        -6.8940    4.1780    4.7840 hc        1 2GR      0.073200
     39 H16        -7.9350    2.7030    4.7630 hc        1 2GR      0.073200
     40 H17        -6.7100    1.6840    2.9670 hc        1 2GR      0.095700
     41 H18        -5.2300    2.6840    3.2680 hc        1 2GR      0.095700
     42 HAQ2       -3.9310   -0.0630    2.5920 hn        1 2GR      0.345500
     43 H21        -6.2860    0.9930    7.0830 hn        1 2GR      0.454300
@<TRIPOS>BOND
     1    1    2 ar  
     2    1    6 ar  
     3    1   26 1   
     4    2    3 ar  
     5    2   27 1   
     6    3    4 ar  
     7    3   28 1   
     8    4    5 ar  
     9    4   29 1   
    10    5    6 ar  
    11    5   30 1   
    12    6    7 1   
    13    7    8 2   
    14    7    9 1   
    15    9   10 1   
    16    9   42 1   
    17   10   11 1   
    18   10   32 1   
    19   10   33 1   
    20   11   12 1   
    21   11   34 1   
    22   11   35 1   
    23   12   13 1   
    24   13   14 1   
    25   13   15 1   
    26   13   16 1   
    27   16   17 1   
    28   16   36 1   
    29   16   43 1   
    30   17   18 1   
    31   17   21 1   
    32   17   37 1   
    33   18   19 1   
    34   18   20 1   
    35   21   22 1   
    36   21   38 1   
    37   21   39 1   
    38   22   23 1   
    39   22   40 1   
    40   22   41 1   
    41   23   24 1   
    42   23   25 2   
    43   24   31 1   
@<TRIPOS>SUBSTRUCTURE
     1 2GR         1 TEMP              0 ****  ****    0 ROOT
