@<TRIPOS>MOLECULE
2GR
   43    43     1     0     0
SMALL
bcc


@<TRIPOS>ATOM
      1 CAK        -0.7490   -0.3820    0.4320 ca        1 2GR     -0.089500
      2 CAI         0.1650    0.6260    0.1360 ca        1 2GR     -0.150500
      3 CAH         0.2180    1.7740    0.9260 ca        1 2GR     -0.119000
      4 CAJ        -0.6430    1.9110    2.0140 ca        1 2GR     -0.150500
      5 CAL        -1.5660    0.9080    2.3160 ca        1 2GR     -0.089500
      6 CAW        -1.6210   -0.2400    1.5190 ca        1 2GR     -0.140600
      7 CAV        -2.5710   -1.3580    1.8000 c         1 2GR      0.664700
      8 OAC        -2.2640   -2.5430    1.5310 o         1 2GR     -0.642100
      9 NAQ        -3.8210   -1.0300    2.2850 n         1 2GR     -0.547900
     10 CAM        -4.7300   -2.0290    2.7740 c3        1 2GR      0.056000
     11 CAN        -4.9410   -2.0280    4.3020 c3        1 2GR      0.166400
     12 OAS        -5.6560   -0.8960    4.7100 os        1 2GR     -0.600200
     13 PAY        -4.7970    0.2330    5.5600 p5        1 2GR      1.320700
     14 OAG        -4.0210    0.9470    4.5210 o         1 2GR     -0.775000
     15 OAD        -4.2800   -0.4120    6.7740 o         1 2GR     -0.775000
     16 N          -6.1510    1.2180    6.0570 n4        1 2GR     -0.737100
     17 CA         -5.9590    2.6500    5.7340 c3        1 2GR     -0.056500
     18 C          -6.2660    3.5710    7.0000 c         1 2GR      0.924600
     19 OXT        -6.0660    4.7940    6.8340 o         1 2GR     -0.788800
     20 O          -6.6750    2.9800    8.0330 o         1 2GR     -0.788800
     21 CB         -6.8210    3.1660    4.5870 c3        1 2GR     -0.082400
     22 CG         -6.3160    2.7500    3.2210 c3        1 2GR     -0.198400
     23 CD         -6.7540    3.7110    2.1590 c         1 2GR      0.633100
     24 OE2        -6.3110    5.0040    2.2010 oh        1 2GR     -0.595100
     25 OE1        -7.4780    3.4760    1.1890 o         1 2GR     -0.517000
     26 H1         -0.7910   -1.3020   -0.1730 ha        1 2GR      0.171000
     27 H2          0.8460    0.5140   -0.7200 ha        1 2GR      0.129000
     28 H3          0.9400    2.5700    0.6920 ha        1 2GR      0.122000
     29 H4         -0.6000    2.8130    2.6420 ha        1 2GR      0.129000
     30 H5         -2.2370    1.0360    3.1890 ha        1 2GR      0.171000
     31 H6         -5.7720    5.1400    2.9950 ho        1 2GR      0.438000
     32 H7         -4.3610   -3.0510    2.4750 h1        1 2GR      0.062700
     33 H8         -5.7310   -1.8460    2.2880 h1        1 2GR      0.062700
     34 H9         -5.5650   -2.9300    4.5580 h1        1 2GR      0.042700
     35 H10        -3.9640   -2.0870    4.8560 h1        1 2GR      0.042700
     36 H12        -6.2730    1.1760    7.0890 hn        1 2GR      0.454300
     37 H13        -4.8670    2.7940    5.4810 hx        1 2GR      0.112700
     38 H15        -7.8880    2.8410    4.7140 hc        1 2GR      0.073200
     39 H16        -6.8110    4.2900    4.6790 hc        1 2GR      0.073200
     40 H17        -5.1900    2.7010    3.2130 hc        1 2GR      0.095700
     41 H18        -6.6960    1.7290    2.9530 hc        1 2GR      0.095700
     42 HAQ2       -3.9630   -0.1010    2.6330 hn        1 2GR      0.345500
     43 H21        -7.0240    0.8930    5.6510 hn        1 2GR      0.454300
@<TRIPOS>BOND
     1    1    2 ar  
     2    1    6 ar  
     3    1   26 1   
     4    2    3 ar  
     5    2   27 1   
     6    3    4 ar  
     7    3   28 1   
     8    4    5 ar  
     9    4   29 1   
    10    5    6 ar  
    11    5   30 1   
    12    6    7 1   
    13    7    8 2   
    14    7    9 1   
    15    9   10 1   
    16    9   42 1   
    17   10   11 1   
    18   10   32 1   
    19   10   33 1   
    20   11   12 1   
    21   11   34 1   
    22   11   35 1   
    23   12   13 1   
    24   13   14 1   
    25   13   15 1   
    26   13   16 1   
    27   16   17 1   
    28   16   36 1   
    29   16   43 1   
    30   17   18 1   
    31   17   21 1   
    32   17   37 1   
    33   18   19 1   
    34   18   20 1   
    35   21   22 1   
    36   21   38 1   
    37   21   39 1   
    38   22   23 1   
    39   22   40 1   
    40   22   41 1   
    41   23   24 1   
    42   23   25 2   
    43   24   31 1   
@<TRIPOS>SUBSTRUCTURE
     1 2GR         1 TEMP              0 ****  ****    0 ROOT
