@<TRIPOS>MOLECULE
2GS
   27    27     1     0     0
SMALL
bcc


@<TRIPOS>ATOM
      1 C1         -0.9800    0.2890   -1.0220 c3        1 2GS      0.341900
      2 C2          0.4510    0.3110   -1.0450 c3        1 2GS      0.082100
      3 C3          1.0460    0.3330    0.2120 c3        1 2GS      0.131100
      4 C4          0.5520   -0.7390    1.1230 c3        1 2GS      0.083100
      5 C5         -1.0300   -0.7610    1.3040 c3        1 2GS      0.082100
      6 C6         -1.4550    0.3430    1.9630 c3        1 2GS      0.100400
      7 C7          1.7920   -0.6840   -2.9270 c3        1 2GS      0.113700
      8 O1         -1.4500    0.0930   -2.3510 oh        1 2GS     -0.579800
      9 O2          0.9530   -0.9680   -1.8090 os        1 2GS     -0.419600
     10 O3          0.7660    1.6700    0.8540 oh        1 2GS     -0.602800
     11 O4          1.1460   -0.5620    2.3870 oh        1 2GS     -0.606800
     12 O5         -1.5420   -0.7650   -0.1710 os        1 2GS     -0.441600
     13 O6         -2.7670    0.1230    2.4620 oh        1 2GS     -0.595800
     14 H1         -1.3170    1.1930   -0.6860 h2        1 2GS      0.091700
     15 H2          0.7440    1.1080   -1.5430 h1        1 2GS      0.080700
     16 H3          2.0020    0.2330    0.1050 h1        1 2GS      0.054700
     17 H4          0.8350   -1.6080    0.7640 h1        1 2GS      0.067700
     18 H5         -1.3150   -1.5750    1.7710 h1        1 2GS      0.084700
     19 H61        -1.4630    1.1010    1.3540 h1        1 2GS      0.061200
     20 H62        -0.8540    0.5280    2.7030 h1        1 2GS      0.061200
     21 H71         2.0020   -1.5180   -3.3980 h1        1 2GS      0.040033
     22 H72         2.6200   -0.2660   -2.6160 h1        1 2GS      0.040033
     23 H73         1.3330   -0.0820   -3.5280 h1        1 2GS      0.040033
     24 HO1        -2.1230    0.6280   -2.5030 ho        1 2GS      0.432000
     25 HO3         1.5140    2.1270    0.9190 ho        1 2GS      0.429000
     26 HO4         1.5300   -1.3420    2.6530 ho        1 2GS      0.416000
     27 HO6        -2.9910    0.7920    3.0250 ho        1 2GS      0.413000
@<TRIPOS>BOND
     1    1    2 1   
     2    1    8 1   
     3    1   12 1   
     4    1   14 1   
     5    2    3 1   
     6    2    9 1   
     7    2   15 1   
     8    3    4 1   
     9    3   10 1   
    10    3   16 1   
    11    4    5 1   
    12    4   11 1   
    13    4   17 1   
    14    5    6 1   
    15    5   12 1   
    16    5   18 1   
    17    6   13 1   
    18    6   19 1   
    19    6   20 1   
    20    7    9 1   
    21    7   21 1   
    22    7   22 1   
    23    7   23 1   
    24    8   24 1   
    25   10   25 1   
    26   11   26 1   
    27   13   27 1   
@<TRIPOS>SUBSTRUCTURE
     1 2GS         1 TEMP              0 ****  ****    0 ROOT
