@<TRIPOS>MOLECULE
2GS
   27    27     1     0     0
SMALL
bcc


@<TRIPOS>ATOM
      1 C1         -3.0410    0.5590    0.9020 c3        1 2GS      0.341900
      2 C2         -2.1830    1.5930    0.1460 c3        1 2GS      0.082100
      3 C3         -0.7950    1.7410    0.7880 c3        1 2GS      0.131100
      4 C4         -0.1720    0.3600    1.0440 c3        1 2GS      0.083100
      5 C5         -1.1210   -0.6060    1.7650 c3        1 2GS      0.082100
      6 C6         -1.3010   -0.2680    3.2480 c3        1 2GS      0.100400
      7 O1         -4.1690    0.1660    0.1770 oh        1 2GS     -0.579800
      8 O2         -2.0460    1.1210   -1.1920 os        1 2GS     -0.419600
      9 O3         -0.9750    2.4870    1.9790 oh        1 2GS     -0.602800
     10 O4          1.0060    0.5950    1.8010 oh        1 2GS     -0.606800
     11 O5         -2.3760   -0.6850    1.1030 os        1 2GS     -0.441600
     12 O6         -2.0680   -1.2560    3.9020 oh        1 2GS     -0.595800
     13 H1         -3.4020    0.9900    1.8770 h2        1 2GS      0.091700
     14 H2         -2.7140    2.5840    0.1740 h1        1 2GS      0.080700
     15 H3         -0.1150    2.3130    0.0940 h1        1 2GS      0.054700
     16 H4          0.0960   -0.0880    0.0440 h1        1 2GS      0.067700
     17 H5         -0.7240   -1.6600    1.6770 h1        1 2GS      0.084700
     18 H61        -1.7790    0.7420    3.3640 h1        1 2GS      0.061200
     19 H62        -0.3060   -0.2720    3.7670 h1        1 2GS      0.061200
     20 H71        -1.8260    1.6220   -3.1270 h1        1 2GS      0.040033
     21 H72        -1.0360    2.7920   -1.9500 h1        1 2GS      0.040033
     22 H73        -2.8560    2.7950   -2.1540 h1        1 2GS      0.040033
     23 HO1        -3.8610   -0.2750   -0.6290 ho        1 2GS      0.432000
     24 HO3        -0.1310    2.4630    2.4520 ho        1 2GS      0.429000
     25 HO4         1.4050   -0.2650    1.9770 ho        1 2GS      0.416000
     26 HO6        -2.8790   -1.3710    3.3880 ho        1 2GS      0.413000
     27 C7         -1.9350    2.1610   -2.1520 c3        1 2GS      0.113700
@<TRIPOS>BOND
     1    1    2 1   
     2    1    7 1   
     3    1   11 1   
     4    1   13 1   
     5    2    3 1   
     6    2    8 1   
     7    2   14 1   
     8    3    4 1   
     9    3    9 1   
    10    3   15 1   
    11    4    5 1   
    12    4   10 1   
    13    4   16 1   
    14    5    6 1   
    15    5   11 1   
    16    5   17 1   
    17    6   12 1   
    18    6   18 1   
    19    6   19 1   
    20    7   23 1   
    21    8   27 1   
    22    9   24 1   
    23   10   25 1   
    24   12   26 1   
    25   20   27 1   
    26   21   27 1   
    27   22   27 1   
@<TRIPOS>SUBSTRUCTURE
     1 2GS         1 TEMP              0 ****  ****    0 ROOT
