@<TRIPOS>MOLECULE
2GT
   40    39     1     0     0
SMALL
bcc


@<TRIPOS>ATOM
      1 P           0.1680   -4.9950    0.3970 p3        1 2GT      2.521000
      2 OP1         0.1740   -6.1590   -0.5660 o         1 2GT     -1.248500
      3 OP2         1.5170   -4.8830    1.0560 os        1 2GT     -1.215000
      4 O5'        -0.1450   -3.6620   -0.3920 os        1 2GT     -0.736000
      5 C5'        -0.0770   -2.4320    0.3040 c3        1 2GT      0.074000
      6 C4'        -1.0720   -1.5820   -0.1610 c3        1 2GT     -0.037000
      7 O4'        -1.5220   -0.6290    0.9520 os        1 2GT     -0.274000
      8 C1'        -1.0300    0.5410    0.6200 c3        1 2GT      0.157000
      9 N1          0.2540    0.7270    1.2290 n         1 2GT     -0.257000
     10 C6          1.1820    1.6580    0.6650 c2        1 2GT      0.075000
     11 C2          0.5540    0.0830    2.5100 c2        1 2GT      0.384000
     12 O2         -0.2910   -0.5990    3.0600 o         1 2GT     -0.440000
     13 N3          1.8690    0.2700    3.1400 n         1 2GT     -0.377000
     14 C4          2.7920    1.2150    2.5980 c2        1 2GT      0.354000
     15 O4          3.8080    1.4990    3.2130 o         1 2GT     -0.421000
     16 C5          2.4680    1.9250    1.3490 c2        1 2GT     -0.275000
     17 C5M         3.4000    3.0180    0.8260 c3        1 2GT     -0.164000
     18 C2'        -0.8880    0.5350   -0.9770 c3        1 2GT     -0.014000
     19 O2'        -2.1800    0.8550   -1.6020 os        1 2GT     -0.265000
     20 CB'        -2.1660    2.0650   -2.3730 c3        1 2GT      0.073000
     21 CC'        -3.5240    2.2700   -3.0200 c1        1 2GT     -0.156000
     22 CD'        -4.5910    2.4300   -3.5290 c1        1 2GT     -0.258000
     23 C3'        -0.5180   -0.6720   -1.3010 c3        1 2GT     -0.024000
     24 O3'        -1.1110   -1.0610   -2.6010 oh        1 2GT     -0.381000
     25 OP3        -0.8920   -5.2170    1.4500 o         1 2GT     -1.248500
     26 H5'        -0.2040   -2.5920    1.2640 h1        1 2GT      0.044500
     27 H5''        0.7980   -2.0210    0.1550 h1        1 2GT      0.044500
     28 H4'        -1.8380   -2.1040   -0.4870 h1        1 2GT      0.066000
     29 H1'        -1.6460    1.2600    0.9010 h2        1 2GT      0.145000
     30 H6          0.9660    2.1200   -0.1640 h4        1 2GT      0.315000
     31 HN3         2.0780   -0.1860    3.9060 hn        1 2GT      0.231000
     32 H71         4.3060    2.6530    0.7180 hc        1 2GT      0.095667
     33 H72         3.0720    3.3410   -0.0410 hc        1 2GT      0.095667
     34 H73         3.4210    3.7640    1.4660 hc        1 2GT      0.095667
     35 H2'        -0.2120    1.1780   -1.2550 h1        1 2GT      0.109000
     36 HB'1       -1.9680    2.8220   -1.7870 h1        1 2GT      0.118500
     37 HB'2       -1.4810    2.0020   -3.0660 h1        1 2GT      0.118500
     38 HD'        -5.4640    2.5600   -3.9460 DU        1 2GT      0.205000
     39 H3'         0.4550   -0.7310   -1.3390 h1        1 2GT      0.192000
     40 HO3'       -0.4610   -1.2660   -3.1750 ho        1 2GT      0.279000
@<TRIPOS>BOND
     1    1    2 1   
     2    1    4 1   
     3    1   25 1   
     4    4    5 1   
     5    5    6 1   
     6    5   26 1   
     7    5   27 1   
     8    6    7 1   
     9    6   23 1   
    10    6   28 1   
    11    7    8 1   
    12    8    9 1   
    13    8   18 1   
    14    8   29 1   
    15    9   10 1   
    16    9   11 1   
    17   10   16 1   
    18   10   30 1   
    19   11   12 1   
    20   11   13 1   
    21   13   14 1   
    22   13   31 1   
    23   14   15 1   
    24   14   16 1   
    25   16   17 1   
    26   17   32 1   
    27   17   33 1   
    28   17   34 1   
    29   18   19 1   
    30   18   23 1   
    31   18   35 1   
    32   19   20 1   
    33   20   21 1   
    34   20   36 1   
    35   20   37 1   
    36   21   22 1   
    37   23   24 1   
    38   23   39 1   
    39   24   40 1   
@<TRIPOS>SUBSTRUCTURE
     1 2GT         1 TEMP              0 ****  ****    0 ROOT
