@<TRIPOS>MOLECULE
2GT
   40    41     1     0     0
SMALL
bcc


@<TRIPOS>ATOM
      1 P           4.0450   -0.5950   -3.5800 p5        1 2GT      1.428800
      2 OP1         5.4500   -0.9490   -3.8790 o         1 2GT     -0.843000
      3 OP2         3.5560    0.1390   -4.9580 oh        1 2GT     -0.780400
      4 O5'         4.0660    0.7370   -2.6080 os        1 2GT     -0.584200
      5 C5'         2.8460    1.1670   -2.0820 c3        1 2GT      0.183400
      6 C4'         2.8450    0.9970   -0.5530 c3        1 2GT      0.090100
      7 O4'         2.2400    2.1430    0.0630 os        1 2GT     -0.433600
      8 C1'         1.0080    1.8020    0.7360 c3        1 2GT      0.333500
      9 N1         -0.0860    2.6590    0.3260 n         1 2GT     -0.320400
     10 C6         -0.9570    2.2610   -0.6590 c1        1 2GT     -0.085900
     11 C2         -0.1940    3.9240    0.9640 c         1 2GT      0.723100
     12 O2          0.5490    4.3030    1.9110 o         1 2GT     -0.707100
     13 N3         -1.2210    4.7790    0.5360 n         1 2GT     -0.595500
     14 C4         -2.1450    4.4230   -0.4780 c         1 2GT      0.676300
     15 O4         -3.0120    5.2910   -0.7580 o         1 2GT     -0.723100
     16 C5         -1.9810    3.1090   -1.0560 ce        1 2GT     -0.497500
     17 C5M        -2.9370    2.6920   -2.0960 c3        1 2GT      0.044100
     18 C2'         0.7550    0.2870    0.4740 c3        1 2GT      0.069100
     19 O2'         0.4620   -0.2820    1.7540 os        1 2GT     -0.416600
     20 CB'        -0.0480   -1.6140    1.6290 c3        1 2GT      0.193500
     21 CC'        -0.4010   -2.0990    2.9390 c1        1 2GT     -0.086100
     22 CD'        -0.7010   -2.5280    4.0150 c1        1 2GT     -0.206500
     23 C3'         2.0870   -0.2560   -0.0850 c3        1 2GT      0.076100
     24 O3'         2.8080   -0.9670    0.9060 oh        1 2GT     -0.600800
     25 OP3         2.9840   -1.4970   -3.0880 o         1 2GT     -0.843000
     26 H5'         2.7340    2.2640   -2.3090 h1        1 2GT      0.046200
     27 H5''        1.9960    0.5960   -2.5460 h1        1 2GT      0.046200
     28 H4'         3.9070    0.9820   -0.1800 h1        1 2GT      0.070700
     29 H1'         1.2110    1.9910    1.8350 h2        1 2GT      0.078700
     30 H6          4.2950    0.4540   -5.4650 ho        1 2GT      0.418000
     31 HN3        -1.2830    5.6690    0.9700 hn        1 2GT      0.300500
     32 H71        -2.6040    1.7370   -2.5720 hc        1 2GT      0.001033
     33 H72        -3.0290    3.4770   -2.8890 hc        1 2GT      0.001033
     34 H73        -3.9580    2.5340   -1.6630 hc        1 2GT      0.001033
     35 H2'        -0.0910    0.1280   -0.2490 h1        1 2GT      0.128700
     36 HB'1       -0.9570   -1.6080    0.9630 h1        1 2GT      0.064200
     37 HB'2        0.7520   -2.2650    1.1710 h1        1 2GT      0.064200
     38 HD'        -0.9670   -2.9040    4.9670 ha        1 2GT      0.146500
     39 H3'         1.9480   -0.9970   -0.9230 h1        1 2GT      0.146700
     40 HO3'        2.8360   -0.4040    1.6900 ho        1 2GT      0.393000
@<TRIPOS>BOND
     1    1    2 1   
     2    1    3 1   
     3    1    4 1   
     4    1   25 1   
     5    3   30 1   
     6    4    5 1   
     7    5    6 1   
     8    5   26 1   
     9    5   27 1   
    10    6    7 1   
    11    6   23 1   
    12    6   28 1   
    13    7    8 1   
    14    8    9 1   
    15    8   18 1   
    16    8   29 1   
    17    9   10 2   
    18    9   11 1   
    19   10   16 2   
    20   11   12 2   
    21   11   13 1   
    22   13   14 1   
    23   13   31 1   
    24   14   15 2   
    25   14   16 1   
    26   16   17 1   
    27   17   32 1   
    28   17   33 1   
    29   17   34 1   
    30   18   19 1   
    31   18   23 1   
    32   18   35 1   
    33   19   20 1   
    34   20   21 1   
    35   20   36 1   
    36   20   37 1   
    37   21   22 3   
    38   22   38 1   
    39   23   24 1   
    40   23   39 1   
    41   24   40 1   
@<TRIPOS>SUBSTRUCTURE
     1 2GT         1 TEMP              0 ****  ****    0 ROOT
