@<TRIPOS>MOLECULE
2GU
   58    62     1     0     0
SMALL
bcc


@<TRIPOS>ATOM
      1 C1          0.3080    0.5260   -0.8960 ca        1 2GU     -0.076000
      2 C2          1.3600   -0.3090   -0.4690 ca        1 2GU     -0.241600
      3 C3          2.3080    0.0820    0.5420 ca        1 2GU      0.510200
      4 N1          3.2970   -0.6990    0.9450 nb        1 2GU     -0.675000
      5 C4          3.3630   -1.9510    0.3150 ca        1 2GU      0.696900
      6 N2          4.4840   -2.8250    0.7750 n4        1 2GU     -0.814300
      7 N3          2.5540   -2.4440   -0.6340 nb        1 2GU     -0.626000
      8 C5          1.5240   -1.6120   -1.0420 ca        1 2GU      0.419600
      9 C6          0.6040   -2.0400   -2.0450 ca        1 2GU     -0.141300
     10 C7         -0.4150   -1.2020   -2.4370 ca        1 2GU     -0.082000
     11 C8         -0.5770    0.0890   -1.8700 cp        1 2GU     -0.012000
     12 C9         -1.6730    0.9490   -2.3200 cp        1 2GU     -0.068000
     13 C10        -2.9540    0.4230   -2.5030 ca        1 2GU     -0.018000
     14 C11        -1.4500    2.3140   -2.5620 ca        1 2GU     -0.027000
     15 C12        -2.4900    3.1390   -2.9710 ca        1 2GU     -0.149000
     16 C13        -3.7830    2.6110   -3.1480 ca        1 2GU      0.190900
     17 F1         -4.7770    3.4490   -3.5230 f         1 2GU     -0.128900
     18 C14        -4.0260    1.2360   -2.9190 ca        1 2GU     -0.215600
     19 C15        -5.3220    0.5570   -3.0290 c         1 2GU      0.578700
     20 O1         -5.6020   -0.5360   -2.5480 o         1 2GU     -0.430100
     21 N4         -6.4540    1.2090   -3.7900 n4        1 2GU     -0.539200
     22 C16        -6.4200    0.8710   -5.2210 ca        1 2GU     -0.023400
     23 C17        -6.6790   -0.4520   -5.6090 ca        1 2GU     -0.191000
     24 C18        -6.1700    1.8740   -6.1630 ca        1 2GU     -0.143000
     25 C19        -6.2100    1.5420   -7.5190 ca        1 2GU     -0.073000
     26 C20        -6.4790    0.2480   -7.9530 ca        1 2GU     -0.063300
     27 C21        -6.7030   -0.7790   -6.9830 ca        1 2GU      0.129600
     28 N5         -6.9400   -2.0850   -7.3770 n         1 2GU     -0.477100
     29 C22        -6.7650   -2.5130   -8.7050 c         1 2GU      0.703500
     30 O2         -7.0340   -3.6890   -8.9760 o         1 2GU     -0.557500
     31 C23        -6.2100   -1.5240   -9.6950 c3        1 2GU     -0.150400
     32 C24        -6.6040   -0.0720   -9.4180 c3        1 2GU     -0.009700
     33 C25        -5.7010    0.8190  -10.2670 c3        1 2GU     -0.096600
     34 C26        -8.0560    0.1510   -9.8400 c3        1 2GU     -0.096600
     35 H1          0.1970    1.5230   -0.4380 ha        1 2GU      0.164000
     36 H2          2.2380    1.0770    1.0300 h4        1 2GU      0.075100
     37 H3          5.3760   -2.3430    0.5980 hn        1 2GU      0.485467
     38 H4          4.3830   -2.9920    1.7850 hn        1 2GU      0.485467
     39 H5          0.7180   -3.0390   -2.5000 ha        1 2GU      0.184000
     40 H6         -1.1210   -1.5340   -3.2190 ha        1 2GU      0.164000
     41 H7         -3.1440   -0.6490   -2.3060 ha        1 2GU      0.177000
     42 H8         -0.4390    2.7400   -2.4320 ha        1 2GU      0.171000
     43 H9         -2.3180    4.2140   -3.1580 ha        1 2GU      0.192000
     44 H10        -6.4200    2.2330   -3.6820 hn        1 2GU      0.474300
     45 H11        -6.8670   -1.2330   -4.8530 ha        1 2GU      0.163000
     46 H12        -5.9570    2.9130   -5.8650 ha        1 2GU      0.158000
     47 H13        -6.0350    2.3440   -8.2590 ha        1 2GU      0.174000
     48 H14        -7.2590   -2.7470   -6.7020 hn        1 2GU      0.342500
     49 H15        -5.0900   -1.6300   -9.6820 hc        1 2GU      0.100700
     50 H16        -6.5680   -1.8200  -10.7190 hc        1 2GU      0.100700
     51 H17        -4.6680    0.8510   -9.8450 hc        1 2GU      0.054700
     52 H18        -5.6500    0.4180  -11.3090 hc        1 2GU      0.054700
     53 H19        -6.1080    1.8580  -10.3200 hc        1 2GU      0.054700
     54 H20        -8.7330   -0.5580   -9.3080 hc        1 2GU      0.054700
     55 H21        -8.3700    1.1970   -9.6050 hc        1 2GU      0.054700
     56 H22        -8.1580   -0.0130  -10.9400 hc        1 2GU      0.054700
     57 H23         4.4700   -3.7230    0.2720 hn        1 2GU      0.485467
     58 H42        -7.3460    0.8590   -3.4050 hn        1 2GU      0.474300
@<TRIPOS>BOND
     1    1    2 ar  
     2    1   11 ar  
     3    1   35 1   
     4    2    3 ar  
     5    2    8 ar  
     6    3    4 ar  
     7    3   36 1   
     8    4    5 ar  
     9    5    6 1   
    10    5    7 ar  
    11    6   37 1   
    12    6   38 1   
    13    6   57 1   
    14    7    8 ar  
    15    8    9 ar  
    16    9   10 ar  
    17    9   39 1   
    18   10   11 ar  
    19   10   40 1   
    20   11   12 1   
    21   12   13 ar  
    22   12   14 ar  
    23   13   18 ar  
    24   13   41 1   
    25   14   15 ar  
    26   14   42 1   
    27   15   16 ar  
    28   15   43 1   
    29   16   17 1   
    30   16   18 ar  
    31   18   19 1   
    32   19   20 2   
    33   19   21 1   
    34   21   22 1   
    35   21   44 1   
    36   21   58 1   
    37   22   23 ar  
    38   22   24 ar  
    39   23   27 ar  
    40   23   45 1   
    41   24   25 ar  
    42   24   46 1   
    43   25   26 ar  
    44   25   47 1   
    45   26   27 ar  
    46   26   32 1   
    47   27   28 1   
    48   28   29 1   
    49   28   48 1   
    50   29   30 2   
    51   29   31 1   
    52   31   32 1   
    53   31   49 1   
    54   31   50 1   
    55   32   33 1   
    56   32   34 1   
    57   33   51 1   
    58   33   52 1   
    59   33   53 1   
    60   34   54 1   
    61   34   55 1   
    62   34   56 1   
@<TRIPOS>SUBSTRUCTURE
     1 2GU         1 TEMP              0 ****  ****    0 ROOT
