@<TRIPOS>MOLECULE
2GU
   56    47     1     0     0
SMALL
bcc


@<TRIPOS>ATOM
      1 C1          5.2580    0.0920    1.9990 c1        1 2GU     -0.057000
      2 C2          6.6660    0.1490    2.1170 c1        1 2GU     -0.194000
      3 C3          7.2550    0.2750    3.3650 c2        1 2GU      0.025000
      4 N1          8.5950    0.3400    3.4740 n1        1 2GU     -0.204000
      5 C4          9.3780    0.2810    2.3510 c1        1 2GU      0.161000
      6 N2         10.7280    0.4180    2.7770 n2        1 2GU     -0.331000
      7 N3          8.7990    0.1570    1.1170 n1        1 2GU     -0.237000
      8 C5          7.4440    0.0910    1.0030 c1        1 2GU     -0.013000
      9 C6          6.8450   -0.0260   -0.2720 c1        1 2GU     -0.096000
     10 C7          5.4620   -0.0820   -0.3870 c1        1 2GU     -0.096000
     11 C8          4.6700   -0.0230    0.7470 c1        1 2GU     -0.013000
     12 C9          3.3940   -0.8340    0.6540 c1        1 2GU     -0.013000
     13 C10         2.1940   -0.2060    0.3520 c1        1 2GU     -0.050000
     14 C11         3.4380   -2.2130    0.7980 c1        1 2GU     -0.096000
     15 C12         2.2820   -2.9650    0.6410 c1        1 2GU     -0.169000
     16 C13         1.0820   -2.3370    0.3400 c1        1 2GU      0.112000
     17 F1         -0.0460   -3.0550    0.2570 f         1 2GU     -0.103000
     18 C14         1.0380   -0.9580    0.1950 c2        1 2GU     -0.159000
     19 C15        -0.2830   -0.2680   -0.0990 c2        1 2GU      0.360000
     20 O1         -0.3260    0.9420   -0.1960 o         1 2GU     -0.343000
     21 N4         -1.4450   -1.0460   -0.3750 n         1 2GU     -0.314000
     22 C16        -2.6480   -0.4060   -0.7620 c2        1 2GU      0.112000
     23 C17        -3.4430    0.2280    0.2060 c2        1 2GU     -0.209000
     24 C18        -3.1300   -0.5520   -2.0950 c1        1 2GU     -0.213000
     25 C19        -4.4010   -0.0620   -2.4420 c1        1 2GU     -0.066000
     26 C20        -5.1880    0.5640   -1.4880 c1        1 2GU     -0.141000
     27 C21        -4.7010    0.7130   -0.1350 c2        1 2GU      0.113000
     28 N5         -5.6120    1.3200    0.8760 n3        1 2GU     -0.325000
     29 C22        -6.7920    1.8420    0.4380 c1        1 2GU      0.311000
     30 O2         -7.3520    2.7070    1.0850 o         1 2GU     -0.353000
     31 C23        -7.5240    1.1250   -0.6260 c2        1 2GU     -0.174000
     32 C24        -6.6940    0.8700   -1.7640 c2        1 2GU      0.001000
     33 C25        -6.7640    2.0830   -2.6730 c3        1 2GU     -0.206500
     34 C26        -7.2800   -0.3120   -2.5120 c3        1 2GU     -0.206500
     35 H1          4.7000    0.1340    2.7980 ha        1 2GU      0.136000
     36 H2          6.6980    0.3170    4.1650 h4        1 2GU      0.165000
     37 H3         10.9130    0.7090    3.6220 hn        1 2GU      0.230500
     38 H4         11.4110    0.2020    2.2090 hn        1 2GU      0.230500
     39 H5          7.4030   -0.0680   -1.0710 ha        1 2GU      0.147333
     40 H6          5.0490   -0.1620   -1.2660 ha        1 2GU      0.147333
     41 H7          2.1630    0.7610    0.2510 ha        1 2GU      0.167000
     42 H8          4.2810   -2.6540    1.0100 ha        1 2GU      0.147333
     43 H9          2.3130   -3.9340    0.7430 ha        1 2GU      0.156000
     44 H10        -1.3920   -1.9320   -0.3840 hn        1 2GU      0.240000
     45 H11        -3.1140    0.3270    1.1190 ha        1 2GU      0.177000
     46 H12        -2.5840   -1.0080   -2.7630 ha        1 2GU      0.134000
     47 H13        -4.7290   -0.1630   -3.3560 ha        1 2GU      0.137000
     48 H14        -5.2940    1.5410    1.7030 hn        1 2GU      0.249000
     49 H15        -8.3920    1.4790   -0.9000 ha        1 2GU      0.120500
     50 H16        -7.7680    0.2660   -0.2210 ha        1 2GU      0.120500
     51 H17        -6.2360    1.9150   -3.4840 hc        1 2GU      0.080333
     52 H18        -6.4030    2.8650   -2.2030 hc        1 2GU      0.080333
     53 H19        -7.6980    2.2530   -2.9200 hc        1 2GU      0.080333
     54 H20        -8.2560   -0.2270   -2.5450 hc        1 2GU      0.080333
     55 H21        -6.9230   -0.3310   -3.4230 hc        1 2GU      0.080333
     56 H22        -7.0410   -1.1410   -2.0500 hc        1 2GU      0.080333
@<TRIPOS>BOND
     1    1    2 1   
     2    1   35 1   
     3    2    3 1   
     4    3    4 1   
     5    3   36 1   
     6    5    7 1   
     7    6   37 1   
     8    6   38 1   
     9    8    9 1   
    10    9   39 1   
    11   10   11 1   
    12   10   40 1   
    13   12   14 1   
    14   13   18 1   
    15   13   41 1   
    16   14   42 1   
    17   15   16 1   
    18   15   43 1   
    19   16   18 1   
    20   18   19 1   
    21   19   20 1   
    22   19   21 1   
    23   21   22 1   
    24   21   44 1   
    25   22   23 1   
    26   22   24 1   
    27   23   27 1   
    28   23   45 1   
    29   24   46 1   
    30   25   26 1   
    31   25   47 1   
    32   26   27 1   
    33   27   28 1   
    34   28   29 1   
    35   28   48 1   
    36   29   30 1   
    37   31   32 1   
    38   31   49 1   
    39   31   50 1   
    40   32   33 1   
    41   32   34 1   
    42   33   51 1   
    43   33   52 1   
    44   33   53 1   
    45   34   54 1   
    46   34   55 1   
    47   34   56 1   
@<TRIPOS>SUBSTRUCTURE
     1 2GU         1 TEMP              0 ****  ****    0 ROOT
