@<TRIPOS>MOLECULE
2GU
   56    60     1     0     0
SMALL
bcc


@<TRIPOS>ATOM
      1 C1         -5.1340    0.8280    0.2390 ca        1 2GU     -0.057000
      2 C2         -6.1690   -0.0980    0.4800 ca        1 2GU     -0.323600
      3 C3         -7.4470    0.2760    1.0200 ca        1 2GU      0.490200
      4 N1         -8.4230   -0.5760    1.2440 nb        1 2GU     -0.729000
      5 C4         -8.1640   -1.9350    0.9130 ca        1 2GU      0.878900
      6 N2         -9.2280   -2.8230    1.0530 nh        1 2GU     -0.930500
      7 N3         -6.9800   -2.4100    0.4260 nb        1 2GU     -0.763000
      8 C5         -5.9860   -1.4880    0.2020 ca        1 2GU      0.471600
      9 C6         -4.7180   -1.9020   -0.3220 ca        1 2GU     -0.190300
     10 C7         -3.7280   -0.9800   -0.5420 ca        1 2GU     -0.087000
     11 C8         -3.9200    0.4030   -0.2670 cp        1 2GU     -0.071000
     12 C9         -2.8380    1.3500   -0.5200 cp        1 2GU     -0.047000
     13 C10        -1.5160    1.0220   -0.1960 ca        1 2GU     -0.075000
     14 C11        -3.1100    2.6040   -1.0890 ca        1 2GU     -0.080000
     15 C12        -2.0890    3.5140   -1.3300 ca        1 2GU     -0.170000
     16 C13        -0.7600    3.1830   -0.9980 ca        1 2GU      0.173900
     17 F1          0.2270    4.0720   -1.2420 f         1 2GU     -0.119900
     18 C14        -0.4780    1.9260   -0.4240 ca        1 2GU     -0.185600
     19 C15         0.9160    1.5750   -0.0110 c         1 2GU      0.687700
     20 O1          1.5060    2.2030    0.8820 o         1 2GU     -0.560100
     21 N4          1.4640    0.4940   -0.6910 n         1 2GU     -0.468100
     22 C16         2.7470   -0.0570   -0.5360 ca        1 2GU      0.103600
     23 C17         3.6610    0.3910    0.4320 ca        1 2GU     -0.210000
     24 C18         3.1250   -1.1180   -1.3950 ca        1 2GU     -0.217000
     25 C19         4.3750   -1.7060   -1.2700 ca        1 2GU     -0.065000
     26 C20         5.2980   -1.2790   -0.3150 ca        1 2GU     -0.149300
     27 C21         4.9320   -0.2130    0.5450 ca        1 2GU      0.107600
     28 N5          5.8220    0.2480    1.5210 n         1 2GU     -0.471100
     29 C22         7.1630   -0.1150    1.5260 c         1 2GU      0.703500
     30 O2          7.9030    0.3070    2.4320 o         1 2GU     -0.627500
     31 C23         7.6690   -0.9780    0.3960 c3        1 2GU     -0.145400
     32 C24         6.6280   -1.9570   -0.1520 c3        1 2GU      0.008300
     33 C25         7.1540   -2.4860   -1.4840 c3        1 2GU     -0.088600
     34 C26         6.4740   -3.1280    0.8160 c3        1 2GU     -0.088600
     35 H1         -5.3060    1.8910    0.4690 ha        1 2GU      0.138000
     36 H2         -7.6450    1.3350    1.2750 h4        1 2GU      0.029100
     37 H3         -9.9920   -2.5360    1.6170 hn        1 2GU      0.434300
     38 H4         -9.0180   -3.7930    1.0330 hn        1 2GU      0.434300
     39 H5         -4.5550   -2.9680   -0.5460 ha        1 2GU      0.155000
     40 H6         -2.7570   -1.3040   -0.9510 ha        1 2GU      0.135000
     41 H7         -1.2940    0.0460    0.2660 ha        1 2GU      0.150000
     42 H8         -4.1470    2.8690   -1.3530 ha        1 2GU      0.146000
     43 H9         -2.3030    4.4960   -1.7770 ha        1 2GU      0.157000
     44 H10         0.9110    0.0920   -1.4160 hn        1 2GU      0.321500
     45 H11         3.3930    1.2200    1.1100 ha        1 2GU      0.178000
     46 H12         2.4350   -1.4880   -2.1670 ha        1 2GU      0.131000
     47 H13         4.6380   -2.5350   -1.9460 ha        1 2GU      0.137000
     48 H14         5.4900    0.8900    2.2060 hn        1 2GU      0.335500
     49 H15         8.0080   -0.2860   -0.4220 hc        1 2GU      0.082200
     50 H16         8.5650   -1.5440    0.7630 hc        1 2GU      0.082200
     51 H17         7.0730   -1.7030   -2.2750 hc        1 2GU      0.041367
     52 H18         8.2270   -2.7800   -1.3780 hc        1 2GU      0.041367
     53 H19         6.5780   -3.3860   -1.8050 hc        1 2GU      0.041367
     54 H20         5.6840   -3.8260    0.4500 hc        1 2GU      0.041367
     55 H21         7.4380   -3.6860    0.8980 hc        1 2GU      0.041367
     56 H22         6.1850   -2.7590    1.8280 hc        1 2GU      0.041367
@<TRIPOS>BOND
     1    1    2 ar  
     2    1   11 ar  
     3    1   35 1   
     4    2    3 ar  
     5    2    8 ar  
     6    3    4 ar  
     7    3   36 1   
     8    4    5 ar  
     9    5    6 1   
    10    5    7 ar  
    11    6   37 1   
    12    6   38 1   
    13    7    8 ar  
    14    8    9 ar  
    15    9   10 ar  
    16    9   39 1   
    17   10   11 ar  
    18   10   40 1   
    19   11   12 1   
    20   12   13 ar  
    21   12   14 ar  
    22   13   18 ar  
    23   13   41 1   
    24   14   15 ar  
    25   14   42 1   
    26   15   16 ar  
    27   15   43 1   
    28   16   17 1   
    29   16   18 ar  
    30   18   19 1   
    31   19   20 2   
    32   19   21 1   
    33   21   22 1   
    34   21   44 1   
    35   22   23 ar  
    36   22   24 ar  
    37   23   27 ar  
    38   23   45 1   
    39   24   25 ar  
    40   24   46 1   
    41   25   26 ar  
    42   25   47 1   
    43   26   27 ar  
    44   26   32 1   
    45   27   28 1   
    46   28   29 1   
    47   28   48 1   
    48   29   30 2   
    49   29   31 1   
    50   31   32 1   
    51   31   49 1   
    52   31   50 1   
    53   32   33 1   
    54   32   34 1   
    55   33   51 1   
    56   33   52 1   
    57   33   53 1   
    58   34   54 1   
    59   34   55 1   
    60   34   56 1   
@<TRIPOS>SUBSTRUCTURE
     1 2GU         1 TEMP              0 ****  ****    0 ROOT
