@<TRIPOS>MOLECULE
2GU
   56    60     1     0     0
SMALL
bcc


@<TRIPOS>ATOM
      1 C1          0.0140    0.2910   -0.0690 ca        1 2GU     -0.057000
      2 C2          1.4150    0.4510   -0.0990 ca        1 2GU     -0.323600
      3 C3          2.1640    1.0070    0.9930 ca        1 2GU      0.490200
      4 N1          3.4700    1.1570    0.9820 nb        1 2GU     -0.729000
      5 C4          4.1460    0.7250   -0.1940 ca        1 2GU      0.878900
      6 N2          5.5370    0.7860   -0.1700 nv        1 2GU     -0.930500
      7 N3          3.5350    0.2120   -1.3030 nb        1 2GU     -0.763000
      8 C5          2.1700    0.0680   -1.2500 ca        1 2GU      0.471600
      9 C6          1.4540   -0.4760   -2.3670 ca        1 2GU     -0.190300
     10 C7          0.0920   -0.6160   -2.3110 ca        1 2GU     -0.087000
     11 C8         -0.6520   -0.2370   -1.1600 cp        1 2GU     -0.071000
     12 C9         -2.1020   -0.4070   -1.1440 cp        1 2GU     -0.047000
     13 C10        -2.8650   -0.0990   -2.2770 ca        1 2GU     -0.075000
     14 C11        -2.7500   -0.8790    0.0090 ca        1 2GU     -0.080000
     15 C12        -4.1280   -1.0410    0.0350 ca        1 2GU     -0.170000
     16 C13        -4.8950   -0.7250   -1.1050 ca        1 2GU      0.173900
     17 F1         -6.2350   -0.8930   -1.0710 f         1 2GU     -0.119900
     18 C14        -4.2530   -0.2490   -2.2660 ca        1 2GU     -0.185600
     19 C15        -5.0510    0.1470   -3.4680 c         1 2GU      0.687700
     20 O1         -5.8570    1.0900   -3.4300 o         1 2GU     -0.560100
     21 N4         -4.7950   -0.6090   -4.6050 ns        1 2GU     -0.468100
     22 C16        -5.3930   -0.4880   -5.8690 ca        1 2GU      0.103600
     23 C17        -6.3230    0.5170   -6.1840 ca        1 2GU     -0.210000
     24 C18        -5.0300   -1.4210   -6.8710 ca        1 2GU     -0.217000
     25 C19        -5.5810   -1.3330   -8.1410 ca        1 2GU     -0.065000
     26 C20        -6.5040   -0.3420   -8.4760 ca        1 2GU     -0.149300
     27 C21        -6.8790    0.5930   -7.4790 ca        1 2GU      0.107600
     28 N5         -7.7990    1.6070   -7.7680 ns        1 2GU     -0.471100
     29 C22        -8.5720    1.5930   -8.9220 c         1 2GU      0.703500
     30 O2         -9.3580    2.5340   -9.1380 o         1 2GU     -0.627500
     31 C23        -8.4500    0.4050   -9.8450 c3        1 2GU     -0.145400
     32 C24        -7.0540   -0.2220   -9.8690 c3        1 2GU      0.008300
     33 C25        -7.1770   -1.5860  -10.5430 c3        1 2GU     -0.088600
     34 C26        -6.1190    0.6550  -10.6990 c3        1 2GU     -0.088600
     35 H1         -0.5380    0.6010    0.8320 ha        1 2GU      0.138000
     36 H2          1.6350    1.3420    1.9070 h4        1 2GU      0.029100
     37 H3          6.0120    0.6930   -1.0370 hn        1 2GU      0.434300
     38 H4          5.9570    1.3650    0.5180 hn        1 2GU      0.434300
     39 H5          2.0160   -0.7790   -3.2640 ha        1 2GU      0.155000
     40 H6         -0.4510   -1.0410   -3.1710 ha        1 2GU      0.135000
     41 H7         -2.3680    0.2870   -3.1810 ha        1 2GU      0.150000
     42 H8         -2.1560   -1.1290    0.9020 ha        1 2GU      0.146000
     43 H9         -4.6350   -1.4120    0.9380 ha        1 2GU      0.157000
     44 H10        -4.1550   -1.3670   -4.5050 hn        1 2GU      0.321500
     45 H11        -6.6260    1.2540   -5.4200 ha        1 2GU      0.178000
     46 H12        -4.3090   -2.2240   -6.6560 ha        1 2GU      0.131000
     47 H13        -5.2720   -2.0670   -8.9020 ha        1 2GU      0.137000
     48 H14        -7.9320    2.3360   -7.1030 hn        1 2GU      0.335500
     49 H15        -8.7350    0.7350  -10.8780 hc        1 2GU      0.082200
     50 H16        -9.2030   -0.3570   -9.5040 hc        1 2GU      0.082200
     51 H17        -7.6710   -2.3170   -9.8590 hc        1 2GU      0.041367
     52 H18        -6.1700   -1.9770  -10.8240 hc        1 2GU      0.041367
     53 H19        -7.7870   -1.4950  -11.4740 hc        1 2GU      0.041367
     54 H20        -6.0880    1.6900  -10.2840 hc        1 2GU      0.041367
     55 H21        -6.4760    0.7010  -11.7560 hc        1 2GU      0.041367
     56 H22        -5.0860    0.2320  -10.6860 hc        1 2GU      0.041367
@<TRIPOS>BOND
     1    1    2 ar  
     2    1   11 ar  
     3    1   35 1   
     4    2    3 ar  
     5    2    8 ar  
     6    3    4 ar  
     7    3   36 1   
     8    4    5 ar  
     9    5    6 1   
    10    5    7 ar  
    11    6   37 1   
    12    6   38 1   
    13    7    8 ar  
    14    8    9 ar  
    15    9   10 ar  
    16    9   39 1   
    17   10   11 ar  
    18   10   40 1   
    19   11   12 1   
    20   12   13 ar  
    21   12   14 ar  
    22   13   18 ar  
    23   13   41 1   
    24   14   15 ar  
    25   14   42 1   
    26   15   16 ar  
    27   15   43 1   
    28   16   17 1   
    29   16   18 ar  
    30   18   19 1   
    31   19   20 2   
    32   19   21 1   
    33   21   22 1   
    34   21   44 1   
    35   22   23 ar  
    36   22   24 ar  
    37   23   27 ar  
    38   23   45 1   
    39   24   25 ar  
    40   24   46 1   
    41   25   26 ar  
    42   25   47 1   
    43   26   27 ar  
    44   26   32 1   
    45   27   28 1   
    46   28   29 1   
    47   28   48 1   
    48   29   30 2   
    49   29   31 1   
    50   31   32 1   
    51   31   49 1   
    52   31   50 1   
    53   32   33 1   
    54   32   34 1   
    55   33   51 1   
    56   33   52 1   
    57   33   53 1   
    58   34   54 1   
    59   34   55 1   
    60   34   56 1   
@<TRIPOS>SUBSTRUCTURE
     1 2GU         1 TEMP              0 ****  ****    0 ROOT
