@<TRIPOS>MOLECULE
2GU
   56    60     1     0     0
SMALL
bcc


@<TRIPOS>ATOM
      1 C1          0.0090    0.2780   -0.0690 ca        1 2GU     -0.056000
      2 C2          1.4090    0.4400   -0.1000 ca        1 2GU     -0.323600
      3 C3          2.1610    0.9780    0.9990 ca        1 2GU      0.490200
      4 N1          3.4660    1.1390    0.9830 nb        1 2GU     -0.729000
      5 C4          4.1350    0.7560   -0.2130 ca        1 2GU      0.879900
      6 N2          5.5010    1.0160   -0.2730 nh        1 2GU     -0.933500
      7 N3          3.5280    0.2090   -1.3090 nb        1 2GU     -0.764000
      8 C5          2.1640    0.0620   -1.2540 ca        1 2GU      0.471600
      9 C6          1.4480   -0.4860   -2.3680 ca        1 2GU     -0.191300
     10 C7          0.0860   -0.6290   -2.3110 ca        1 2GU     -0.087000
     11 C8         -0.6570   -0.2500   -1.1590 cp        1 2GU     -0.072000
     12 C9         -2.1080   -0.4210   -1.1430 cp        1 2GU     -0.047000
     13 C10        -2.8720   -0.1120   -2.2740 ca        1 2GU     -0.075000
     14 C11        -2.7540   -0.8950    0.0100 ca        1 2GU     -0.080000
     15 C12        -4.1320   -1.0580    0.0370 ca        1 2GU     -0.170000
     16 C13        -4.9000   -0.7420   -1.1020 ca        1 2GU      0.174900
     17 F1         -6.2400   -0.9110   -1.0680 f         1 2GU     -0.119900
     18 C14        -4.2590   -0.2630   -2.2630 ca        1 2GU     -0.185600
     19 C15        -5.0600    0.1340   -3.4630 c         1 2GU      0.687700
     20 O1         -5.8800    1.0650   -3.4170 o         1 2GU     -0.560100
     21 N4         -4.7910   -0.6070   -4.6070 n         1 2GU     -0.468100
     22 C16        -5.3870   -0.4810   -5.8720 ca        1 2GU      0.103600
     23 C17        -6.3340    0.5110   -6.1770 ca        1 2GU     -0.210000
     24 C18        -5.0050   -1.3960   -6.8840 ca        1 2GU     -0.217000
     25 C19        -5.5540   -1.3020   -8.1540 ca        1 2GU     -0.065000
     26 C20        -6.4940   -0.3240   -8.4800 ca        1 2GU     -0.149300
     27 C21        -6.8880    0.5920   -7.4720 ca        1 2GU      0.107600
     28 N5         -7.8250    1.5920   -7.7520 n         1 2GU     -0.471100
     29 C22        -8.5950    1.5780   -8.9090 c         1 2GU      0.703500
     30 O2         -9.3970    2.5070   -9.1160 o         1 2GU     -0.627500
     31 C23        -8.4500    0.4040   -9.8450 c3        1 2GU     -0.145400
     32 C24        -7.0430   -0.1980   -9.8730 c3        1 2GU      0.008300
     33 C25        -7.1380   -1.5550  -10.5630 c3        1 2GU     -0.088600
     34 C26        -6.1210    0.7060  -10.6890 c3        1 2GU     -0.088600
     35 H1         -0.5430    0.5870    0.8320 ha        1 2GU      0.138000
     36 H2          1.6370    1.2780    1.9270 h4        1 2GU      0.029100
     37 H3          6.0200    0.5820   -0.9990 hn        1 2GU      0.435800
     38 H4          5.9730    1.1950    0.5810 hn        1 2GU      0.435800
     39 H5          2.0090   -0.7870   -3.2670 ha        1 2GU      0.155000
     40 H6         -0.4570   -1.0540   -3.1710 ha        1 2GU      0.135000
     41 H7         -2.3760    0.2770   -3.1780 ha        1 2GU      0.151000
     42 H8         -2.1590   -1.1460    0.9020 ha        1 2GU      0.145000
     43 H9         -4.6380   -1.4320    0.9400 ha        1 2GU      0.157000
     44 H10        -4.1390   -1.3550   -4.5140 hn        1 2GU      0.321500
     45 H11        -6.6520    1.2330   -5.4050 ha        1 2GU      0.178000
     46 H12        -4.2700   -2.1880   -6.6760 ha        1 2GU      0.131000
     47 H13        -5.2300   -2.0220   -8.9230 ha        1 2GU      0.136000
     48 H14        -7.9720    2.3110   -7.0790 hn        1 2GU      0.335500
     49 H15        -9.1890   -0.3750   -9.5150 hc        1 2GU      0.082200
     50 H16        -8.7380    0.7400  -10.8750 hc        1 2GU      0.082200
     51 H17        -7.7470   -1.4640  -11.4950 hc        1 2GU      0.041200
     52 H18        -6.1240   -1.9250  -10.8460 hc        1 2GU      0.041200
     53 H19        -7.6210   -2.3030   -9.8900 hc        1 2GU      0.041200
     54 H20        -6.4760    0.7590  -11.7470 hc        1 2GU      0.041200
     55 H21        -5.0810    0.3020  -10.6790 hc        1 2GU      0.041200
     56 H22        -6.1100    1.7370  -10.2610 hc        1 2GU      0.041200
@<TRIPOS>BOND
     1    1    2 ar  
     2    1   11 ar  
     3    1   35 1   
     4    2    3 ar  
     5    2    8 ar  
     6    3    4 ar  
     7    3   36 1   
     8    4    5 ar  
     9    5    6 1   
    10    5    7 ar  
    11    6   37 1   
    12    6   38 1   
    13    7    8 ar  
    14    8    9 ar  
    15    9   10 ar  
    16    9   39 1   
    17   10   11 ar  
    18   10   40 1   
    19   11   12 1   
    20   12   13 ar  
    21   12   14 ar  
    22   13   18 ar  
    23   13   41 1   
    24   14   15 ar  
    25   14   42 1   
    26   15   16 ar  
    27   15   43 1   
    28   16   17 1   
    29   16   18 ar  
    30   18   19 1   
    31   19   20 2   
    32   19   21 1   
    33   21   22 1   
    34   21   44 1   
    35   22   23 ar  
    36   22   24 ar  
    37   23   27 ar  
    38   23   45 1   
    39   24   25 ar  
    40   24   46 1   
    41   25   26 ar  
    42   25   47 1   
    43   26   27 ar  
    44   26   32 1   
    45   27   28 1   
    46   28   29 1   
    47   28   48 1   
    48   29   30 2   
    49   29   31 1   
    50   31   32 1   
    51   31   49 1   
    52   31   50 1   
    53   32   33 1   
    54   32   34 1   
    55   33   51 1   
    56   33   52 1   
    57   33   53 1   
    58   34   54 1   
    59   34   55 1   
    60   34   56 1   
@<TRIPOS>SUBSTRUCTURE
     1 2GU         1 TEMP              0 ****  ****    0 ROOT
