@<TRIPOS>MOLECULE
2GV
   57    61     1     0     0
SMALL
bcc


@<TRIPOS>ATOM
      1 C12        -0.2220    0.1070   -0.2310 ca        1 2GV     -0.115500
      2 C13         1.1320    0.0790   -0.5600 ca        1 2GV     -0.127500
      3 C14         2.0920   -0.0740    0.4410 ca        1 2GV     -0.114000
      4 C15         1.6940   -0.2020    1.7710 ca        1 2GV     -0.127500
      5 C16         0.3390   -0.1810    2.1040 ca        1 2GV     -0.115500
      6 C17        -0.6270   -0.0290    1.1030 ca        1 2GV     -0.116300
      7 C7         -2.0990   -0.0080    1.4060 c3        1 2GV      0.128000
      8 C8         -2.7030   -1.4430    1.6470 c3        1 2GV      0.150800
      9 C9         -1.6900   -2.5670    1.6440 c3        1 2GV     -0.105100
     10 C10        -3.8420   -1.7180    0.6830 c3        1 2GV     -0.105100
     11 O1         -3.2740   -1.3810    2.9950 os        1 2GV     -0.378900
     12 C11        -3.1450   -0.1160    3.5190 c         1 2GV      0.834600
     13 O2         -3.5970    0.0900    4.6440 o         1 2GV     -0.580500
     14 N2         -2.4730    0.7360    2.6130 n         1 2GV     -0.396000
     15 C18        -1.7800    2.8910    1.6940 ca        1 2GV     -0.181500
     16 C19        -2.3480    2.1160    2.7390 ca        1 2GV      0.150600
     17 C20        -2.7790    2.7920    3.9110 ca        1 2GV     -0.181500
     18 C21        -2.6560    4.1680    4.0140 ca        1 2GV     -0.060500
     19 C5         -2.0960    4.9310    2.9750 cp        1 2GV     -0.142000
     20 C22        -1.6570    4.2660    1.8200 ca        1 2GV     -0.060500
     21 C1         -1.9760    6.3690    3.0980 cp        1 2GV     -0.043300
     22 C23        -0.9150    7.0770    2.5180 ca        1 2GV     -0.068000
     23 C24        -0.8250    8.4750    2.6560 cp        1 2GV     -0.173800
     24 C25        -1.8410    9.1070    3.4130 ca        1 2GV      0.431200
     25 N3         -2.8860    8.4400    3.9840 nb        1 2GV     -0.653000
     26 C26        -2.9440    7.1180    3.8250 ca        1 2GV      0.427200
     27 N1          0.8540    8.6310    0.8950 nb        1 2GV     -0.717500
     28 C2          1.9220    9.2520    0.3600 ca        1 2GV      0.448200
     29 C3          2.4770   10.4220    0.9160 ca        1 2GV     -0.323600
     30 C4          1.8430   10.9350    2.0620 ca        1 2GV      0.448200
     31 N5          0.7670   10.3450    2.6170 nb        1 2GV     -0.717500
     32 C6          0.3140    9.1940    2.0250 cp        1 2GV      0.663500
     33 N4         -1.8360   10.5650    3.6450 n4        1 2GV     -0.802300
     34 H1         -0.9730    0.2300   -1.0270 ha        1 2GV      0.138500
     35 H2          1.4420    0.1760   -1.6110 ha        1 2GV      0.142000
     36 H3          3.1610   -0.0990    0.1800 ha        1 2GV      0.142000
     37 H4          2.4480   -0.3260    2.5630 ha        1 2GV      0.142000
     38 H5          0.0380   -0.2900    3.1570 ha        1 2GV      0.138500
     39 H6         -2.6380    0.4610    0.5260 h1        1 2GV      0.075700
     40 H7         -0.9080   -2.3970    2.4230 hc        1 2GV      0.060867
     41 H8         -2.2050   -3.5340    1.8650 hc        1 2GV      0.060867
     42 H9         -1.2030   -2.6300    0.6420 hc        1 2GV      0.060867
     43 H10        -4.3450   -2.6760    0.9610 hc        1 2GV      0.060867
     44 H11        -3.4420   -1.8040   -0.3550 hc        1 2GV      0.060867
     45 H12        -4.5990   -0.8990    0.7220 hc        1 2GV      0.060867
     46 H14        -3.2160    2.2280    4.7540 ha        1 2GV      0.172000
     47 H15        -2.9900    4.6600    4.9420 ha        1 2GV      0.138000
     48 H16        -1.2200    4.8390    0.9870 ha        1 2GV      0.138000
     49 H17        -0.1410    6.5260    1.9550 ha        1 2GV      0.191000
     50 H18        -3.8150    6.6200    4.2980 h4        1 2GV      0.065100
     51 H20         3.3580   10.9080    0.4760 ha        1 2GV      0.183000
     52 H21         2.2080   11.8530    2.5620 h4        1 2GV      0.052600
     53 H22        -1.0460   10.7980    4.2600 hn        1 2GV      0.471133
     54 H23        -1.7240   11.0470    2.7480 hn        1 2GV      0.471133
     55 H13        -1.4140    2.4040    0.7750 ha        1 2GV      0.172000
     56 H43        -2.7130   10.8660    4.0890 hn        1 2GV      0.471133
     57 H19         2.3440    8.7860   -0.5520 h4        1 2GV      0.052600
@<TRIPOS>BOND
     1    1    2 ar  
     2    1    6 ar  
     3    1   34 1   
     4    2    3 ar  
     5    2   35 1   
     6    3    4 ar  
     7    3   36 1   
     8    4    5 ar  
     9    4   37 1   
    10    5    6 ar  
    11    5   38 1   
    12    6    7 1   
    13    7    8 1   
    14    7   14 1   
    15    7   39 1   
    16    8    9 1   
    17    8   10 1   
    18    8   11 1   
    19    9   40 1   
    20    9   41 1   
    21    9   42 1   
    22   10   43 1   
    23   10   44 1   
    24   10   45 1   
    25   11   12 1   
    26   12   13 2   
    27   12   14 1   
    28   14   16 1   
    29   15   16 ar  
    30   15   20 ar  
    31   15   55 1   
    32   16   17 ar  
    33   17   18 ar  
    34   17   46 1   
    35   18   19 ar  
    36   18   47 1   
    37   19   20 ar  
    38   19   21 1   
    39   20   48 1   
    40   21   22 ar  
    41   21   26 ar  
    42   22   23 ar  
    43   22   49 1   
    44   23   24 ar  
    45   23   32 1   
    46   24   25 ar  
    47   24   33 1   
    48   25   26 ar  
    49   26   50 1   
    50   27   28 ar  
    51   27   32 ar  
    52   28   29 ar  
    53   28   57 1   
    54   29   30 ar  
    55   29   51 1   
    56   30   31 ar  
    57   30   52 1   
    58   31   32 ar  
    59   33   53 1   
    60   33   54 1   
    61   33   56 1   
@<TRIPOS>SUBSTRUCTURE
     1 2GV         1 TEMP              0 ****  ****    0 ROOT
