@<TRIPOS>MOLECULE
2GV
   56    60     1     0     0
SMALL
bcc


@<TRIPOS>ATOM
      1 C12        -0.2350    0.0220   -0.2420 ca        1 2GV     -0.112500
      2 C13         1.1000   -0.0480   -0.6340 ca        1 2GV     -0.130500
      3 C14         2.1020   -0.2070    0.3230 ca        1 2GV     -0.120000
      4 C15         1.7640   -0.2990    1.6720 ca        1 2GV     -0.130500
      5 C16         0.4280   -0.2360    2.0690 ca        1 2GV     -0.112500
      6 C17        -0.5810   -0.0780    1.1130 ca        1 2GV     -0.100300
      7 C7         -2.0360   -0.0010    1.4830 c3        1 2GV      0.126000
      8 C8         -2.6860   -1.4170    1.7170 c3        1 2GV      0.145800
      9 C9         -1.7080   -2.5710    1.6860 c3        1 2GV     -0.102600
     10 C10        -3.8420   -1.6440    0.7610 c3        1 2GV     -0.102600
     11 O1         -3.2370   -1.3500    3.0680 os        1 2GV     -0.395900
     12 C11        -3.0340   -0.0930    3.6100 c         1 2GV      0.828600
     13 O2         -3.4640    0.0930    4.7490 o         1 2GV     -0.591500
     14 N2         -2.3140    0.7280    2.7240 n         1 2GV     -0.384000
     15 C18        -1.7210    2.8840    1.7280 ca        1 2GV     -0.166000
     16 C19        -2.2630    2.1320    2.7950 ca        1 2GV      0.081600
     17 C20        -2.7220    2.8240    3.9390 ca        1 2GV     -0.166000
     18 C21        -2.6450    4.2100    3.9980 ca        1 2GV     -0.098000
     19 C5         -2.1140    4.9550    2.9370 cp        1 2GV     -0.045000
     20 C22        -1.6510    4.2690    1.8060 ca        1 2GV     -0.098000
     21 C1         -2.0430    6.4060    3.0060 cp        1 2GV     -0.213300
     22 C23        -0.9550    7.1170    2.4910 ca        1 2GV     -0.009000
     23 C24        -0.9230    8.5120    2.5740 cp        1 2GV     -0.320800
     24 C25        -2.0340    9.1980    3.1660 ca        1 2GV      0.687200
     25 N3         -3.0950    8.4900    3.6950 nb        1 2GV     -0.737000
     26 C26        -3.0800    7.1600    3.6040 ca        1 2GV      0.467200
     27 N1          0.6910    8.8740    0.7840 nb        1 2GV     -0.701000
     28 C2          1.7930    9.4970    0.3280 ca        1 2GV      0.433200
     29 C3          2.4930   10.4580    1.0810 ca        1 2GV     -0.370600
     30 C4          1.9770   10.7480    2.3570 ca        1 2GV      0.433200
     31 N5          0.8770   10.1500    2.8500 nb        1 2GV     -0.701000
     32 C6          0.2630    9.2230    2.0440 cp        1 2GV      0.719500
     33 N4         -2.1300   10.5850    3.1430 nh        1 2GV     -0.930500
     34 H1         -1.0200    0.1570   -1.0020 ha        1 2GV      0.139000
     35 H2          1.3620    0.0280   -1.6990 ha        1 2GV      0.136500
     36 H3          3.1560   -0.2580    0.0130 ha        1 2GV      0.135000
     37 H4          2.5520   -0.4200    2.4310 ha        1 2GV      0.136500
     38 H5          0.1750   -0.3070    3.1380 ha        1 2GV      0.139000
     39 H6         -2.5890    0.5090    0.6350 h1        1 2GV      0.071700
     40 H7         -0.8980   -2.4200    2.4410 hc        1 2GV      0.055700
     41 H8         -2.2440   -3.5210    1.9270 hc        1 2GV      0.055700
     42 H9         -1.2520   -2.6500    0.6710 hc        1 2GV      0.055700
     43 H10        -4.5820   -0.8110    0.8320 hc        1 2GV      0.055700
     44 H11        -3.4570   -1.7070   -0.2840 hc        1 2GV      0.055700
     45 H12        -4.3610   -2.5990    1.0180 hc        1 2GV      0.055700
     46 H14        -3.1430    2.2730    4.7980 ha        1 2GV      0.156000
     47 H15        -3.0020    4.7260    4.9040 ha        1 2GV      0.138500
     48 H16        -1.2310    4.8350    0.9590 ha        1 2GV      0.138500
     49 H17        -0.1160    6.5740    2.0270 ha        1 2GV      0.151000
     50 H18        -3.9620    6.6510    4.0390 h4        1 2GV      0.026100
     51 H19         2.1230    9.2110   -0.6880 h4        1 2GV      0.029600
     52 H20         3.3900   10.9530    0.6950 ha        1 2GV      0.157000
     53 H21         2.4630   11.4880    3.0190 h4        1 2GV      0.029600
     54 H22        -2.8580   10.9900    3.6890 hn        1 2GV      0.422300
     55 H23        -1.2780   11.0920    3.1440 hn        1 2GV      0.422300
     56 H13        -1.3310    2.3830    0.8280 ha        1 2GV      0.156000
@<TRIPOS>BOND
     1    1    2 ar  
     2    1    6 ar  
     3    1   34 1   
     4    2    3 ar  
     5    2   35 1   
     6    3    4 ar  
     7    3   36 1   
     8    4    5 ar  
     9    4   37 1   
    10    5    6 ar  
    11    5   38 1   
    12    6    7 1   
    13    7    8 1   
    14    7   14 1   
    15    7   39 1   
    16    8    9 1   
    17    8   10 1   
    18    8   11 1   
    19    9   40 1   
    20    9   41 1   
    21    9   42 1   
    22   10   43 1   
    23   10   44 1   
    24   10   45 1   
    25   11   12 1   
    26   12   13 2   
    27   12   14 1   
    28   14   16 1   
    29   15   16 ar  
    30   15   20 ar  
    31   15   56 1   
    32   16   17 ar  
    33   17   18 ar  
    34   17   46 1   
    35   18   19 ar  
    36   18   47 1   
    37   19   20 ar  
    38   19   21 1   
    39   20   48 1   
    40   21   22 ar  
    41   21   26 ar  
    42   22   23 ar  
    43   22   49 1   
    44   23   24 ar  
    45   23   32 1   
    46   24   25 ar  
    47   24   33 1   
    48   25   26 ar  
    49   26   50 1   
    50   27   28 ar  
    51   27   32 ar  
    52   28   29 ar  
    53   28   51 1   
    54   29   30 ar  
    55   29   52 1   
    56   30   31 ar  
    57   30   53 1   
    58   31   32 ar  
    59   33   54 1   
    60   33   55 1   
@<TRIPOS>SUBSTRUCTURE
     1 2GV         1 TEMP              0 ****  ****    0 ROOT
