@<TRIPOS>MOLECULE
2GV
   56    60     1     0     0
SMALL
bcc


@<TRIPOS>ATOM
      1 C12        -0.2430    0.0260   -0.2500 ca        1 2GV     -0.112500
      2 C13         1.0920   -0.0430   -0.6440 ca        1 2GV     -0.130500
      3 C14         2.0970   -0.2020    0.3100 ca        1 2GV     -0.120000
      4 C15         1.7620   -0.2950    1.6600 ca        1 2GV     -0.130500
      5 C16         0.4260   -0.2340    2.0600 ca        1 2GV     -0.112500
      6 C17        -0.5850   -0.0750    1.1060 ca        1 2GV     -0.100300
      7 C7         -2.0390    0.0000    1.4800 c3        1 2GV      0.126000
      8 C8         -2.6870   -1.4170    1.7140 c3        1 2GV      0.145800
      9 C9         -1.7080   -2.5700    1.6810 c3        1 2GV     -0.102600
     10 C10        -3.8450   -1.6450    0.7590 c3        1 2GV     -0.102600
     11 O1         -3.2360   -1.3520    3.0650 os        1 2GV     -0.395900
     12 C11        -3.0340   -0.0950    3.6080 c         1 2GV      0.828600
     13 O2         -3.4610    0.0900    4.7490 o         1 2GV     -0.591500
     14 N2         -2.3150    0.7270    2.7220 n         1 2GV     -0.384000
     15 C18        -1.7250    2.8850    1.7270 ca        1 2GV     -0.166000
     16 C19        -2.2630    2.1310    2.7960 ca        1 2GV      0.081600
     17 C20        -2.7170    2.8210    3.9430 ca        1 2GV     -0.166000
     18 C21        -2.6390    4.2070    4.0040 ca        1 2GV     -0.098000
     19 C5         -2.1110    4.9540    2.9420 cp        1 2GV     -0.045000
     20 C22        -1.6540    4.2700    1.8080 ca        1 2GV     -0.098000
     21 C1         -2.0390    6.4040    3.0130 cp        1 2GV     -0.213300
     22 C23        -0.9520    7.1160    2.4950 ca        1 2GV     -0.009000
     23 C24        -0.9190    8.5110    2.5820 cp        1 2GV     -0.320800
     24 C25        -2.0260    9.1960    3.1800 ca        1 2GV      0.687200
     25 N3         -3.0870    8.4880    3.7110 nb        1 2GV     -0.737000
     26 C26        -3.0730    7.1590    3.6170 ca        1 2GV      0.467200
     27 N1          0.6890    8.8750    0.7860 nb        1 2GV     -0.701000
     28 C2          1.7890    9.4980    0.3270 ca        1 2GV      0.433200
     29 C3          2.4940   10.4560    1.0790 ca        1 2GV     -0.370600
     30 C4          1.9830   10.7440    2.3580 ca        1 2GV      0.433200
     31 N5          0.8840   10.1460    2.8550 nb        1 2GV     -0.701000
     32 C6          0.2660    9.2210    2.0480 cp        1 2GV      0.719500
     33 N4         -2.1210   10.5830    3.1610 nv        1 2GV     -0.930500
     34 H1         -1.0290    0.1600   -1.0080 ha        1 2GV      0.139000
     35 H2          1.3520    0.0340   -1.7100 ha        1 2GV      0.136500
     36 H3          3.1500   -0.2520   -0.0020 ha        1 2GV      0.135000
     37 H4          2.5510   -0.4160    2.4170 ha        1 2GV      0.136500
     38 H5          0.1760   -0.3050    3.1300 ha        1 2GV      0.139000
     39 H6         -2.5940    0.5100    0.6340 h1        1 2GV      0.071700
     40 H7         -0.8980   -2.4180    2.4340 hc        1 2GV      0.055700
     41 H8         -2.2430   -3.5210    1.9220 hc        1 2GV      0.055700
     42 H9         -1.2540   -2.6480    0.6650 hc        1 2GV      0.055700
     43 H10        -3.4610   -1.7060   -0.2870 hc        1 2GV      0.055700
     44 H11        -4.5850   -0.8130    0.8330 hc        1 2GV      0.055700
     45 H12        -4.3620   -2.6000    1.0170 hc        1 2GV      0.055700
     46 H14        -3.1350    2.2700    4.8020 ha        1 2GV      0.156000
     47 H15        -2.9920    4.7220    4.9110 ha        1 2GV      0.138500
     48 H16        -1.2370    4.8370    0.9610 ha        1 2GV      0.138500
     49 H17        -0.1150    6.5720    2.0270 ha        1 2GV      0.151000
     50 H18        -3.9540    6.6490    4.0540 h4        1 2GV      0.026100
     51 H19         2.1150    9.2140   -0.6910 h4        1 2GV      0.029600
     52 H20         3.3900   10.9510    0.6910 ha        1 2GV      0.157000
     53 H21         2.4730   11.4800    3.0210 h4        1 2GV      0.029600
     54 H22        -2.8460   10.9880    3.7110 hn        1 2GV      0.422300
     55 H23        -1.2680   11.0890    3.1600 hn        1 2GV      0.422300
     56 H13        -1.3390    2.3850    0.8250 ha        1 2GV      0.156000
@<TRIPOS>BOND
     1    1    2 ar  
     2    1    6 ar  
     3    1   34 1   
     4    2    3 ar  
     5    2   35 1   
     6    3    4 ar  
     7    3   36 1   
     8    4    5 ar  
     9    4   37 1   
    10    5    6 ar  
    11    5   38 1   
    12    6    7 1   
    13    7    8 1   
    14    7   14 1   
    15    7   39 1   
    16    8    9 1   
    17    8   10 1   
    18    8   11 1   
    19    9   40 1   
    20    9   41 1   
    21    9   42 1   
    22   10   43 1   
    23   10   44 1   
    24   10   45 1   
    25   11   12 1   
    26   12   13 2   
    27   12   14 1   
    28   14   16 1   
    29   15   16 ar  
    30   15   20 ar  
    31   15   56 1   
    32   16   17 ar  
    33   17   18 ar  
    34   17   46 1   
    35   18   19 ar  
    36   18   47 1   
    37   19   20 ar  
    38   19   21 1   
    39   20   48 1   
    40   21   22 ar  
    41   21   26 ar  
    42   22   23 ar  
    43   22   49 1   
    44   23   24 ar  
    45   23   32 1   
    46   24   25 ar  
    47   24   33 1   
    48   25   26 ar  
    49   26   50 1   
    50   27   28 ar  
    51   27   32 ar  
    52   28   29 ar  
    53   28   51 1   
    54   29   30 ar  
    55   29   52 1   
    56   30   31 ar  
    57   30   53 1   
    58   31   32 ar  
    59   33   54 1   
    60   33   55 1   
@<TRIPOS>SUBSTRUCTURE
     1 2GV         1 TEMP              0 ****  ****    0 ROOT
