@<TRIPOS>MOLECULE
2GV
   56    47     1     0     0
SMALL
bcc


@<TRIPOS>ATOM
      1 C12         2.8310   -3.8990    1.1110 c1        1 2GV     -0.127000
      2 C13         3.5260   -3.8260    2.3110 c1        1 2GV     -0.125333
      3 C14         2.8300   -3.6630    3.5190 c1        1 2GV     -0.125333
      4 C15         1.4610   -3.5760    3.5170 c1        1 2GV     -0.125333
      5 C16         0.7680   -3.6480    2.3270 c1        1 2GV     -0.125333
      6 C17         1.4720   -3.8130    1.1060 c1        1 2GV     -0.094000
      7 C7          0.7020   -3.8300   -0.2380 c3        1 2GV      0.043000
      8 C8          0.1260   -5.1880   -0.4790 c3        1 2GV      0.074000
      9 C9          0.5340   -6.1230    0.6340 c3        1 2GV     -0.220500
     10 C10         0.6400   -5.7500   -1.8720 c3        1 2GV     -0.220500
     11 O1         -1.2660   -5.0680   -0.5050 os        1 2GV     -0.234000
     12 C11        -1.5960   -3.6780   -0.3680 c1        1 2GV      0.397000
     13 O2         -2.7230   -3.1920   -0.4730 o         1 2GV     -0.317000
     14 N2         -0.3440   -2.9280   -0.1860 n2        1 2GV     -0.288000
     15 C18         0.4530   -0.7760   -1.1410 c1        1 2GV     -0.172000
     16 C19        -0.2200   -1.4780   -0.1140 c1        1 2GV      0.090000
     17 C20        -0.8290   -0.7860    0.9090 c1        1 2GV     -0.160000
     18 C21        -0.7820    0.6200    0.9340 c1        1 2GV     -0.096000
     19 C5         -0.1110    1.3240   -0.0900 c1        1 2GV     -0.044000
     20 C22         0.5020    0.6260   -1.1190 c2        1 2GV     -0.100000
     21 C1          0.0330    2.9090   -0.0050 c1        1 2GV     -0.148000
     22 C23        -0.9340    3.7180   -0.5590 c1        1 2GV     -0.008000
     23 C24        -0.7620    5.0890   -0.5720 c1        1 2GV     -0.147000
     24 C25         0.3740    5.6430   -0.0320 c2        1 2GV      0.166000
     25 N3          1.3340    4.8390    0.5170 n1        1 2GV     -0.212000
     26 C26         1.1650    3.4680    0.5320 c1        1 2GV      0.001000
     27 N1         -1.6380    6.4500   -2.5450 n1        1 2GV     -0.188000
     28 C2         -2.5870    7.2480   -3.0490 c1        1 2GV     -0.125333
     29 C3         -3.6830    7.5790   -2.2870 c1        1 2GV     -0.125333
     30 C4         -3.8040    7.0860   -0.9990 c1        1 2GV     -0.031000
     31 N5         -2.8620    6.2940   -0.5010 n1        1 2GV     -0.161000
     32 C6         -1.7590    5.9620   -1.2690 c1        1 2GV      0.085000
     33 N4          0.5860    7.0670   -0.1030 n3        1 2GV     -0.329000
     34 H1          3.3280   -4.0170    0.2500 ha        1 2GV      0.131000
     35 H2          4.5000   -3.8880    2.3160 ha        1 2GV      0.146333
     36 H3          3.3200   -3.6120    4.3610 ha        1 2GV      0.146333
     37 H4          0.9590   -3.4590    4.3890 ha        1 2GV      0.146333
     38 H5         -0.2510   -3.5850    2.3260 ha        1 2GV      0.146333
     39 H6          1.2980   -3.5970   -0.9560 h1        1 2GV      0.111000
     40 H7          0.1590   -6.9920    0.4740 hc        1 2GV      0.095167
     41 H8          1.5310   -6.1900    0.6670 hc        1 2GV      0.095167
     42 H9          0.2080   -5.7820    1.4780 hc        1 2GV      0.095167
     43 H10         0.4460   -5.1010   -2.5780 hc        1 2GV      0.095167
     44 H11         0.1880   -6.5890   -2.0690 hc        1 2GV      0.095167
     45 H12         1.6040   -5.9020   -1.8280 hc        1 2GV      0.095167
     46 H13         0.8900   -1.2730   -1.8710 ha        1 2GV      0.139000
     47 H14        -1.3030   -1.2790    1.6270 ha        1 2GV      0.172000
     48 H15        -1.2060    1.0980    1.6460 ha        1 2GV      0.142000
     49 H16         0.9880    1.1310   -1.8620 ha        1 2GV      0.135000
     50 H17        -1.7360    3.3260   -0.9400 ha        1 2GV      0.152000
     51 H18         1.8680    2.8830    0.9340 ha        1 2GV      0.161000
     52 H19        -2.5000    7.5990   -3.9670 ha        1 2GV      0.146333
     53 H20        -4.3700    8.1560   -2.6520 ha        1 2GV      0.146333
     54 H21        -4.5790    7.3190   -0.4590 ha        1 2GV      0.168000
     55 H22         0.0380    7.5950   -0.6460 hn        1 2GV      0.217500
     56 H23         1.1840    7.4600    0.4520 hn        1 2GV      0.217500
@<TRIPOS>BOND
     1    1    6 1   
     2    1   34 1   
     3    2    3 1   
     4    2   35 1   
     5    3   36 1   
     6    4    5 1   
     7    4   37 1   
     8    5   38 1   
     9    6    7 1   
    10    7    8 1   
    11    7   14 1   
    12    7   39 1   
    13    8    9 1   
    14    8   10 1   
    15    8   11 1   
    16    9   40 1   
    17    9   41 1   
    18    9   42 1   
    19   10   43 1   
    20   10   44 1   
    21   10   45 1   
    22   11   12 1   
    23   12   13 1   
    24   14   16 1   
    25   15   20 1   
    26   15   46 1   
    27   16   17 1   
    28   17   47 1   
    29   18   19 1   
    30   18   48 1   
    31   19   20 1   
    32   20   49 1   
    33   21   26 1   
    34   22   23 1   
    35   22   50 1   
    36   23   24 1   
    37   24   25 1   
    38   24   33 1   
    39   26   51 1   
    40   27   32 1   
    41   28   29 1   
    42   28   52 1   
    43   29   53 1   
    44   30   31 1   
    45   30   54 1   
    46   33   55 1   
    47   33   56 1   
@<TRIPOS>SUBSTRUCTURE
     1 2GV         1 TEMP              0 ****  ****    0 ROOT
