@<TRIPOS>MOLECULE
2GV
   56    60     1     0     0
SMALL
bcc


@<TRIPOS>ATOM
      1 C12         3.7520   -2.6690    0.8310 ca        1 2GV     -0.112500
      2 C13         3.5960   -3.9670    0.3480 ca        1 2GV     -0.130500
      3 C14         3.5290   -4.2000   -1.0260 ca        1 2GV     -0.120000
      4 C15         3.6190   -3.1300   -1.9150 ca        1 2GV     -0.130500
      5 C16         3.7810   -1.8290   -1.4370 ca        1 2GV     -0.112500
      6 C17         3.8510   -1.5910   -0.0600 ca        1 2GV     -0.100300
      7 C7          4.0220   -0.2110    0.5100 c3        1 2GV      0.126000
      8 C8          5.5200    0.2760    0.5010 c3        1 2GV      0.145800
      9 C9          6.4790   -0.6490   -0.2170 c3        1 2GV     -0.102600
     10 C10         5.9960    0.5840    1.9080 c3        1 2GV     -0.102600
     11 O1          5.4940    1.5340   -0.2410 os        1 2GV     -0.395900
     12 C11         4.1980    1.8490   -0.6110 c         1 2GV      0.828600
     13 O2          4.0420    2.8970   -1.2380 o         1 2GV     -0.591500
     14 N2          3.3010    0.8430   -0.2100 n         1 2GV     -0.384000
     15 C18         1.1200    0.0280    0.5460 ca        1 2GV     -0.166000
     16 C19         1.9090    1.0090   -0.0960 ca        1 2GV      0.081600
     17 C20         1.2600    2.1410   -0.6420 ca        1 2GV     -0.166000
     18 C21        -0.1180    2.2780   -0.5370 ca        1 2GV     -0.098000
     19 C5         -0.8980    1.3070    0.1060 cp        1 2GV     -0.045000
     20 C22        -0.2580    0.1820    0.6400 ca        1 2GV     -0.098000
     21 C1         -2.3400    1.4620    0.2150 cp        1 2GV     -0.213300
     22 C23        -3.2110    0.3750    0.0910 ca        1 2GV     -0.009000
     23 C24        -4.5920    0.5640    0.2040 cp        1 2GV     -0.320800
     24 C25        -5.0940    1.8790    0.4780 ca        1 2GV      0.687200
     25 N3         -4.2310    2.9520    0.5770 nb        1 2GV     -0.737000
     26 C26        -2.9230    2.7300    0.4520 ca        1 2GV      0.467200
     27 N1         -5.1580   -1.7460    0.7410 nb        1 2GV     -0.701000
     28 C2         -5.9470   -2.8180    0.5490 ca        1 2GV      0.433200
     29 C3         -7.0500   -2.8080   -0.3260 ca        1 2GV     -0.370600
     30 C4         -7.2980   -1.5990   -1.0020 ca        1 2GV      0.433200
     31 N5         -6.5350   -0.5030   -0.8380 nb        1 2GV     -0.701000
     32 C6         -5.4790   -0.6100    0.0340 cp        1 2GV      0.719500
     33 N4         -6.4390    2.1030    0.7490 nh        1 2GV     -0.930500
     34 H1          3.7950   -2.4920    1.9160 ha        1 2GV      0.139000
     35 H2          3.5220   -4.8070    1.0540 ha        1 2GV      0.136500
     36 H3          3.4010   -5.2240   -1.4050 ha        1 2GV      0.135000
     37 H4          3.5610   -3.3090   -2.9990 ha        1 2GV      0.136500
     38 H5          3.8480   -0.9940   -2.1510 ha        1 2GV      0.139000
     39 H6          3.6590   -0.2260    1.5830 h1        1 2GV      0.071700
     40 H7          6.1500   -0.8140   -1.2710 hc        1 2GV      0.055700
     41 H8          7.4980   -0.1930   -0.2310 hc        1 2GV      0.055700
     42 H9          6.5200   -1.6310    0.3120 hc        1 2GV      0.055700
     43 H10         6.0350   -0.3580    2.5050 hc        1 2GV      0.055700
     44 H11         7.0170    1.0360    1.8700 hc        1 2GV      0.055700
     45 H12         5.3090    1.3090    2.4070 hc        1 2GV      0.055700
     46 H14         1.8390    2.9250   -1.1590 ha        1 2GV      0.156000
     47 H15        -0.6020    3.1640   -0.9770 ha        1 2GV      0.138500
     48 H16        -0.8510   -0.5930    1.1510 ha        1 2GV      0.138500
     49 H17        -2.8070   -0.6300   -0.1070 ha        1 2GV      0.151000
     50 H18        -2.2840    3.6290    0.5490 h4        1 2GV      0.026100
     51 H19        -5.6810   -3.7220    1.1260 h4        1 2GV      0.029600
     52 H20        -7.6790   -3.6910   -0.4720 ha        1 2GV      0.157000
     53 H21        -8.1400   -1.5000   -1.7110 h4        1 2GV      0.029600
     54 H22        -7.0890    1.4890    0.3220 hn        1 2GV      0.422300
     55 H23        -6.7310    3.0540    0.7960 hn        1 2GV      0.422300
     56 H13         1.5820   -0.8800    0.9650 ha        1 2GV      0.156000
@<TRIPOS>BOND
     1    1    2 ar  
     2    1    6 ar  
     3    1   34 1   
     4    2    3 ar  
     5    2   35 1   
     6    3    4 ar  
     7    3   36 1   
     8    4    5 ar  
     9    4   37 1   
    10    5    6 ar  
    11    5   38 1   
    12    6    7 1   
    13    7    8 1   
    14    7   14 1   
    15    7   39 1   
    16    8    9 1   
    17    8   10 1   
    18    8   11 1   
    19    9   40 1   
    20    9   41 1   
    21    9   42 1   
    22   10   43 1   
    23   10   44 1   
    24   10   45 1   
    25   11   12 1   
    26   12   13 2   
    27   12   14 1   
    28   14   16 1   
    29   15   16 ar  
    30   15   20 ar  
    31   15   56 1   
    32   16   17 ar  
    33   17   18 ar  
    34   17   46 1   
    35   18   19 ar  
    36   18   47 1   
    37   19   20 ar  
    38   19   21 1   
    39   20   48 1   
    40   21   22 ar  
    41   21   26 ar  
    42   22   23 ar  
    43   22   49 1   
    44   23   24 ar  
    45   23   32 1   
    46   24   25 ar  
    47   24   33 1   
    48   25   26 ar  
    49   26   50 1   
    50   27   28 ar  
    51   27   32 ar  
    52   28   29 ar  
    53   28   51 1   
    54   29   30 ar  
    55   29   52 1   
    56   30   31 ar  
    57   30   53 1   
    58   31   32 ar  
    59   33   54 1   
    60   33   55 1   
@<TRIPOS>SUBSTRUCTURE
     1 2GV         1 TEMP              0 ****  ****    0 ROOT
