@<TRIPOS>MOLECULE
2GY
   62    66     1     0     0
SMALL
bcc


@<TRIPOS>ATOM
      1 C5         -5.3580   -1.8710   -1.0060 ca        1 2GY     -0.114000
      2 C7         -5.9340   -3.0960   -0.6770 ca        1 2GY     -0.132000
      3 C8         -6.0250   -3.4910    0.6580 ca        1 2GY     -0.122000
      4 C9         -5.5400   -2.6540    1.6620 ca        1 2GY     -0.132000
      5 C10        -4.9660   -1.4240    1.3370 ca        1 2GY     -0.114000
      6 C12        -4.8720   -1.0250    0.0000 ca        1 2GY     -0.091300
      7 C13        -4.2570    0.2830   -0.4100 c3        1 2GY      0.109000
      8 C14        -5.2770    1.4840   -0.3880 c3        1 2GY      0.145800
      9 C15        -6.5650    1.1890    0.3490 c3        1 2GY     -0.101100
     10 C16        -5.5430    1.9980   -1.7900 c3        1 2GY     -0.101100
     11 O1         -4.5850    2.5400    0.3450 os        1 2GY     -0.403900
     12 C11        -3.3470    2.0850    0.7740 c         1 2GY      0.807600
     13 O2         -2.6470    2.8860    1.3980 o         1 2GY     -0.598500
     14 N2         -3.1550    0.7270    0.4510 n         1 2GY     -0.450800
     15 C17        -1.8260    0.1870    0.2240 c3        1 2GY      0.110700
     16 C18        -1.0620    0.8670   -0.9270 c3        1 2GY     -0.097900
     17 C19         0.2710    0.1900   -1.1560 c3        1 2GY     -0.070400
     18 C20         1.1240    0.2140    0.1080 c3        1 2GY     -0.007400
     19 C21         0.3680   -0.4360    1.2610 c3        1 2GY     -0.070400
     20 C22        -0.9640    0.2410    1.4970 c3        1 2GY     -0.097900
     21 C1          2.4370   -0.4520   -0.1180 ca        1 2GY     -0.255600
     22 C23         3.6370    0.2480    0.0150 ca        1 2GY     -0.014000
     23 C24         4.8580   -0.4000   -0.2030 cp        1 2GY     -0.317800
     24 C25         4.8550   -1.7940   -0.5350 ca        1 2GY      0.680200
     25 N3          3.6640   -2.4750   -0.6880 nb        1 2GY     -0.737000
     26 C26         2.5240   -1.8150   -0.4780 ca        1 2GY      0.458200
     27 N1          7.0110    0.3360   -1.1090 nb        1 2GY     -0.700000
     28 C2          8.1170    1.0940   -0.9820 ca        1 2GY      0.432700
     29 C3          8.3580    1.9050    0.1410 ca        1 2GY     -0.370600
     30 C4          7.3750    1.8880    1.1480 ca        1 2GY      0.432700
     31 N5          6.2550    1.1470    1.0600 nb        1 2GY     -0.700000
     32 C6          6.1060    0.3870   -0.0760 cp        1 2GY      0.718500
     33 N4          6.0360   -2.5250   -0.6180 nh        1 2GY     -0.929500
     34 H1         -5.2850   -1.5690   -2.0620 ha        1 2GY      0.139500
     35 H2         -6.3140   -3.7540   -1.4730 ha        1 2GY      0.135000
     36 H3         -6.4760   -4.4600    0.9170 ha        1 2GY      0.134000
     37 H4         -5.6070   -2.9630    2.7160 ha        1 2GY      0.135000
     38 H5         -4.5870   -0.7740    2.1410 ha        1 2GY      0.139500
     39 H6         -3.8740    0.1640   -1.4710 h1        1 2GY      0.057700
     40 H7         -7.1700    2.1240    0.4330 hc        1 2GY      0.053700
     41 H8         -7.1490    0.4180   -0.2070 hc        1 2GY      0.053700
     42 H9         -6.3480    0.8110    1.3770 hc        1 2GY      0.053700
     43 H10        -4.5890    2.2980   -2.2870 hc        1 2GY      0.053700
     44 H11        -6.0380    1.2010   -2.3930 hc        1 2GY      0.053700
     45 H12        -6.2100    2.8920   -1.7430 hc        1 2GY      0.053700
     46 H13        -1.9800   -0.9020   -0.0490 h1        1 2GY      0.065700
     47 H14        -1.6670    0.8190   -1.8700 hc        1 2GY      0.057700
     48 H15        -0.9030    1.9490   -0.6760 hc        1 2GY      0.057700
     49 H16         0.1070   -0.8720   -1.4780 hc        1 2GY      0.046450
     50 H17         0.8150    0.7140   -1.9840 hc        1 2GY      0.046450
     51 H18         1.3070    1.2940    0.3810 hc        1 2GY      0.060700
     52 H19         0.2090   -1.5240    1.0380 hc        1 2GY      0.046450
     53 H20         0.9850   -0.3700    2.1940 hc        1 2GY      0.046450
     54 H21        -0.8080    1.3120    1.7970 hc        1 2GY      0.057700
     55 H22        -1.4980   -0.2740    2.3380 hc        1 2GY      0.057700
     56 H23         3.6250    1.3150    0.2920 ha        1 2GY      0.150000
     57 H24         1.6050   -2.4180   -0.6120 h4        1 2GY      0.021100
     58 H26         9.2620    2.5170    0.2280 ha        1 2GY      0.157000
     59 H27         7.4830    2.4900    2.0680 h4        1 2GY      0.029600
     60 H28         6.8430   -2.0290   -0.9140 hn        1 2GY      0.419300
     61 H29         5.9610   -3.4480   -0.9840 hn        1 2GY      0.419300
     62 H25         8.8330    1.0470   -1.8220 h4        1 2GY      0.029600
@<TRIPOS>BOND
     1    1    2 ar  
     2    1    6 ar  
     3    1   34 1   
     4    2    3 ar  
     5    2   35 1   
     6    3    4 ar  
     7    3   36 1   
     8    4    5 ar  
     9    4   37 1   
    10    5    6 ar  
    11    5   38 1   
    12    6    7 1   
    13    7    8 1   
    14    7   14 1   
    15    7   39 1   
    16    8    9 1   
    17    8   10 1   
    18    8   11 1   
    19    9   40 1   
    20    9   41 1   
    21    9   42 1   
    22   10   43 1   
    23   10   44 1   
    24   10   45 1   
    25   11   12 1   
    26   12   13 2   
    27   12   14 1   
    28   14   15 1   
    29   15   16 1   
    30   15   20 1   
    31   15   46 1   
    32   16   17 1   
    33   16   47 1   
    34   16   48 1   
    35   17   18 1   
    36   17   49 1   
    37   17   50 1   
    38   18   19 1   
    39   18   21 1   
    40   18   51 1   
    41   19   20 1   
    42   19   52 1   
    43   19   53 1   
    44   20   54 1   
    45   20   55 1   
    46   21   22 ar  
    47   21   26 ar  
    48   22   23 ar  
    49   22   56 1   
    50   23   24 ar  
    51   23   32 1   
    52   24   25 ar  
    53   24   33 1   
    54   25   26 ar  
    55   26   57 1   
    56   27   28 ar  
    57   27   32 ar  
    58   28   29 ar  
    59   28   62 1   
    60   29   30 ar  
    61   29   58 1   
    62   30   31 ar  
    63   30   59 1   
    64   31   32 ar  
    65   33   60 1   
    66   33   61 1   
@<TRIPOS>SUBSTRUCTURE
     1 2GY         1 TEMP              0 ****  ****    0 ROOT
