@<TRIPOS>MOLECULE
2GY
   62    66     1     0     0
SMALL
bcc


@<TRIPOS>ATOM
      1 C5         -0.0770    0.0850   -0.1250 ca        1 2GY     -0.114000
      2 C7          1.2670   -0.0510   -0.4620 ca        1 2GY     -0.132000
      3 C8          2.2110   -0.3340    0.5260 ca        1 2GY     -0.122000
      4 C9          1.8040   -0.4830    1.8510 ca        1 2GY     -0.132000
      5 C10         0.4570   -0.3520    2.1920 ca        1 2GY     -0.114000
      6 C12        -0.4920   -0.0670    1.2060 ca        1 2GY     -0.091300
      7 C13        -1.9540    0.0950    1.5140 c3        1 2GY      0.109000
      8 C14        -2.7420   -1.2700    1.5210 c3        1 2GY      0.145800
      9 C15        -1.8570   -2.4970    1.5560 c3        1 2GY     -0.101100
     10 C16        -3.7340   -1.3310    0.3740 c3        1 2GY     -0.101100
     11 O1         -3.5070   -1.2460    2.7640 os        1 2GY     -0.403900
     12 C11        -3.2230   -0.0880    3.4730 c         1 2GY      0.807600
     13 O2         -3.8150    0.0660    4.5420 o         1 2GY     -0.598500
     14 N2         -2.2300    0.6780    2.8310 n         1 2GY     -0.450800
     15 C17        -2.1790    2.1230    2.9830 c3        1 2GY      0.110700
     16 C18        -3.4530    2.8460    2.5110 c3        1 2GY     -0.097900
     17 C19        -3.2850    4.3460    2.6170 c3        1 2GY     -0.070400
     18 C20        -2.9620    4.7630    4.0480 c3        1 2GY     -0.007400
     19 C21        -1.7140    4.0330    4.5350 c3        1 2GY     -0.070400
     20 C22        -1.8800    2.5330    4.4350 c3        1 2GY     -0.097900
     21 C1         -2.7970    6.2390    4.1530 ca        1 2GY     -0.255600
     22 C23        -3.6340    7.0050    4.9660 ca        1 2GY     -0.014000
     23 C24        -3.4600    8.3910    5.0470 cp        1 2GY     -0.317800
     24 C25        -2.3940    9.0020    4.3090 ca        1 2GY      0.680200
     25 N3         -1.5830    8.2420    3.4910 nb        1 2GY     -0.737000
     26 C26        -1.7920    6.9250    3.4370 ca        1 2GY      0.458200
     27 N1         -5.0090   10.2640    5.3510 nb        1 2GY     -0.700000
     28 C2         -5.8770   10.9260    6.1380 ca        1 2GY      0.432700
     29 C3         -6.1500   10.5390    7.4630 ca        1 2GY     -0.370600
     30 C4         -5.4610    9.4070    7.9380 ca        1 2GY      0.432700
     31 N5         -4.5870    8.7160    7.1840 nb        1 2GY     -0.700000
     32 C6         -4.3870    9.1700    5.9010 cp        1 2GY      0.718500
     33 N4         -2.0790   10.3480    4.4650 nv        1 2GY     -0.929500
     34 H1         -0.8160    0.3130   -0.9080 ha        1 2GY      0.139500
     35 H2          1.5840    0.0680   -1.5080 ha        1 2GY      0.135000
     36 H3          3.2730   -0.4380    0.2600 ha        1 2GY      0.134000
     37 H4          2.5450   -0.7040    2.6330 ha        1 2GY      0.135000
     38 H5          0.1500   -0.4720    3.2430 ha        1 2GY      0.139500
     39 H6         -2.4030    0.7580    0.7130 h1        1 2GY      0.057700
     40 H7         -2.4870   -3.4090    1.6920 hc        1 2GY      0.053700
     41 H8         -1.1350   -2.4320    2.4050 hc        1 2GY      0.053700
     42 H9         -1.2890   -2.5790    0.5990 hc        1 2GY      0.053700
     43 H10        -3.1840   -1.3120   -0.5960 hc        1 2GY      0.053700
     44 H11        -4.3290   -2.2740    0.4410 hc        1 2GY      0.053700
     45 H12        -4.4380   -0.4670    0.4170 hc        1 2GY      0.053700
     46 H13        -1.3160    2.4680    2.3360 h1        1 2GY      0.065700
     47 H14        -4.3220    2.5130    3.1380 hc        1 2GY      0.057700
     48 H15        -3.6760    2.5750    1.4460 hc        1 2GY      0.057700
     49 H16        -2.4640    4.6860    1.9320 hc        1 2GY      0.046450
     50 H17        -4.2300    4.8490    2.2870 hc        1 2GY      0.046450
     51 H18        -3.8250    4.4460    4.7040 hc        1 2GY      0.060700
     52 H19        -1.5150    4.3110    5.6030 hc        1 2GY      0.046450
     53 H20        -0.8280    4.3610    3.9300 hc        1 2GY      0.046450
     54 H21        -2.7170    2.1880    5.1000 hc        1 2GY      0.057700
     55 H22        -0.9400    2.0320    4.7840 hc        1 2GY      0.057700
     56 H23        -4.4370    6.5190    5.5440 ha        1 2GY      0.150000
     57 H24        -1.1060    6.3720    2.7660 h4        1 2GY      0.021100
     58 H26        -6.8600   11.0880    8.0900 ha        1 2GY      0.157000
     59 H27        -5.6090    9.0340    8.9680 h4        1 2GY      0.029600
     60 H28        -2.8320   10.9560    4.6870 hn        1 2GY      0.419300
     61 H29        -1.4200   10.7260    3.8220 hn        1 2GY      0.419300
     62 H25        -6.3740   11.8000    5.6810 h4        1 2GY      0.029600
@<TRIPOS>BOND
     1    1    2 ar  
     2    1    6 ar  
     3    1   34 1   
     4    2    3 ar  
     5    2   35 1   
     6    3    4 ar  
     7    3   36 1   
     8    4    5 ar  
     9    4   37 1   
    10    5    6 ar  
    11    5   38 1   
    12    6    7 1   
    13    7    8 1   
    14    7   14 1   
    15    7   39 1   
    16    8    9 1   
    17    8   10 1   
    18    8   11 1   
    19    9   40 1   
    20    9   41 1   
    21    9   42 1   
    22   10   43 1   
    23   10   44 1   
    24   10   45 1   
    25   11   12 1   
    26   12   13 2   
    27   12   14 1   
    28   14   15 1   
    29   15   16 1   
    30   15   20 1   
    31   15   46 1   
    32   16   17 1   
    33   16   47 1   
    34   16   48 1   
    35   17   18 1   
    36   17   49 1   
    37   17   50 1   
    38   18   19 1   
    39   18   21 1   
    40   18   51 1   
    41   19   20 1   
    42   19   52 1   
    43   19   53 1   
    44   20   54 1   
    45   20   55 1   
    46   21   22 ar  
    47   21   26 ar  
    48   22   23 ar  
    49   22   56 1   
    50   23   24 ar  
    51   23   32 1   
    52   24   25 ar  
    53   24   33 1   
    54   25   26 ar  
    55   26   57 1   
    56   27   28 ar  
    57   27   32 ar  
    58   28   29 ar  
    59   28   62 1   
    60   29   30 ar  
    61   29   58 1   
    62   30   31 ar  
    63   30   59 1   
    64   31   32 ar  
    65   33   60 1   
    66   33   61 1   
@<TRIPOS>SUBSTRUCTURE
     1 2GY         1 TEMP              0 ****  ****    0 ROOT
