@<TRIPOS>MOLECULE
2GY
   62    56     1     0     0
SMALL
bcc


@<TRIPOS>ATOM
      1 C5          2.6620   -3.9820   -1.0570 c1        1 2GY     -0.101000
      2 C7          3.9600   -4.1120   -1.5480 c1        1 2GY     -0.130667
      3 C8          4.2030   -3.9790   -2.9000 c1        1 2GY     -0.130667
      4 C9          3.1480   -3.7140   -3.7780 c1        1 2GY     -0.130667
      5 C10         1.8580   -3.5850   -3.2930 c1        1 2GY     -0.130667
      6 C12         1.6110   -3.7180   -1.9290 c1        1 2GY     -0.084000
      7 C13         0.1520   -3.6440   -1.3900 c2        1 2GY      0.025000
      8 C14        -0.2890   -4.9880   -0.9450 c3        1 2GY      0.074000
      9 C15         0.8200   -6.0050   -1.1880 c3        1 2GY     -0.219000
     10 C16        -1.5040   -5.3900   -1.6910 c3        1 2GY     -0.219000
     11 O1         -0.5770   -4.9180    0.4280 os        1 2GY     -0.242000
     12 C11        -0.3040   -3.5760    0.8720 c2        1 2GY      0.375000
     13 O2         -0.4240   -3.1560    2.0280 o         1 2GY     -0.323000
     14 N2          0.1000   -2.7890   -0.2890 n         1 2GY     -0.309000
     15 C17         0.2810   -1.3440   -0.3190 c3        1 2GY      0.034000
     16 C18        -1.0280   -0.6940   -0.7360 c3        1 2GY     -0.176500
     17 C19        -0.9880    0.8300   -0.6190 c3        1 2GY     -0.149000
     18 C20        -0.5190    1.2940    0.7520 c3        1 2GY     -0.054000
     19 C21         0.7900    0.6410    1.1680 c3        1 2GY     -0.149000
     20 C22         0.7490   -0.8820    1.0470 c3        1 2GY     -0.176500
     21 C1         -0.3320    2.8320    0.7250 c2        1 2GY     -0.183000
     22 C23        -1.1230    3.6260    1.4930 c2        1 2GY     -0.015000
     23 C24        -0.9650    4.9780    1.4610 c1        1 2GY     -0.144000
     24 C25         0.0060    5.5430    0.6420 c1        1 2GY      0.159000
     25 N3          0.7960    4.7460   -0.1260 n1        1 2GY     -0.211000
     26 C26         0.6390    3.4010   -0.0940 c1        1 2GY     -0.007000
     27 N1         -2.9790    6.2990    1.7870 n1        1 2GY     -0.161000
     28 C2         -3.8360    7.0980    2.4570 c1        1 2GY     -0.130667
     29 C3         -3.5450    7.4930    3.7410 c1        1 2GY     -0.130667
     30 C4         -2.3730    7.0700    4.3470 c1        1 2GY     -0.033000
     31 N5         -1.5210    6.2740    3.6800 n1        1 2GY     -0.187000
     32 C6         -1.8130    5.8780    2.3900 c1        1 2GY      0.085000
     33 N4          0.2480    6.9650    0.6880 n2        1 2GY     -0.326000
     34 H1          2.4910   -4.0760   -0.0990 ha        1 2GY      0.149000
     35 H2          4.7160   -4.3020   -0.9180 ha        1 2GY      0.143167
     36 H3          5.1040   -4.0700   -3.2390 ha        1 2GY      0.143167
     37 H4          3.3240   -3.6190   -4.7510 ha        1 2GY      0.143167
     38 H5          1.1340   -3.4030   -3.8970 ha        1 2GY      0.143167
     39 H6         -0.4490   -3.3150   -2.0960 h4        1 2GY      0.098000
     40 H7          0.4640   -6.9250   -1.0470 hc        1 2GY      0.093000
     41 H8          1.1420   -5.9200   -2.0940 hc        1 2GY      0.093000
     42 H9          1.5540   -5.8400   -0.5660 hc        1 2GY      0.093000
     43 H10        -2.2110   -4.7360   -1.5400 hc        1 2GY      0.093000
     44 H11        -1.7990   -6.2640   -1.3800 hc        1 2GY      0.093000
     45 H12        -1.2990   -5.4360   -2.6530 hc        1 2GY      0.093000
     46 H13         0.9670   -1.1230   -0.9780 h1        1 2GY      0.105000
     47 H14        -1.2230   -0.9390   -1.6770 hc        1 2GY      0.097000
     48 H15        -1.7340   -1.0300   -0.1730 hc        1 2GY      0.097000
     49 H16        -0.3710    1.1870   -1.3060 hc        1 2GY      0.086000
     50 H17        -1.9020    1.1920   -0.7880 hc        1 2GY      0.086000
     51 H18        -1.2060    1.0710    1.4110 hc        1 2GY      0.100000
     52 H19         1.5090    0.9840    0.6010 hc        1 2GY      0.086000
     53 H20         0.9850    0.8830    2.1170 hc        1 2GY      0.086000
     54 H21         0.1410   -1.2390    1.7270 hc        1 2GY      0.097000
     55 H22         1.6430   -1.2330    1.2080 hc        1 2GY      0.097000
     56 H23        -1.8240    3.2140    2.0860 ha        1 2GY      0.150000
     57 H24         1.2240    2.8150   -0.6630 ha        1 2GY      0.158000
     58 H25        -4.6540    7.3940    2.0330 ha        1 2GY      0.143167
     59 H26        -4.1520    8.0600    4.2160 ha        1 2GY      0.143167
     60 H27        -2.1660    7.3500    5.2600 ha        1 2GY      0.165000
     61 H28        -0.1730    7.4730    1.2980 hn        1 2GY      0.214000
     62 H29         0.8620    7.3540    0.1000 hn        1 2GY      0.214000
@<TRIPOS>BOND
     1    1    6 1   
     2    1   34 1   
     3    2    3 1   
     4    2   35 1   
     5    3   36 1   
     6    4    5 1   
     7    4   37 1   
     8    5   38 1   
     9    7    8 1   
    10    7   14 1   
    11    7   39 1   
    12    8    9 1   
    13    8   10 1   
    14    8   11 1   
    15    9   40 1   
    16    9   41 1   
    17    9   42 1   
    18   10   43 1   
    19   10   44 1   
    20   10   45 1   
    21   11   12 1   
    22   12   13 1   
    23   12   14 1   
    24   14   15 1   
    25   15   16 1   
    26   15   20 1   
    27   15   46 1   
    28   16   17 1   
    29   16   47 1   
    30   16   48 1   
    31   17   18 1   
    32   17   49 1   
    33   17   50 1   
    34   18   19 1   
    35   18   21 1   
    36   18   51 1   
    37   19   20 1   
    38   19   52 1   
    39   19   53 1   
    40   20   54 1   
    41   20   55 1   
    42   21   22 1   
    43   21   26 1   
    44   22   23 1   
    45   22   56 1   
    46   23   32 1   
    47   24   25 1   
    48   26   57 1   
    49   27   32 1   
    50   28   29 1   
    51   28   58 1   
    52   29   59 1   
    53   30   31 1   
    54   30   60 1   
    55   33   61 1   
    56   33   62 1   
@<TRIPOS>SUBSTRUCTURE
     1 2GY         1 TEMP              0 ****  ****    0 ROOT
