@<TRIPOS>MOLECULE
2GY
   63    67     1     0     0
SMALL
bcc


@<TRIPOS>ATOM
      1 C5         -0.0560   -0.0250   -0.1250 ca        1 2GY     -0.115500
      2 C7          1.2920   -0.1850   -0.4370 ca        1 2GY     -0.130500
      3 C8          2.2220   -0.4210    0.5760 ca        1 2GY     -0.117000
      4 C9          1.7970   -0.5000    1.9010 ca        1 2GY     -0.130500
      5 C10         0.4470   -0.3460    2.2180 ca        1 2GY     -0.115500
      6 C12        -0.4880   -0.1080    1.2060 ca        1 2GY     -0.100300
      7 C13        -1.9530    0.0690    1.4870 c3        1 2GY      0.116000
      8 C14        -2.7420   -1.2920    1.5790 c3        1 2GY      0.148800
      9 C15        -1.8610   -2.5130    1.7350 c3        1 2GY     -0.102600
     10 C16        -3.7080   -1.4440    0.4200 c3        1 2GY     -0.102600
     11 O1         -3.5400   -1.1720    2.8020 os        1 2GY     -0.391900
     12 C11        -3.2630    0.0260    3.4300 c         1 2GY      0.811600
     13 O2         -3.8800    0.2860    4.4660 o         1 2GY     -0.606500
     14 N2         -2.2490    0.7370    2.7570 n         1 2GY     -0.463800
     15 C17        -2.1490    2.1790    2.8600 c3        1 2GY      0.120700
     16 C18        -3.4250    2.9170    2.4120 c3        1 2GY     -0.103400
     17 C19        -3.2550    4.4160    2.5180 c3        1 2GY     -0.067400
     18 C20        -2.9080    4.8150    3.9490 c3        1 2GY     -0.042400
     19 C21        -1.6250    4.1110    4.3820 c3        1 2GY     -0.067400
     20 C22        -1.7870    2.6100    4.2930 c3        1 2GY     -0.103400
     21 C1         -2.7800    6.2940    4.0830 ca        1 2GY     -0.118600
     22 C23        -3.6090    7.0130    4.9480 ca        1 2GY     -0.054000
     23 C24        -3.4740    8.4110    5.0720 cp        1 2GY     -0.177800
     24 C25        -2.4770    9.0240    4.2750 ca        1 2GY      0.449200
     25 N3         -1.6560    8.3400    3.4260 nb        1 2GY     -0.659000
     26 C26        -1.8110    7.0170    3.3420 ca        1 2GY      0.438200
     27 N1         -4.6780   10.4520    5.7200 nb        1 2GY     -0.717000
     28 C2         -5.5440   11.0680    6.5470 ca        1 2GY      0.449200
     29 C3         -6.1040   10.4270    7.6670 ca        1 2GY     -0.320600
     30 C4         -5.7030    9.0950    7.8960 ca        1 2GY      0.449200
     31 N5         -4.8480    8.4460    7.0830 nb        1 2GY     -0.717000
     32 C6         -4.3680    9.1460    6.0050 cp        1 2GY      0.659500
     33 N4         -2.2560   10.4840    4.3070 n4        1 2GY     -0.806300
     34 H1         -0.7840    0.1600   -0.9300 ha        1 2GY      0.138500
     35 H2          1.6220   -0.1260   -1.4850 ha        1 2GY      0.139000
     36 H3          3.2860   -0.5490    0.3280 ha        1 2GY      0.140000
     37 H4          2.5270   -0.6910    2.7030 ha        1 2GY      0.139000
     38 H5          0.1250   -0.4170    3.2690 ha        1 2GY      0.138500
     39 H6         -2.3970    0.6760    0.6390 h1        1 2GY      0.054700
     40 H7         -1.2710   -2.6720    0.8020 hc        1 2GY      0.057533
     41 H8         -1.1600   -2.3820    2.5940 hc        1 2GY      0.057533
     42 H9         -2.4970   -3.4110    1.9290 hc        1 2GY      0.057533
     43 H10        -4.4110   -0.5790    0.3760 hc        1 2GY      0.057533
     44 H11        -3.1360   -1.5060   -0.5360 hc        1 2GY      0.057533
     45 H12        -4.3070   -2.3780    0.5490 hc        1 2GY      0.057533
     46 H13        -1.3020    2.4870    2.1740 h1        1 2GY      0.065700
     47 H14        -3.6640    2.6520    1.3490 hc        1 2GY      0.070200
     48 H15        -4.2870    2.5850    3.0500 hc        1 2GY      0.070200
     49 H16        -4.2070    4.9200    2.2050 hc        1 2GY      0.046950
     50 H17        -2.4440    4.7590    1.8230 hc        1 2GY      0.046950
     51 H18        -3.7440    4.4590    4.6220 hc        1 2GY      0.084700
     52 H19        -1.3790    4.3920    5.4390 hc        1 2GY      0.046950
     53 H20        -0.7740    4.4440    3.7320 hc        1 2GY      0.046950
     54 H21        -2.5890    2.2640    5.0010 hc        1 2GY      0.070200
     55 H22        -0.8270    2.1190    4.6020 hc        1 2GY      0.070200
     56 H23        -4.3730    6.4770    5.5400 ha        1 2GY      0.195000
     57 H24        -1.1220    6.5000    2.6420 h4        1 2GY      0.065100
     58 H27        -6.0800    8.5150    8.7620 h4        1 2GY      0.054100
     59 H28        -3.0730   10.9510    3.8920 hn        1 2GY      0.473133
     60 H29        -2.1490   10.7860    5.2810 hn        1 2GY      0.473133
     61 H25        -5.7980   12.1160    6.2950 h4        1 2GY      0.054100
     62 H43        -1.4120   10.7370    3.7760 hn        1 2GY      0.473133
     63 H26        -6.8150   10.9380    8.3300 ha        1 2GY      0.185000
@<TRIPOS>BOND
     1    1    2 ar  
     2    1    6 ar  
     3    1   34 1   
     4    2    3 ar  
     5    2   35 1   
     6    3    4 ar  
     7    3   36 1   
     8    4    5 ar  
     9    4   37 1   
    10    5    6 ar  
    11    5   38 1   
    12    6    7 1   
    13    7    8 1   
    14    7   14 1   
    15    7   39 1   
    16    8    9 1   
    17    8   10 1   
    18    8   11 1   
    19    9   40 1   
    20    9   41 1   
    21    9   42 1   
    22   10   43 1   
    23   10   44 1   
    24   10   45 1   
    25   11   12 1   
    26   12   13 2   
    27   12   14 1   
    28   14   15 1   
    29   15   16 1   
    30   15   20 1   
    31   15   46 1   
    32   16   17 1   
    33   16   47 1   
    34   16   48 1   
    35   17   18 1   
    36   17   49 1   
    37   17   50 1   
    38   18   19 1   
    39   18   21 1   
    40   18   51 1   
    41   19   20 1   
    42   19   52 1   
    43   19   53 1   
    44   20   54 1   
    45   20   55 1   
    46   21   22 ar  
    47   21   26 ar  
    48   22   23 ar  
    49   22   56 1   
    50   23   24 ar  
    51   23   32 1   
    52   24   25 ar  
    53   24   33 1   
    54   25   26 ar  
    55   26   57 1   
    56   27   28 ar  
    57   27   32 ar  
    58   28   29 ar  
    59   28   61 1   
    60   29   30 ar  
    61   29   63 1   
    62   30   31 ar  
    63   30   58 1   
    64   31   32 ar  
    65   33   59 1   
    66   33   60 1   
    67   33   62 1   
@<TRIPOS>SUBSTRUCTURE
     1 2GY         1 TEMP              0 ****  ****    0 ROOT
