@<TRIPOS>MOLECULE
2H1
   56    60     1     0     0
SMALL
bcc


@<TRIPOS>ATOM
      1 CAL         0.0220   -0.0010    0.2360 c3        1 2H1     -0.109100
      2 CAK         1.5400   -0.0420    0.0710 c3        1 2H1      0.078000
      3 CAM         2.1990    0.0370    1.4480 c3        1 2H1     -0.109100
      4 NAG         1.9860   -1.2090   -0.6980 na        1 2H1      0.002200
      5 NAH         1.7090   -2.4790   -0.3500 nc        1 2H1     -0.500100
      6 C4          2.8540   -1.1620   -1.8050 ca        1 2H1      0.471800
      7 N3          3.3850   -0.0920   -2.4770 nb        1 2H1     -0.740000
      8 C2          4.1500   -0.4630   -3.5270 ca        1 2H1      0.693900
      9 N1          4.4510   -1.7040   -3.9970 nb        1 2H1     -0.798000
     10 C6          3.9290   -2.7790   -3.3170 ca        1 2H1      0.754200
     11 NAJ         4.2390   -4.0640   -3.7040 nh        1 2H1     -0.953500
     12 C5          3.1010   -2.5470   -2.1760 ca        1 2H1     -0.493500
     13 CAI         2.3460   -3.3200   -1.2070 cd        1 2H1      0.416500
     14 CAN         2.2580   -4.7720   -1.1330 ca        1 2H1     -0.105900
     15 CAS         3.3950   -5.5440   -1.0050 ca        1 2H1     -0.098000
     16 CAO         0.9840   -5.3930   -1.1760 ca        1 2H1     -0.097000
     17 CAP         0.8460   -6.7630   -1.1150 ca        1 2H1     -0.123600
     18 CAX        -0.4980   -7.3860   -1.1650 c3        1 2H1     -0.046800
     19 CAQ         2.0180   -7.5900   -0.9970 ca        1 2H1      0.439600
     20 NAT         1.8830   -8.9640   -0.9400 nb        1 2H1     -0.741000
     21 CAR         3.2950   -6.9540   -0.9390 ca        1 2H1     -0.180300
     22 CAW         4.4580   -7.7730   -0.8080 ca        1 2H1     -0.061000
     23 CAV         4.3330   -9.1320   -0.7460 ca        1 2H1     -0.244300
     24 CAU         2.9990   -9.6830   -0.8190 ca        1 2H1      0.648600
     25 OAY         2.9840  -11.0590   -0.7500 os        1 2H1     -0.447100
     26 CAZ         1.6990  -11.7080   -0.8290 c3        1 2H1      0.183700
     27 CBA         1.9410  -13.1780   -0.7310 ca        1 2H1     -0.097300
     28 CBB         1.1140  -14.0520   -1.4470 ca        1 2H1     -0.112500
     29 CBC         1.2930  -15.4290   -1.3370 ca        1 2H1     -0.131500
     30 CBD         2.3020  -15.9420   -0.5210 ca        1 2H1     -0.124000
     31 CBE         3.1320  -15.0730    0.1870 ca        1 2H1     -0.131500
     32 CBF         2.9520  -13.6940    0.0860 ca        1 2H1     -0.112500
     33 H1         -0.2520    0.9570    0.7410 hc        1 2H1      0.050367
     34 H2         -0.4900   -0.0420   -0.7550 hc        1 2H1      0.050367
     35 H3         -0.3380   -0.8530    0.8610 hc        1 2H1      0.050367
     36 H4          1.8600    0.8600   -0.5330 h1        1 2H1      0.086700
     37 H5          1.8970   -0.8270    2.0870 hc        1 2H1      0.050367
     38 H6          3.3120    0.0470    1.3600 hc        1 2H1      0.050367
     39 H7          1.8720    0.9820    1.9440 hc        1 2H1      0.050367
     40 H8          4.6030    0.3730   -4.1050 h5        1 2H1      0.052100
     41 H9          4.6860   -4.2130   -4.5760 hn        1 2H1      0.437800
     42 H10         3.6840   -4.7970   -3.3290 hn        1 2H1      0.437800
     43 H11         4.3900   -5.0760   -0.9420 ha        1 2H1      0.148000
     44 H12         0.0900   -4.7530   -1.2560 ha        1 2H1      0.149000
     45 H13        -0.5730   -8.0790   -2.0400 hc        1 2H1      0.050033
     46 H14        -1.2980   -6.6110   -1.2560 hc        1 2H1      0.050033
     47 H15        -0.6830   -7.9800   -0.2350 hc        1 2H1      0.050033
     48 H16         5.4450   -7.2890   -0.7560 ha        1 2H1      0.145000
     49 H17         5.1860   -9.8150   -0.6450 ha        1 2H1      0.162000
     50 H18         1.2100  -11.4390   -1.8020 h1        1 2H1      0.062700
     51 H19         1.0590  -11.3610    0.0270 h1        1 2H1      0.062700
     52 H20         0.3220  -13.6500   -2.0970 ha        1 2H1      0.138000
     53 H21         0.6390  -16.1130   -1.8980 ha        1 2H1      0.133000
     54 H22         2.4430  -17.0290   -0.4380 ha        1 2H1      0.132000
     55 H23         3.9300  -15.4750    0.8280 ha        1 2H1      0.133000
     56 H24         3.6070  -13.0040    0.6390 ha        1 2H1      0.138000
@<TRIPOS>BOND
     1    1    2 1   
     2    1   33 1   
     3    1   34 1   
     4    1   35 1   
     5    2    3 1   
     6    2    4 1   
     7    2   36 1   
     8    3   37 1   
     9    3   38 1   
    10    3   39 1   
    11    4    5 1   
    12    4    6 1   
    13    5   13 2   
    14    6    7 ar  
    15    6   12 ar  
    16    7    8 ar  
    17    8    9 ar  
    18    8   40 1   
    19    9   10 ar  
    20   10   11 1   
    21   10   12 ar  
    22   11   41 1   
    23   11   42 1   
    24   12   13 1   
    25   13   14 1   
    26   14   15 ar  
    27   14   16 ar  
    28   15   21 ar  
    29   15   43 1   
    30   16   17 ar  
    31   16   44 1   
    32   17   18 1   
    33   17   19 ar  
    34   18   45 1   
    35   18   46 1   
    36   18   47 1   
    37   19   20 ar  
    38   19   21 ar  
    39   20   24 ar  
    40   21   22 ar  
    41   22   23 ar  
    42   22   48 1   
    43   23   24 ar  
    44   23   49 1   
    45   24   25 1   
    46   25   26 1   
    47   26   27 1   
    48   26   50 1   
    49   26   51 1   
    50   27   28 ar  
    51   27   32 ar  
    52   28   29 ar  
    53   28   52 1   
    54   29   30 ar  
    55   29   53 1   
    56   30   31 ar  
    57   30   54 1   
    58   31   32 ar  
    59   31   55 1   
    60   32   56 1   
@<TRIPOS>SUBSTRUCTURE
     1 2H1         1 TEMP              0 ****  ****    0 ROOT
