@<TRIPOS>MOLECULE
2H1
   57    61     1     0     0
SMALL
bcc


@<TRIPOS>ATOM
      1 CAL         0.2050    0.1260    0.3070 c3        1 2H1     -0.116600
      2 CAK         1.7170    0.0250    0.1360 c3        1 2H1      0.073000
      3 CAM         2.3970    0.0690    1.5010 c3        1 2H1     -0.116600
      4 NAG         2.1050   -1.1800   -0.6350 na        1 2H1      0.035200
      5 NAH         1.8350   -2.4330   -0.2420 nc        1 2H1     -0.416100
      6 C4          2.8140   -1.1670   -1.8460 ca        1 2H1      0.459800
      7 N3          3.2950   -0.1460   -2.6150 nb        1 2H1     -0.624000
      8 C2          3.9240   -0.5470   -3.7380 ca        1 2H1      0.680900
      9 N1          4.1320   -1.8260   -4.1970 nb        1 2H1     -0.698000
     10 C6          3.6500   -2.8240   -3.4250 ca        1 2H1      0.557200
     11 NAJ         3.8260   -4.2220   -3.8730 n4        1 2H1     -0.833300
     12 C5          2.9790   -2.5840   -2.2170 ca        1 2H1     -0.433500
     13 CAI         2.3340   -3.3150   -1.1460 cd        1 2H1      0.403500
     14 CAN         2.2380   -4.7660   -1.0740 ca        1 2H1     -0.155900
     15 CAS         3.3690   -5.5320   -0.8610 ca        1 2H1     -0.129000
     16 CAO         0.9740   -5.3880   -1.2160 ca        1 2H1     -0.117000
     17 CAP         0.8400   -6.7600   -1.1800 ca        1 2H1     -0.095600
     18 CAX        -0.4940   -7.3880   -1.3180 c3        1 2H1     -0.058800
     19 CAQ         2.0080   -7.5830   -0.9890 ca        1 2H1      0.451600
     20 NAT         1.8740   -8.9540   -0.9650 nb        1 2H1     -0.744000
     21 CAR         3.2740   -6.9410   -0.8200 ca        1 2H1     -0.195300
     22 CAW         4.4230   -7.7580   -0.5820 ca        1 2H1     -0.077000
     23 CAV         4.2980   -9.1160   -0.5410 ca        1 2H1     -0.222300
     24 CAU         2.9780   -9.6770   -0.7470 ca        1 2H1      0.672600
     25 OAY         2.9650  -11.0440   -0.7020 os        1 2H1     -0.432100
     26 CAZ         1.6910  -11.7130   -0.8690 c3        1 2H1      0.187700
     27 CBA         1.9680  -13.1750   -0.7720 ca        1 2H1     -0.114300
     28 CBB         1.4530  -14.0420   -1.7430 ca        1 2H1     -0.106500
     29 CBC         1.6680  -15.4150   -1.6340 ca        1 2H1     -0.128500
     30 CBD         2.4050  -15.9260   -0.5650 ca        1 2H1     -0.111000
     31 CBE         2.9270  -15.0630    0.3980 ca        1 2H1     -0.128500
     32 CBF         2.7080  -13.6900    0.2980 ca        1 2H1     -0.106500
     33 H1         -0.0210    1.0970    0.8140 hc        1 2H1      0.063867
     34 H2         -0.1880   -0.7060    0.9400 hc        1 2H1      0.063867
     35 H3         -0.3190    0.1110   -0.6780 hc        1 2H1      0.063867
     36 H4          2.0770    0.9010   -0.4840 h1        1 2H1      0.093700
     37 H5          2.1290    1.0370    1.9900 hc        1 2H1      0.063867
     38 H6          2.0510   -0.7680    2.1530 hc        1 2H1      0.063867
     39 H7          3.5080    0.0170    1.4040 hc        1 2H1      0.063867
     40 H8          4.3340    0.2580   -4.3940 h5        1 2H1      0.098100
     41 H9          3.5830   -4.8520   -3.0870 hn        1 2H1      0.478133
     42 H10         4.7960   -4.3850   -4.1670 hn        1 2H1      0.478133
     43 H11         4.3450   -5.0600   -0.6650 ha        1 2H1      0.140000
     44 H12         0.0810   -4.7520   -1.3390 ha        1 2H1      0.156000
     45 H13        -0.7370   -7.9790   -0.3980 hc        1 2H1      0.063033
     46 H14        -1.2920   -6.6180   -1.4650 hc        1 2H1      0.063033
     47 H15        -0.5080   -8.0890   -2.1900 hc        1 2H1      0.063033
     48 H16         5.3980   -7.2720   -0.4180 ha        1 2H1      0.147000
     49 H17         5.1390   -9.7980   -0.3550 ha        1 2H1      0.178000
     50 H18         1.2620  -11.4360   -1.8680 h1        1 2H1      0.064200
     51 H19         1.0000  -11.3820   -0.0490 h1        1 2H1      0.064200
     52 H20         0.8760  -13.6420   -2.5900 ha        1 2H1      0.135000
     53 H21         1.2560  -16.0950   -2.3940 ha        1 2H1      0.140000
     54 H22         2.5740  -17.0100   -0.4820 ha        1 2H1      0.141000
     55 H23         3.5100  -15.4640    1.2400 ha        1 2H1      0.140000
     56 H24         3.1200  -13.0040    1.0530 ha        1 2H1      0.135000
     57 HAJ3        3.2010   -4.4060   -4.6680 hn        1 2H1      0.478133
@<TRIPOS>BOND
     1    1    2 1   
     2    1   33 1   
     3    1   34 1   
     4    1   35 1   
     5    2    3 1   
     6    2    4 1   
     7    2   36 1   
     8    3   37 1   
     9    3   38 1   
    10    3   39 1   
    11    4    5 1   
    12    4    6 1   
    13    5   13 2   
    14    6    7 ar  
    15    6   12 ar  
    16    7    8 ar  
    17    8    9 ar  
    18    8   40 1   
    19    9   10 ar  
    20   10   11 1   
    21   10   12 ar  
    22   11   41 1   
    23   11   42 1   
    24   11   57 1   
    25   12   13 1   
    26   13   14 1   
    27   14   15 ar  
    28   14   16 ar  
    29   15   21 ar  
    30   15   43 1   
    31   16   17 ar  
    32   16   44 1   
    33   17   18 1   
    34   17   19 ar  
    35   18   45 1   
    36   18   46 1   
    37   18   47 1   
    38   19   20 ar  
    39   19   21 ar  
    40   20   24 ar  
    41   21   22 ar  
    42   22   23 ar  
    43   22   48 1   
    44   23   24 ar  
    45   23   49 1   
    46   24   25 1   
    47   25   26 1   
    48   26   27 1   
    49   26   50 1   
    50   26   51 1   
    51   27   28 ar  
    52   27   32 ar  
    53   28   29 ar  
    54   28   52 1   
    55   29   30 ar  
    56   29   53 1   
    57   30   31 ar  
    58   30   54 1   
    59   31   32 ar  
    60   31   55 1   
    61   32   56 1   
@<TRIPOS>SUBSTRUCTURE
     1 2H1         1 TEMP              0 ****  ****    0 ROOT
