@<TRIPOS>MOLECULE
2H1
   56    60     1     0     0
SMALL
bcc


@<TRIPOS>ATOM
      1 CAL         0.0240    0.0030    0.2250 c3        1 2H1     -0.109100
      2 CAK         1.5430   -0.0410    0.0680 c3        1 2H1      0.078000
      3 CAM         2.1960    0.0360    1.4480 c3        1 2H1     -0.109100
      4 NAG         1.9900   -1.2080   -0.7000 na        1 2H1      0.002200
      5 NAH         1.7120   -2.4790   -0.3520 nc        1 2H1     -0.500100
      6 C4          2.8560   -1.1630   -1.8080 ca        1 2H1      0.471800
      7 N3          3.3870   -0.0930   -2.4820 nb        1 2H1     -0.740000
      8 C2          4.1510   -0.4640   -3.5320 ca        1 2H1      0.693900
      9 N1          4.4500   -1.7060   -4.0020 nb        1 2H1     -0.798000
     10 C6          3.9290   -2.7810   -3.3210 ca        1 2H1      0.754200
     11 NAJ         4.2370   -4.0660   -3.7080 nv        1 2H1     -0.953500
     12 C5          3.1020   -2.5480   -2.1790 ca        1 2H1     -0.493500
     13 CAI         2.3490   -3.3200   -1.2080 cd        1 2H1      0.416500
     14 CAN         2.2590   -4.7720   -1.1330 ca        1 2H1     -0.105900
     15 CAS         3.3960   -5.5450   -1.0080 ca        1 2H1     -0.098000
     16 CAO         0.9850   -5.3930   -1.1730 ca        1 2H1     -0.097000
     17 CAP         0.8470   -6.7630   -1.1120 ca        1 2H1     -0.123600
     18 CAX        -0.4970   -7.3840   -1.1580 c3        1 2H1     -0.046800
     19 CAQ         2.0180   -7.5900   -0.9960 ca        1 2H1      0.439600
     20 NAT         1.8830   -8.9630   -0.9370 nb        1 2H1     -0.741000
     21 CAR         3.2960   -6.9540   -0.9410 ca        1 2H1     -0.180300
     22 CAW         4.4590   -7.7730   -0.8110 ca        1 2H1     -0.061000
     23 CAV         4.3340   -9.1330   -0.7490 ca        1 2H1     -0.244300
     24 CAU         3.0000   -9.6830   -0.8190 ca        1 2H1      0.648600
     25 OAY         2.9840  -11.0590   -0.7490 os        1 2H1     -0.447100
     26 CAZ         1.6980  -11.7080   -0.8250 c3        1 2H1      0.183700
     27 CBA         1.9400  -13.1780   -0.7270 ca        1 2H1     -0.097300
     28 CBB         1.1090  -14.0510   -1.4400 ca        1 2H1     -0.112500
     29 CBC         1.2880  -15.4280   -1.3300 ca        1 2H1     -0.131500
     30 CBD         2.3000  -15.9410   -0.5180 ca        1 2H1     -0.124000
     31 CBE         3.1330  -15.0730    0.1870 ca        1 2H1     -0.131500
     32 CBF         2.9540  -13.6940    0.0850 ca        1 2H1     -0.112500
     33 H1         -0.3400   -0.8480    0.8470 hc        1 2H1      0.050367
     34 H2         -0.2500    0.9610    0.7290 hc        1 2H1      0.050367
     35 H3         -0.4830   -0.0350   -0.7690 hc        1 2H1      0.050367
     36 H4          1.8680    0.8610   -0.5350 h1        1 2H1      0.086700
     37 H5          1.8880   -0.8280    2.0840 hc        1 2H1      0.050367
     38 H6          3.3090    0.0430    1.3650 hc        1 2H1      0.050367
     39 H7          1.8680    0.9820    1.9420 hc        1 2H1      0.050367
     40 H8          4.6030    0.3700   -4.1110 h5        1 2H1      0.052100
     41 H9          4.6840   -4.2160   -4.5800 hn        1 2H1      0.437800
     42 H10         3.6820   -4.7980   -3.3320 hn        1 2H1      0.437800
     43 H11         4.3920   -5.0770   -0.9470 ha        1 2H1      0.148000
     44 H12         0.0910   -4.7530   -1.2520 ha        1 2H1      0.149000
     45 H13        -0.5750   -8.0780   -2.0320 hc        1 2H1      0.050033
     46 H14        -0.6810   -7.9780   -0.2270 hc        1 2H1      0.050033
     47 H15        -1.2980   -6.6090   -1.2480 hc        1 2H1      0.050033
     48 H16         5.4470   -7.2900   -0.7620 ha        1 2H1      0.145000
     49 H17         5.1870   -9.8150   -0.6500 ha        1 2H1      0.162000
     50 H18         1.2070  -11.4390   -1.7970 h1        1 2H1      0.062700
     51 H19         1.0610  -11.3600    0.0320 h1        1 2H1      0.062700
     52 H20         0.3140  -13.6490   -2.0860 ha        1 2H1      0.138000
     53 H21         0.6310  -16.1120   -1.8880 ha        1 2H1      0.133000
     54 H22         2.4400  -17.0290   -0.4350 ha        1 2H1      0.132000
     55 H23         3.9340  -15.4750    0.8250 ha        1 2H1      0.133000
     56 H24         3.6120  -13.0050    0.6360 ha        1 2H1      0.138000
@<TRIPOS>BOND
     1    1    2 1   
     2    1   33 1   
     3    1   34 1   
     4    1   35 1   
     5    2    3 1   
     6    2    4 1   
     7    2   36 1   
     8    3   37 1   
     9    3   38 1   
    10    3   39 1   
    11    4    5 1   
    12    4    6 1   
    13    5   13 2   
    14    6    7 ar  
    15    6   12 ar  
    16    7    8 ar  
    17    8    9 ar  
    18    8   40 1   
    19    9   10 ar  
    20   10   11 1   
    21   10   12 ar  
    22   11   41 1   
    23   11   42 1   
    24   12   13 1   
    25   13   14 1   
    26   14   15 ar  
    27   14   16 ar  
    28   15   21 ar  
    29   15   43 1   
    30   16   17 ar  
    31   16   44 1   
    32   17   18 1   
    33   17   19 ar  
    34   18   45 1   
    35   18   46 1   
    36   18   47 1   
    37   19   20 ar  
    38   19   21 ar  
    39   20   24 ar  
    40   21   22 ar  
    41   22   23 ar  
    42   22   48 1   
    43   23   24 ar  
    44   23   49 1   
    45   24   25 1   
    46   25   26 1   
    47   26   27 1   
    48   26   50 1   
    49   26   51 1   
    50   27   28 ar  
    51   27   32 ar  
    52   28   29 ar  
    53   28   52 1   
    54   29   30 ar  
    55   29   53 1   
    56   30   31 ar  
    57   30   54 1   
    58   31   32 ar  
    59   31   55 1   
    60   32   56 1   
@<TRIPOS>SUBSTRUCTURE
     1 2H1         1 TEMP              0 ****  ****    0 ROOT
