@<TRIPOS>MOLECULE
2H2
   47    47     1     0     0
SMALL
bcc


@<TRIPOS>ATOM
      1 O2         -0.8670   -0.8560   -1.7340 o         1 2H2     -0.423400
      2 S           0.1450   -0.8800   -0.8300 s4        1 2H2      1.673300
      3 O1         -0.0040   -0.4970    0.4640 o         1 2H2     -0.423400
      4 C13         1.4400   -1.6580   -1.2110 ca        1 2H2     -0.613500
      5 C18         1.5990   -2.2460   -2.4950 ca        1 2H2      0.028000
      6 C17         2.7140   -3.0050   -2.8070 ca        1 2H2     -0.150000
      7 C16         3.7170   -3.2060   -1.8500 ca        1 2H2      0.035000
      8 C15         3.5930   -2.6320   -0.5790 ca        1 2H2     -0.150000
      9 C14         2.4780   -1.8740   -0.2650 ca        1 2H2      0.028000
     10 N1          0.6730    1.4090   -1.4050 n3        1 2H2     -1.003800
     11 C12         1.9160    1.8150   -2.0500 c3        1 2H2      0.226900
     12 C11         2.0460    3.2300   -2.3050 c1        1 2H2     -0.134100
     13 C10         2.1910    4.3980   -2.5310 cg        1 2H2     -0.076000
     14 C7          2.3580    5.7730   -2.7880 ca        1 2H2      0.093000
     15 C6          3.4850    6.2300   -3.5000 ca        1 2H2     -0.104000
     16 C5          3.6570    7.5860   -3.7490 ca        1 2H2     -0.059500
     17 C8          1.4090    6.7000   -2.3310 ca        1 2H2     -0.104000
     18 C9          1.5810    8.0600   -2.5770 ca        1 2H2     -0.059500
     19 C4          2.7070    8.5120   -3.2920 ca        1 2H2     -0.191600
     20 C3          2.8100    9.9580   -3.4790 c         1 2H2      0.573700
     21 O           2.1910   10.8430   -2.9050 o         1 2H2     -0.403100
     22 N           3.7750   10.4720   -4.5430 n4        1 2H2     -0.676800
     23 C2          5.1070   10.7800   -3.9490 c3        1 2H2      0.099800
     24 C1          6.0770   11.3850   -4.9510 c3        1 2H2     -0.175400
     25 C           7.4910   11.4760   -4.2970 c3        1 2H2      0.648900
     26 F           7.9940   10.2490   -3.9450 f         1 2H2     -0.211633
     27 F1          8.4160   12.0360   -5.1300 f         1 2H2     -0.211633
     28 F2          7.5100   12.2200   -3.1480 f         1 2H2     -0.211633
     29 H1          0.8020   -2.1060   -3.2510 ha        1 2H2      0.175000
     30 H2          2.8080   -3.4620   -3.8080 ha        1 2H2      0.186500
     31 H3          4.6020   -3.8220   -2.0960 ha        1 2H2      0.184000
     32 H4          4.3810   -2.7950    0.1780 ha        1 2H2      0.186500
     33 H5          2.3800   -1.4380    0.7490 ha        1 2H2      0.175000
     34 H6          0.5720    1.8810   -0.5180 hn        1 2H2      0.404800
     35 H7          2.7790    1.4900   -1.3920 h1        1 2H2      0.095700
     36 H8          1.9990    1.2640   -3.0370 h1        1 2H2      0.095700
     37 H9          4.2380    5.5070   -3.8570 ha        1 2H2      0.173000
     38 H10         4.5620    7.9020   -4.2910 ha        1 2H2      0.160000
     39 H11         0.5230    6.3580   -1.7700 ha        1 2H2      0.173000
     40 H12         0.8360    8.7860   -2.2050 ha        1 2H2      0.160000
     41 H13         3.8740    9.7770   -5.2900 hn        1 2H2      0.463300
     42 H14         4.9480   11.5030   -3.0910 hx        1 2H2      0.127200
     43 H15         5.5360    9.8220   -3.5300 hx        1 2H2      0.127200
     44 H16         5.7730   12.4230   -5.2470 hc        1 2H2      0.111200
     45 H17         6.1770   10.7610   -5.8770 hc        1 2H2      0.111200
     46 H121       -0.1150    1.6640   -1.9830 hn        1 2H2      0.404800
     47 HN3         3.3840   11.3350   -4.9470 hn        1 2H2      0.463300
@<TRIPOS>BOND
     1    1    2 1   
     2    2    3 1   
     3    2    4 1   
     4    4    5 ar  
     5    4    9 ar  
     6    5    6 ar  
     7    5   29 1   
     8    6    7 ar  
     9    6   30 1   
    10    7    8 ar  
    11    7   31 1   
    12    8    9 ar  
    13    8   32 1   
    14    9   33 1   
    15   10   11 1   
    16   10   34 1   
    17   10   46 1   
    18   11   12 1   
    19   11   35 1   
    20   11   36 1   
    21   12   13 3   
    22   13   14 1   
    23   14   15 ar  
    24   14   17 ar  
    25   15   16 ar  
    26   15   37 1   
    27   16   19 ar  
    28   16   38 1   
    29   17   18 ar  
    30   17   39 1   
    31   18   19 ar  
    32   18   40 1   
    33   19   20 1   
    34   20   21 2   
    35   20   22 1   
    36   22   23 1   
    37   22   41 1   
    38   22   47 1   
    39   23   24 1   
    40   23   42 1   
    41   23   43 1   
    42   24   25 1   
    43   24   44 1   
    44   24   45 1   
    45   25   26 1   
    46   25   27 1   
    47   25   28 1   
@<TRIPOS>SUBSTRUCTURE
     1 2H2         1 TEMP              0 ****  ****    0 ROOT
