@<TRIPOS>MOLECULE
2H2
   47    47     1     0     0
SMALL
bcc


@<TRIPOS>ATOM
      1 O2         -0.8580   -0.8490   -1.6300 o         1 2H2     -0.423400
      2 S           0.1750   -0.8630   -0.7500 s4        1 2H2      1.673300
      3 O1          0.0580   -0.4620    0.5410 o         1 2H2     -0.423400
      4 C13         1.4600   -1.6480   -1.1520 ca        1 2H2     -0.613500
      5 C18         1.5880   -2.2530   -2.4310 ca        1 2H2      0.028000
      6 C17         2.6940   -3.0170   -2.7600 ca        1 2H2     -0.150000
      7 C16         3.7190   -3.2090   -1.8240 ca        1 2H2      0.035000
      8 C15         3.6260   -2.6180   -0.5570 ca        1 2H2     -0.150000
      9 C14         2.5200   -1.8540   -0.2270 ca        1 2H2      0.028000
     10 N1          0.6920    1.4180   -1.3690 n8        1 2H2     -1.003800
     11 C12         1.9280    1.8170   -2.0320 c3        1 2H2      0.226900
     12 C11         2.0520    3.2280   -2.3120 c1        1 2H2     -0.134100
     13 C10         2.1910    4.3920   -2.5580 cg        1 2H2     -0.076000
     14 C7          2.3500    5.7630   -2.8400 ca        1 2H2      0.093000
     15 C6          3.5060    6.2210   -3.5020 ca        1 2H2     -0.104000
     16 C5          3.6710    7.5740   -3.7750 ca        1 2H2     -0.059500
     17 C8          1.3630    6.6850   -2.4570 ca        1 2H2     -0.104000
     18 C9          1.5280    8.0410   -2.7270 ca        1 2H2     -0.059500
     19 C4          2.6830    8.4950   -3.3910 ca        1 2H2     -0.191600
     20 C3          2.7740    9.9380   -3.6090 c         1 2H2      0.573700
     21 O           2.1080   10.8250   -3.0940 o         1 2H2     -0.403100
     22 N           3.7900   10.4430   -4.6270 ny        1 2H2     -0.676800
     23 C2          5.0820   10.7850   -3.9660 c3        1 2H2      0.099800
     24 C1          6.0980   11.3820   -4.9260 c3        1 2H2     -0.175400
     25 C           7.4710   11.5090   -4.1950 c3        1 2H2      0.648900
     26 F           7.9710   10.2990   -3.7870 f         1 2H2     -0.211633
     27 F1          8.4340   12.0650   -4.9870 f         1 2H2     -0.211633
     28 F2          7.4130   12.2790   -3.0640 f         1 2H2     -0.211633
     29 H1          0.7740   -2.1200   -3.1710 ha        1 2H2      0.175000
     30 H2          2.7650   -3.4870   -3.7570 ha        1 2H2      0.186500
     31 H3          4.5970   -3.8290   -2.0830 ha        1 2H2      0.184000
     32 H4          4.4310   -2.7740    0.1830 ha        1 2H2      0.186500
     33 H5          2.4450   -1.4050    0.7830 ha        1 2H2      0.175000
     34 H6          0.6000    1.9030   -0.4880 hn        1 2H2      0.405300
     35 H7          2.7980    1.5040   -1.3770 h1        1 2H2      0.095700
     36 H8          2.0040    1.2500   -3.0100 h1        1 2H2      0.095700
     37 H9          4.2880    5.5030   -3.8010 ha        1 2H2      0.173000
     38 H10         4.5990    7.8920   -4.2750 ha        1 2H2      0.160000
     39 H11         0.4540    6.3410   -1.9360 ha        1 2H2      0.173000
     40 H12         0.7520    8.7630   -2.4130 ha        1 2H2      0.160000
     41 H13         3.9420    9.7340   -5.3510 hn        1 2H2      0.463300
     42 H14         4.8640   11.5240   -3.1360 hx        1 2H2      0.127200
     43 H15         5.5000    9.8430   -3.5020 hx        1 2H2      0.127200
     44 H16         5.7970   12.4090   -5.2620 hc        1 2H2      0.111200
     45 H17         6.2600   10.7390   -5.8290 hc        1 2H2      0.111200
     46 H121       -0.1020    1.6620   -1.9430 hn        1 2H2      0.405300
     47 HN3         3.4110   11.2910   -5.0730 hn        1 2H2      0.463300
@<TRIPOS>BOND
     1    1    2 1   
     2    2    3 1   
     3    2    4 1   
     4    4    5 ar  
     5    4    9 ar  
     6    5    6 ar  
     7    5   29 1   
     8    6    7 ar  
     9    6   30 1   
    10    7    8 ar  
    11    7   31 1   
    12    8    9 ar  
    13    8   32 1   
    14    9   33 1   
    15   10   11 1   
    16   10   34 1   
    17   10   46 1   
    18   11   12 1   
    19   11   35 1   
    20   11   36 1   
    21   12   13 3   
    22   13   14 1   
    23   14   15 ar  
    24   14   17 ar  
    25   15   16 ar  
    26   15   37 1   
    27   16   19 ar  
    28   16   38 1   
    29   17   18 ar  
    30   17   39 1   
    31   18   19 ar  
    32   18   40 1   
    33   19   20 1   
    34   20   21 2   
    35   20   22 1   
    36   22   23 1   
    37   22   41 1   
    38   22   47 1   
    39   23   24 1   
    40   23   42 1   
    41   23   43 1   
    42   24   25 1   
    43   24   44 1   
    44   24   45 1   
    45   25   26 1   
    46   25   27 1   
    47   25   28 1   
@<TRIPOS>SUBSTRUCTURE
     1 2H2         1 TEMP              0 ****  ****    0 ROOT
