@<TRIPOS>MOLECULE
2H2
   47    47     1     0     0
SMALL
bcc


@<TRIPOS>ATOM
      1 O2         -0.3810   -0.2860   -2.1770 o         1 2H2     -0.432400
      2 S           0.3020   -0.2970   -1.0020 s4        1 2H2      1.674300
      3 O1         -0.0430    0.4760    0.0600 o         1 2H2     -0.432400
      4 C13         1.3120   -1.4610   -0.7580 ca        1 2H2     -0.614500
      5 C18         1.5930   -2.4220   -1.7660 ca        1 2H2      0.026000
      6 C17         2.4370   -3.4920   -1.5270 ca        1 2H2     -0.148500
      7 C16         3.0350   -3.6480   -0.2700 ca        1 2H2      0.035000
      8 C15         2.7810   -2.7140    0.7430 ca        1 2H2     -0.148500
      9 C14         1.9370   -1.6440    0.5050 ca        1 2H2      0.026000
     10 N1          1.8680    1.2870   -1.7640 n3        1 2H2     -1.000800
     11 C12         1.1700    2.2930   -2.5620 c3        1 2H2      0.202900
     12 C11         1.9810    3.3540   -3.1030 c1        1 2H2     -0.128100
     13 C10         2.5840    4.2750   -3.5790 cg        1 2H2     -0.078000
     14 C7          3.2750    5.3660   -4.1380 ca        1 2H2      0.095000
     15 C6          2.5620    6.5060   -4.5610 ca        1 2H2     -0.104500
     16 C5          3.2320    7.5910   -5.1120 ca        1 2H2     -0.060000
     17 C8          4.6720    5.3370   -4.2760 ca        1 2H2     -0.104500
     18 C9          5.3450    6.4250   -4.8250 ca        1 2H2     -0.060000
     19 C4          4.6290    7.5600   -5.2500 ca        1 2H2     -0.191600
     20 C3          5.4260    8.6570   -5.7960 c         1 2H2      0.573700
     21 O           6.6380    8.8120   -5.7400 o         1 2H2     -0.405100
     22 N           4.7010    9.7500   -6.5720 n4        1 2H2     -0.676800
     23 C2          4.3170   10.8760   -5.6730 c3        1 2H2      0.099800
     24 C1          3.6700   12.0330   -6.4160 c3        1 2H2     -0.175400
     25 C           3.1390   13.0690   -5.3760 c3        1 2H2      0.648900
     26 F           4.1170   13.5580   -4.5520 f         1 2H2     -0.211633
     27 F1          2.5620   14.1550   -5.9700 f         1 2H2     -0.211633
     28 F2          2.1860   12.5450   -4.5410 f         1 2H2     -0.211633
     29 H1          1.1100   -2.3160   -2.7570 ha        1 2H2      0.173500
     30 H2          2.6320   -4.2320   -2.3240 ha        1 2H2      0.186500
     31 H3          3.7020   -4.5080   -0.0760 ha        1 2H2      0.184000
     32 H4          3.2480   -2.8390    1.7370 ha        1 2H2      0.186500
     33 H5          1.7280   -0.9200    1.3170 ha        1 2H2      0.173500
     34 H6          2.2920    1.7170   -0.9560 hn        1 2H2      0.404800
     35 H7          0.6510    1.7580   -3.4190 h1        1 2H2      0.113700
     36 H8          0.3670    2.7570   -1.9080 h1        1 2H2      0.113700
     37 H9          1.4650    6.5370   -4.4510 ha        1 2H2      0.173500
     38 H10         2.6360    8.4680   -5.4110 ha        1 2H2      0.159500
     39 H11         5.2440    4.4530   -3.9480 ha        1 2H2      0.173500
     40 H12         6.4460    6.4000   -4.9230 ha        1 2H2      0.159500
     41 H13         3.8680    9.3630   -7.0270 hn        1 2H2      0.463300
     42 H14         5.2530   11.2380   -5.1480 hx        1 2H2      0.127700
     43 H15         3.6040   10.4750   -4.8920 hx        1 2H2      0.127700
     44 H16         4.4040   12.5630   -7.0780 hc        1 2H2      0.110700
     45 H17         2.7950   11.7050   -7.0360 hc        1 2H2      0.110700
     46 H121        2.5930    0.8460   -2.3060 hn        1 2H2      0.404800
     47 HN3         5.3350   10.1090   -7.3000 hn        1 2H2      0.463300
@<TRIPOS>BOND
     1    1    2 1   
     2    2    3 1   
     3    2    4 1   
     4    4    5 ar  
     5    4    9 ar  
     6    5    6 ar  
     7    5   29 1   
     8    6    7 ar  
     9    6   30 1   
    10    7    8 ar  
    11    7   31 1   
    12    8    9 ar  
    13    8   32 1   
    14    9   33 1   
    15   10   11 1   
    16   10   34 1   
    17   10   46 1   
    18   11   12 1   
    19   11   35 1   
    20   11   36 1   
    21   12   13 3   
    22   13   14 1   
    23   14   15 ar  
    24   14   17 ar  
    25   15   16 ar  
    26   15   37 1   
    27   16   19 ar  
    28   16   38 1   
    29   17   18 ar  
    30   17   39 1   
    31   18   19 ar  
    32   18   40 1   
    33   19   20 1   
    34   20   21 2   
    35   20   22 1   
    36   22   23 1   
    37   22   41 1   
    38   22   47 1   
    39   23   24 1   
    40   23   42 1   
    41   23   43 1   
    42   24   25 1   
    43   24   44 1   
    44   24   45 1   
    45   25   26 1   
    46   25   27 1   
    47   25   28 1   
@<TRIPOS>SUBSTRUCTURE
     1 2H2         1 TEMP              0 ****  ****    0 ROOT
