@<TRIPOS>MOLECULE
2H3
   24    24     1     0     0
SMALL
bcc


@<TRIPOS>ATOM
      1 O3         -0.0040   -0.3160   -0.2140 oh        1 2H3     -0.609800
      2 C3          1.3970   -0.1710   -0.0490 c3        1 2H3      0.113100
      3 C4          1.7780   -0.2020    1.4390 c3        1 2H3      0.113100
      4 O4          1.1790    0.9430    2.0230 oh        1 2H3     -0.609800
      5 C5          3.3050   -0.1590    1.5960 c3        1 2H3      0.113100
      6 O5          3.5610   -0.2320    2.9890 oh        1 2H3     -0.609800
      7 C6          3.9480   -1.3440    0.8600 c3        1 2H3      0.113100
      8 O6          5.3490   -1.1990    1.0250 oh        1 2H3     -0.609800
      9 C1          3.5670   -1.3140   -0.6280 c3        1 2H3      0.113100
     10 O1          4.1660   -2.4580   -1.2130 oh        1 2H3     -0.609800
     11 C2          2.0390   -1.3560   -0.7850 c3        1 2H3      0.113100
     12 O2          1.7840   -1.2830   -2.1780 oh        1 2H3     -0.609800
     13 H1         -0.4190    0.3640    0.3330 ho        1 2H3      0.431000
     14 H2          1.7280    0.8010   -0.5090 h1        1 2H3      0.064700
     15 H3          1.3690   -1.1290    1.9290 h1        1 2H3      0.064700
     16 H4          1.5000    0.9880    2.9340 ho        1 2H3      0.431000
     17 H5          3.7140    0.8090    1.1920 h1        1 2H3      0.064700
     18 H6          4.5190   -0.3120    3.0910 ho        1 2H3      0.431000
     19 H7          3.6170   -2.3170    1.3200 h1        1 2H3      0.064700
     20 H8          5.7640   -1.8800    0.4770 ho        1 2H3      0.431000
     21 H9          3.9760   -0.3870   -1.1180 h1        1 2H3      0.064700
     22 H10         3.8450   -2.5040   -2.1240 ho        1 2H3      0.431000
     23 H11         1.6310   -2.3250   -0.3810 h1        1 2H3      0.064700
     24 H12         0.8260   -1.2030   -2.2800 ho        1 2H3      0.431000
@<TRIPOS>BOND
     1    1    2 1   
     2    1   13 1   
     3    2    3 1   
     4    2   11 1   
     5    2   14 1   
     6    3    4 1   
     7    3    5 1   
     8    3   15 1   
     9    4   16 1   
    10    5    6 1   
    11    5    7 1   
    12    5   17 1   
    13    6   18 1   
    14    7    8 1   
    15    7    9 1   
    16    7   19 1   
    17    8   20 1   
    18    9   10 1   
    19    9   11 1   
    20    9   21 1   
    21   10   22 1   
    22   11   12 1   
    23   11   23 1   
    24   12   24 1   
@<TRIPOS>SUBSTRUCTURE
     1 2H3         1 TEMP              0 ****  ****    0 ROOT
