@<TRIPOS>MOLECULE
2H5
   23    23     1     0     0
SMALL
bcc


@<TRIPOS>ATOM
      1 C2          0.0570   -0.0110    0.0210 c3        1 2H5      0.063100
      2 C6          1.9170   -1.2480    3.6590 c3        1 2H5      0.143400
      3 C3          1.5930    0.1280    0.0280 c3        1 2H5      0.142600
      4 C4          2.1100    0.0350    1.4870 c3        1 2H5      0.086100
      5 C5          1.5710   -1.2290    2.1660 c3        1 2H5      0.116100
      6 C1         -0.3650   -1.2880    0.7800 c3        1 2H5      0.311900
      7 O1         -1.7510   -1.3180    0.9830 oh        1 2H5     -0.593800
      8 O2         -0.3430   -0.1090   -1.3320 oh        1 2H5     -0.583800
      9 F3          1.9850    1.3330   -0.5290 f         1 2H5     -0.228300
     10 O4          1.7000    1.1570    2.2470 oh        1 2H5     -0.586800
     11 O5          0.1480   -1.3100    2.1030 os        1 2H5     -0.447600
     12 O6          1.5830   -2.4910    4.2360 oh        1 2H5     -0.596800
     13 H1         -0.4050    0.8940    0.5040 h1        1 2H5      0.069700
     14 H2          3.0260   -1.1480    3.7890 h1        1 2H5      0.067200
     15 H3          1.3870   -0.4060    4.1780 h1        1 2H5      0.067200
     16 H4          2.0400   -0.7080   -0.5830 h1        1 2H5      0.077700
     17 H5          3.2360   -0.0090    1.4660 h1        1 2H5      0.059700
     18 H6          2.0080   -2.1300    1.6490 h1        1 2H5      0.060700
     19 H7         -0.0960   -2.2180    0.2070 h2        1 2H5      0.087700
     20 H8         -1.9590   -0.7480    1.7380 ho        1 2H5      0.429000
     21 H9         -1.2990   -0.2600   -1.3240 ho        1 2H5      0.421000
     22 H10         1.9670    1.9430    1.7510 ho        1 2H5      0.418000
     23 H11         0.6270   -2.5980    4.1440 ho        1 2H5      0.414000
@<TRIPOS>BOND
     1    1    3 1   
     2    1    6 1   
     3    1    8 1   
     4    1   13 1   
     5    2    5 1   
     6    2   12 1   
     7    2   14 1   
     8    2   15 1   
     9    3    4 1   
    10    3    9 1   
    11    3   16 1   
    12    4    5 1   
    13    4   10 1   
    14    4   17 1   
    15    5   11 1   
    16    5   18 1   
    17    6    7 1   
    18    6   11 1   
    19    6   19 1   
    20    7   20 1   
    21    8   21 1   
    22   10   22 1   
    23   12   23 1   
@<TRIPOS>SUBSTRUCTURE
     1 2H5         1 TEMP              0 ****  ****    0 ROOT
