@<TRIPOS>MOLECULE
2H5
   23    23     1     0     0
SMALL
bcc


@<TRIPOS>ATOM
      1 C2          0.0540    0.0090    0.0320 c3        1 2H5      0.064100
      2 C6          1.9260   -1.2750    3.6470 c3        1 2H5      0.143400
      3 C3          1.5930    0.1220    0.0250 c3        1 2H5      0.142600
      4 C4          2.1210    0.0130    1.4780 c3        1 2H5      0.086100
      5 C5          1.5670   -1.2440    2.1570 c3        1 2H5      0.116100
      6 C1         -0.3830   -1.2630    0.7890 c3        1 2H5      0.311900
      7 O1         -1.7680   -1.2700    1.0040 oh        1 2H5     -0.593800
      8 O2         -0.3600   -0.0760   -1.3180 oh        1 2H5     -0.583800
      9 F3          2.0000    1.3230   -0.5300 f         1 2H5     -0.228300
     10 O4          1.7380    1.1390    2.2470 oh        1 2H5     -0.586800
     11 O5          0.1410   -1.3000    2.1070 os        1 2H5     -0.447600
     12 O6          1.5750   -2.5140    4.2220 oh        1 2H5     -0.596800
     13 H1         -0.3870    0.9200    0.5220 h1        1 2H5      0.069700
     14 H2          3.0380   -1.1940    3.7680 h1        1 2H5      0.067200
     15 H3          1.4150   -0.4270    4.1750 h1        1 2H5      0.067200
     16 H4          2.0190   -0.7190   -0.5940 h1        1 2H5      0.077700
     17 H5          3.2460   -0.0500    1.4470 h1        1 2H5      0.059700
     18 H6          1.9830   -2.1500    1.6330 h1        1 2H5      0.060700
     19 H7         -0.1360   -2.1950    0.2100 h2        1 2H5      0.087700
     20 H8         -1.9580   -0.7000    1.7630 ho        1 2H5      0.429000
     21 H9         -1.3180   -0.2100   -1.3020 ho        1 2H5      0.421000
     22 H10         2.0140    1.9230    1.7510 ho        1 2H5      0.418000
     23 H11         0.6170   -2.6050    4.1380 ho        1 2H5      0.414000
@<TRIPOS>BOND
     1    1    3 1   
     2    1    6 1   
     3    1    8 1   
     4    1   13 1   
     5    2    5 1   
     6    2   12 1   
     7    2   14 1   
     8    2   15 1   
     9    3    4 1   
    10    3    9 1   
    11    3   16 1   
    12    4    5 1   
    13    4   10 1   
    14    4   17 1   
    15    5   11 1   
    16    5   18 1   
    17    6    7 1   
    18    6   11 1   
    19    6   19 1   
    20    7   20 1   
    21    8   21 1   
    22   10   22 1   
    23   12   23 1   
@<TRIPOS>SUBSTRUCTURE
     1 2H5         1 TEMP              0 ****  ****    0 ROOT
