@<TRIPOS>MOLECULE
2H7
   57    60     1     0     0
SMALL
bcc


@<TRIPOS>ATOM
      1 C10         0.0420    1.1840   -0.3860 ca        1 2H7     -0.241600
      2 C13        -1.2190   -0.2800    1.0750 ca        1 2H7     -0.170500
      3 C15        -0.8040    2.0440    1.7240 ca        1 2H7     -0.170500
      4 C20         1.4540   -0.0830   -9.6270 ca        1 2H7     -0.110000
      5 C21         0.7470    1.1130   -9.9150 ca        1 2H7     -0.042000
      6 C22        -0.5630    1.2850   -9.3940 ca        1 2H7     -0.030000
      7 C24        -0.4210   -0.8910   -8.3240 ca        1 2H7     -0.137000
      8 C26         0.5960    3.2760  -11.0040 ca        1 2H7     -0.101000
      9 C28        -1.2800    2.4750   -9.6970 ca        1 2H7     -0.120000
     10 C01         2.8920   -2.1230   -7.7460 c3        1 2H7      0.077000
     11 N02         2.6250   -1.6690   -6.3850 na        1 2H7      0.044400
     12 C03         2.5500   -0.3280   -5.9830 cc        1 2H7     -0.116600
     13 C04         2.1560   -0.4070   -4.6330 cd        1 2H7      0.161600
     14 N05         2.0090   -1.7870   -4.3280 nd        1 2H7     -0.351000
     15 N06         2.2670   -2.4820   -5.3530 nc        1 2H7     -0.139800
     16 C07         1.9840    0.6940   -3.6620 c3        1 2H7      0.118500
     17 N08         1.0640    0.3280   -2.5420 ny        1 2H7     -0.674800
     18 C09         0.7840    1.4960   -1.5980 c         1 2H7      0.581700
     19 O11         1.2260    2.5760   -1.9650 o         1 2H7     -0.434100
     20 C12        -0.5230   -0.0740   -0.1030 ca        1 2H7     -0.031000
     21 C14        -1.3650    0.7800    2.0030 ca        1 2H7      0.234900
     22 C16        -0.1100    2.2390    0.5390 ca        1 2H7     -0.031000
     23 C18         1.6100   -2.3380   -8.5760 c3        1 2H7     -0.042100
     24 C19         0.8890   -1.0660   -8.8420 ca        1 2H7     -0.134300
     25 C23        -1.1280    0.2530   -8.5970 ca        1 2H7     -0.096000
     26 C25         1.3100    2.1360  -10.7260 ca        1 2H7     -0.127000
     27 C27        -0.7120    3.4470  -10.4850 ca        1 2H7     -0.100000
     28 C29         3.7090   -3.4390   -7.7380 c3        1 2H7     -0.165400
     29 C30         4.3800   -3.6370   -9.0570 c         1 2H7      0.555100
     30 N31         4.8780   -5.0840   -9.3290 ny        1 2H7     -0.473300
     31 O32         3.8660   -5.9770   -9.2520 oh        1 2H7     -0.349300
     32 O33         4.6360   -2.8660   -9.9590 o         1 2H7     -0.371100
     33 F17        -2.0380    0.5770    3.1460 f         1 2H7     -0.082900
     34 H1         -1.6660   -1.2620    1.3050 ha        1 2H7      0.189000
     35 H2         -0.9220    2.8670    2.4490 ha        1 2H7      0.189000
     36 H5          1.0260    4.0680  -11.6380 ha        1 2H7      0.154000
     37 H6         -2.2990    2.5960   -9.2970 ha        1 2H7      0.148000
     38 H7          3.5070   -1.3060   -8.2360 h1        1 2H7      0.101700
     39 H8          2.7630    0.5160   -6.6430 h4        1 2H7      0.226000
     40 H9          1.5640    1.6060   -4.1820 hx        1 2H7      0.125200
     41 H10         2.9790    0.9770   -3.2040 hx        1 2H7      0.125200
     42 H11         1.4760   -0.4410   -1.9990 hn        1 2H7      0.465800
     43 H12        -0.4400   -0.9220   -0.8010 ha        1 2H7      0.155000
     44 H13         0.3280    3.2290    0.3160 ha        1 2H7      0.155000
     45 H14         1.9270   -2.7920   -9.5550 hc        1 2H7      0.067700
     46 H15         0.9360   -3.0730   -8.0600 hc        1 2H7      0.067700
     47 H16        -2.1540    0.3840   -8.2140 ha        1 2H7      0.149000
     48 H17         2.3220    1.9940  -11.1350 ha        1 2H7      0.138000
     49 H18        -1.2660    4.3670  -10.7280 ha        1 2H7      0.156000
     50 H19         3.0280   -4.3060   -7.5030 hc        1 2H7      0.135700
     51 H20         4.5130   -3.4120   -6.9460 hc        1 2H7      0.135700
     52 H21         5.5440   -5.3630   -8.5780 hn        1 2H7      0.487300
     53 H22         3.3870   -6.0000  -10.1130 ho        1 2H7      0.484000
     54 H3          2.4560   -0.2140  -10.0650 ha        1 2H7      0.125000
     55 H082        0.1710   -0.0020   -2.9260 hn        1 2H7      0.465800
     56 H312        5.3720   -5.1280  -10.2410 hn        1 2H7      0.487300
     57 H4         -0.8730   -1.6940   -7.7220 ha        1 2H7      0.135000
@<TRIPOS>BOND
     1    1   18 1   
     2    1   20 ar  
     3    1   22 ar  
     4    2   20 ar  
     5    2   21 ar  
     6    2   34 1   
     7    3   21 ar  
     8    3   22 ar  
     9    3   35 1   
    10    4    5 ar  
    11    4   24 ar  
    12    4   54 1   
    13    5    6 ar  
    14    5   26 ar  
    15    6    9 ar  
    16    6   25 ar  
    17    7   24 ar  
    18    7   25 ar  
    19    7   57 1   
    20    8   26 ar  
    21    8   27 ar  
    22    8   36 1   
    23    9   27 ar  
    24    9   37 1   
    25   10   11 1   
    26   10   23 1   
    27   10   28 1   
    28   10   38 1   
    29   11   12 1   
    30   11   15 1   
    31   12   13 2   
    32   12   39 1   
    33   13   14 1   
    34   13   16 1   
    35   14   15 2   
    36   16   17 1   
    37   16   40 1   
    38   16   41 1   
    39   17   18 1   
    40   17   42 1   
    41   17   55 1   
    42   18   19 2   
    43   20   43 1   
    44   21   33 1   
    45   22   44 1   
    46   23   24 1   
    47   23   45 1   
    48   23   46 1   
    49   25   47 1   
    50   26   48 1   
    51   27   49 1   
    52   28   29 1   
    53   28   50 1   
    54   28   51 1   
    55   29   30 1   
    56   29   32 2   
    57   30   31 1   
    58   30   52 1   
    59   30   56 1   
    60   31   53 1   
@<TRIPOS>SUBSTRUCTURE
     1 2H7         1 TEMP              0 ****  ****    0 ROOT
