@<TRIPOS>MOLECULE
2H7
   57    60     1     0     0
SMALL
bcc


@<TRIPOS>ATOM
      1 C10        -0.1900    0.9750   -0.3900 ca        1 2H7     -0.241600
      2 C13         1.5200    1.5960    1.2090 ca        1 2H7     -0.170500
      3 C15        -0.8440    1.9480    1.7380 ca        1 2H7     -0.170500
      4 C20         1.8970    0.2570   -9.3310 ca        1 2H7     -0.096000
      5 C21         1.4510    1.5810   -9.5850 ca        1 2H7     -0.039000
      6 C22         0.0580    1.8510   -9.6090 ca        1 2H7     -0.032000
      7 C24        -0.3990   -0.4840   -9.1220 ca        1 2H7     -0.159000
      8 C26         1.9070    3.9090  -10.0930 ca        1 2H7     -0.101000
      9 C28        -0.3900    3.1720   -9.8800 ca        1 2H7     -0.118000
     10 C01         2.5060   -2.3280   -7.7870 c3        1 2H7      0.075000
     11 N02         2.0140   -2.0520   -6.4390 na        1 2H7      0.044400
     12 C03         0.7750   -1.5040   -6.0910 cc        1 2H7     -0.112600
     13 C04         0.8570   -1.3460   -4.6920 cd        1 2H7      0.149600
     14 N05         2.1430   -1.8050   -4.3020 nd        1 2H7     -0.345000
     15 N06         2.7840   -2.1910   -5.3200 nc        1 2H7     -0.148800
     16 C07        -0.1830   -0.8710   -3.7570 c3        1 2H7      0.120500
     17 N08         0.4020   -0.1730   -2.5710 n4        1 2H7     -0.675800
     18 C09        -0.6570    0.4440   -1.6620 c         1 2H7      0.580700
     19 O11        -1.7990    0.4190   -2.1030 o         1 2H7     -0.434100
     20 C12         1.1650    1.0720   -0.0210 ca        1 2H7     -0.031000
     21 C14         0.5150    2.0380    2.1040 ca        1 2H7      0.233900
     22 C16        -1.1870    1.4220    0.5020 ca        1 2H7     -0.031000
     23 C18         1.4400   -2.1620   -8.8840 c3        1 2H7     -0.044100
     24 C19         0.9970   -0.7580   -9.0910 ca        1 2H7     -0.141300
     25 C23        -0.8540    0.7850   -9.3770 ca        1 2H7     -0.086000
     26 C25         2.3660    2.6400   -9.8330 ca        1 2H7     -0.126000
     27 C27         0.5160    4.1770  -10.1170 ca        1 2H7     -0.101000
     28 C29         3.0890   -3.7640   -7.8870 c3        1 2H7     -0.163400
     29 C30         4.0850   -3.8320   -8.9940 c         1 2H7      0.592100
     30 N31         4.6490   -5.2620   -9.2970 n4        1 2H7     -0.476300
     31 O32         3.6270   -6.1380   -9.1940 oh        1 2H7     -0.364300
     32 O33         4.5720   -2.9870   -9.7150 o         1 2H7     -0.371100
     33 F17         0.8620    2.5450    3.2980 f         1 2H7     -0.083900
     34 H1          2.5790    1.6770    1.5060 ha        1 2H7      0.189000
     35 H2         -1.6230    2.2960    2.4380 ha        1 2H7      0.189000
     36 H5          2.6130    4.7310  -10.2930 ha        1 2H7      0.154000
     37 H6         -1.4730    3.3710   -9.9040 ha        1 2H7      0.150000
     38 H7          3.3450   -1.5870   -7.9850 h1        1 2H7      0.106700
     39 H8         -0.0100   -1.2660   -6.8160 h4        1 2H7      0.234000
     40 H9         -0.7970   -1.7380   -3.3700 hx        1 2H7      0.124700
     41 H10        -0.8800   -0.1530   -4.2840 hx        1 2H7      0.124700
     42 H11         0.9570   -0.8410   -2.0220 hn        1 2H7      0.465300
     43 H12         1.9770    0.7470   -0.6910 ha        1 2H7      0.155000
     44 H13        -2.2520    1.3530    0.2110 ha        1 2H7      0.155000
     45 H14         1.9050   -2.5310   -9.8410 hc        1 2H7      0.070200
     46 H15         0.5590   -2.8240   -8.6640 hc        1 2H7      0.070200
     47 H16        -1.9350    0.9960   -9.4210 ha        1 2H7      0.153000
     48 H17         3.4460    2.4250   -9.8200 ha        1 2H7      0.139000
     49 H18         0.1740    5.2020  -10.3350 ha        1 2H7      0.156000
     50 H19         3.6060   -4.0770   -6.9350 hc        1 2H7      0.135700
     51 H20         2.2590   -4.5040   -8.0780 hc        1 2H7      0.135700
     52 H21         5.0620   -5.2630  -10.2510 hn        1 2H7      0.473300
     53 H22         3.9170   -7.0210   -9.5270 ho        1 2H7      0.488000
     54 H3          2.9810    0.0650   -9.3490 ha        1 2H7      0.127000
     55 H082        1.0330    0.5720   -2.8890 hn        1 2H7      0.465300
     56 H312        5.3880   -5.4860   -8.6070 hn        1 2H7      0.473300
     57 H4         -1.1130   -1.3090   -8.9740 ha        1 2H7      0.133000
@<TRIPOS>BOND
     1    1   18 1   
     2    1   20 ar  
     3    1   22 ar  
     4    2   20 ar  
     5    2   21 ar  
     6    2   34 1   
     7    3   21 ar  
     8    3   22 ar  
     9    3   35 1   
    10    4    5 ar  
    11    4   24 ar  
    12    4   54 1   
    13    5    6 ar  
    14    5   26 ar  
    15    6    9 ar  
    16    6   25 ar  
    17    7   24 ar  
    18    7   25 ar  
    19    7   57 1   
    20    8   26 ar  
    21    8   27 ar  
    22    8   36 1   
    23    9   27 ar  
    24    9   37 1   
    25   10   11 1   
    26   10   23 1   
    27   10   28 1   
    28   10   38 1   
    29   11   12 1   
    30   11   15 1   
    31   12   13 2   
    32   12   39 1   
    33   13   14 1   
    34   13   16 1   
    35   14   15 2   
    36   16   17 1   
    37   16   40 1   
    38   16   41 1   
    39   17   18 1   
    40   17   42 1   
    41   17   55 1   
    42   18   19 2   
    43   20   43 1   
    44   21   33 1   
    45   22   44 1   
    46   23   24 1   
    47   23   45 1   
    48   23   46 1   
    49   25   47 1   
    50   26   48 1   
    51   27   49 1   
    52   28   29 1   
    53   28   50 1   
    54   28   51 1   
    55   29   30 1   
    56   29   32 2   
    57   30   31 1   
    58   30   52 1   
    59   30   56 1   
    60   31   53 1   
@<TRIPOS>SUBSTRUCTURE
     1 2H7         1 TEMP              0 ****  ****    0 ROOT
