@<TRIPOS>MOLECULE
2H8
   45    45     1     0     0
SMALL
bcc


@<TRIPOS>ATOM
      1 CAA        -0.1380    0.1050    0.2290 c3        1 2H8     -0.095600
      2 CAI         1.3570    0.2640    0.1350 c3        1 2H8     -0.100900
      3 CAR         2.0360    0.0600    1.4860 c3        1 2H8      0.143100
      4 CAJ         3.5340   -0.1750    1.3240 c3        1 2H8     -0.100900
      5 CAB         4.2090   -0.5730    2.6100 c3        1 2H8     -0.095600
      6 OAM         1.8490    1.2910    2.2270 os        1 2H8     -0.481600
      7 CAS         1.4280    1.1090    3.5740 c3        1 2H8      0.145100
      8 CAK        -0.0500    0.7760    3.7030 c3        1 2H8     -0.112200
      9 CAP        -0.3780    0.6800    5.1410 ce        1 2H8     -0.034400
     10 CAO        -1.4480   -0.3780    5.5610 c         1 2H8      0.920800
     11 OAG        -2.1490   -0.0470    6.5400 o         1 2H8     -0.746300
     12 OAF        -1.4610   -1.4070    4.8540 o         1 2H8     -0.746300
     13 CAH         0.2660    1.4250    6.0540 c2        1 2H8     -0.375200
     14 CAQ         1.1930    2.5310    5.7150 c3        1 2H8      0.209700
     15 NAD         0.4190    3.8190    5.9970 n4        1 2H8     -0.867600
     16 CAT         1.6960    2.4990    4.2460 c3        1 2H8      0.098500
     17 NAL         3.1680    2.8110    4.1100 n4        1 2H8     -0.696800
     18 CAN         3.5190    4.2780    4.1100 c         1 2H8      0.582100
     19 OAE         2.7600    5.0190    4.7210 o         1 2H8     -0.475100
     20 CAC         4.7470    4.6520    3.3530 c3        1 2H8     -0.195100
     21 H1         -0.4110   -0.9280    0.5580 hc        1 2H8      0.039700
     22 H2         -0.6070    0.2920   -0.7680 hc        1 2H8      0.039700
     23 H3         -0.5630    0.8300    0.9650 hc        1 2H8      0.039700
     24 H4          1.7730   -0.4900   -0.5850 hc        1 2H8      0.062950
     25 H5          1.6120    1.2840   -0.2550 hc        1 2H8      0.062950
     26 H6          1.5610   -0.7990    2.0350 h1        1 2H8      0.083700
     27 H7          3.6750   -0.9940    0.5680 hc        1 2H8      0.062950
     28 H8          4.0110    0.7510    0.9070 hc        1 2H8      0.062950
     29 H9          4.1760    0.2650    3.3520 hc        1 2H8      0.039700
     30 H10         3.7090   -1.4620    3.0660 hc        1 2H8      0.039700
     31 H11         5.2800   -0.8300    2.4220 hc        1 2H8      0.039700
     32 H12         2.0430    0.3080    4.0740 h1        1 2H8      0.082700
     33 H13        -0.2630   -0.2260    3.2170 hc        1 2H8      0.119200
     34 H14        -0.6920    1.5320    3.1790 hc        1 2H8      0.119200
     35 H16         0.0730    1.2570    7.1290 ha        1 2H8      0.194000
     36 H17         2.0620    2.5490    6.4410 hx        1 2H8      0.089700
     37 H18         0.9780    4.6590    5.8370 hn        1 2H8      0.461467
     38 H19        -0.4220    3.8420    5.4090 hn        1 2H8      0.461467
     39 H21         1.1560    3.2640    3.6080 hx        1 2H8      0.118700
     40 H22         3.4690    2.3980    3.2030 hn        1 2H8      0.482300
     41 H23         5.0200    5.7110    3.6110 hc        1 2H8      0.125700
     42 H24         5.6110    3.9840    3.6000 hc        1 2H8      0.125700
     43 H25         4.5450    4.5960    2.2500 hc        1 2H8      0.125700
     44 HAD3        0.1080    3.7880    6.9760 hn        1 2H8      0.461467
     45 HAL2        3.6900    2.3360    4.8570 hn        1 2H8      0.482300
@<TRIPOS>BOND
     1    1    2 1   
     2    1   21 1   
     3    1   22 1   
     4    1   23 1   
     5    2    3 1   
     6    2   24 1   
     7    2   25 1   
     8    3    4 1   
     9    3    6 1   
    10    3   26 1   
    11    4    5 1   
    12    4   27 1   
    13    4   28 1   
    14    5   29 1   
    15    5   30 1   
    16    5   31 1   
    17    6    7 1   
    18    7    8 1   
    19    7   16 1   
    20    7   32 1   
    21    8    9 1   
    22    8   33 1   
    23    8   34 1   
    24    9   10 1   
    25    9   13 2   
    26   10   11 1   
    27   10   12 1   
    28   13   14 1   
    29   13   35 1   
    30   14   15 1   
    31   14   16 1   
    32   14   36 1   
    33   15   37 1   
    34   15   38 1   
    35   15   44 1   
    36   16   17 1   
    37   16   39 1   
    38   17   18 1   
    39   17   40 1   
    40   17   45 1   
    41   18   19 2   
    42   18   20 1   
    43   20   41 1   
    44   20   42 1   
    45   20   43 1   
@<TRIPOS>SUBSTRUCTURE
     1 2H8         1 TEMP              0 ****  ****    0 ROOT
