@<TRIPOS>MOLECULE
2H8
   43    43     1     0     0
SMALL
bcc


@<TRIPOS>ATOM
      1 CAA         0.2430   -3.6340    1.6230 c3        1 2H8     -0.096600
      2 CAI        -1.0400   -3.5530    0.8400 c3        1 2H8     -0.091400
      3 CAR        -0.9380   -2.5490   -0.3090 c3        1 2H8      0.141100
      4 CAJ        -2.0930   -2.7500   -1.2920 c3        1 2H8     -0.091400
      5 CAB        -1.8890   -1.9990   -2.5810 c3        1 2H8     -0.096600
      6 OAM        -1.0400   -1.2420    0.2650 os        1 2H8     -0.443600
      7 CAS        -0.0630   -0.3090   -0.2240 c3        1 2H8      0.126100
      8 CAK         1.3100   -0.5750    0.3770 c3        1 2H8     -0.066200
      9 CAP         2.2720    0.4520   -0.0950 ce        1 2H8     -0.153400
     10 CAO         3.7210    0.0070   -0.2400 c         1 2H8      0.905800
     11 OAG         4.6020    0.8860   -0.4510 o         1 2H8     -0.833800
     12 OAF         3.9630   -1.2330   -0.1610 o         1 2H8     -0.833800
     13 CAH         1.8720    1.6870   -0.4110 c2        1 2H8     -0.198200
     14 CAQ         0.4460    2.1610   -0.4130 c3        1 2H8      0.221700
     15 NAD         0.3090    3.4330    0.2790 n3        1 2H8     -0.915800
     16 CAT        -0.5440    1.1050    0.1940 c3        1 2H8      0.092700
     17 NAL        -1.9110    1.3510   -0.2380 n         1 2H8     -0.543900
     18 CAN        -2.8180    2.0680    0.5180 c         1 2H8      0.642100
     19 OAE        -2.4730    2.8350    1.4410 o         1 2H8     -0.610100
     20 CAC        -4.2760    1.9500    0.1280 c3        1 2H8     -0.179100
     21 H1          0.1290   -4.3350    2.4840 hc        1 2H8      0.037367
     22 H2          1.0820   -3.9930    0.9790 hc        1 2H8      0.037367
     23 H3          0.5190   -2.6230    2.0140 hc        1 2H8      0.037367
     24 H4         -1.2910   -4.5610    0.4160 hc        1 2H8      0.037450
     25 H5         -1.8810   -3.2450    1.5140 hc        1 2H8      0.037450
     26 H6          0.0430   -2.6800   -0.8430 h1        1 2H8      0.065700
     27 H7         -2.1880   -3.8450   -1.5110 hc        1 2H8      0.037450
     28 H8         -3.0450   -2.4160   -0.8030 hc        1 2H8      0.037450
     29 H9         -2.7140   -2.2270   -3.2980 hc        1 2H8      0.037367
     30 H10        -1.8780   -0.8970   -2.3950 hc        1 2H8      0.037367
     31 H11        -0.9180   -2.2810   -3.0550 hc        1 2H8      0.037367
     32 H12        -0.0130   -0.3810   -1.3470 h1        1 2H8      0.041700
     33 H13         1.2490   -0.5480    1.4980 hc        1 2H8      0.071200
     34 H14         1.6770   -1.5980    0.0880 hc        1 2H8      0.071200
     35 H16         2.6230    2.4330   -0.7240 ha        1 2H8      0.145000
     36 H17         0.1670    2.2690   -1.5150 h1        1 2H8     -0.005300
     37 H18         0.8500    4.1350   -0.1820 hn        1 2H8      0.350300
     38 H19        -0.6480    3.7150    0.3360 hn        1 2H8      0.350300
     39 H21        -0.5010    1.1760    1.3220 h1        1 2H8      0.094700
     40 H22        -2.2910    0.6430   -0.8270 hn        1 2H8      0.296500
     41 H23        -4.6340    0.9050    0.2910 hc        1 2H8      0.056033
     42 H24        -4.8770    2.6430    0.7640 hc        1 2H8      0.056033
     43 H25        -4.4230    2.2230   -0.9450 hc        1 2H8      0.056033
@<TRIPOS>BOND
     1    1    2 1   
     2    1   21 1   
     3    1   22 1   
     4    1   23 1   
     5    2    3 1   
     6    2   24 1   
     7    2   25 1   
     8    3    4 1   
     9    3    6 1   
    10    3   26 1   
    11    4    5 1   
    12    4   27 1   
    13    4   28 1   
    14    5   29 1   
    15    5   30 1   
    16    5   31 1   
    17    6    7 1   
    18    7    8 1   
    19    7   16 1   
    20    7   32 1   
    21    8    9 1   
    22    8   33 1   
    23    8   34 1   
    24    9   10 1   
    25    9   13 2   
    26   10   11 1   
    27   10   12 1   
    28   13   14 1   
    29   13   35 1   
    30   14   15 1   
    31   14   16 1   
    32   14   36 1   
    33   15   37 1   
    34   15   38 1   
    35   16   17 1   
    36   16   39 1   
    37   17   18 1   
    38   17   40 1   
    39   18   19 2   
    40   18   20 1   
    41   20   41 1   
    42   20   42 1   
    43   20   43 1   
@<TRIPOS>SUBSTRUCTURE
     1 2H8         1 TEMP              0 ****  ****    0 ROOT
