@<TRIPOS>MOLECULE
2H8
   43    41     1     0     0
SMALL
bcc


@<TRIPOS>ATOM
      1 CAA        -2.9800   -1.3340   -2.6220 c3        1 2H8     -0.211500
      2 CAI        -1.4430   -1.3340   -2.6220 c3        1 2H8     -0.169500
      3 CAR        -0.9240   -1.3340   -1.1590 c3        1 2H8      0.028000
      4 CAJ        -0.1920   -2.6690   -0.8710 c3        1 2H8     -0.169500
      5 CAB        -1.2260   -3.7850   -0.6490 c3        1 2H8     -0.211500
      6 OAM        -0.0060   -0.2290   -0.9730 os        1 2H8     -0.292000
      7 CAS        -0.0350    0.3640    0.4100 c3        1 2H8      0.015000
      8 CAK        -1.5620    1.1080    0.6370 c3        1 2H8     -0.150000
      9 CAP        -1.6110    1.8760    1.9080 c2        1 2H8     -0.122000
     10 CAO        -2.9470    2.3910    2.4380 c2        1 2H8      0.355000
     11 OAG        -3.4650    3.4290    1.9400 o         1 2H8     -0.566500
     12 OAF        -3.5050    1.8120    3.4120 o         1 2H8     -0.566500
     13 CAH        -0.1330    2.6380    2.3930 c1        1 2H8     -0.241000
     14 CAQ         1.1060    1.9380    2.0260 c2        1 2H8     -0.006000
     15 NAD         2.2390    2.8220    2.0470 n3        1 2H8     -0.346000
     16 CAT         0.9740    1.1260    0.5350 c3        1 2H8      0.022000
     17 NAL         2.2270    0.2860    0.3410 n3        1 2H8     -0.353000
     18 CAN         3.3300    0.8050   -0.4330 c1        1 2H8      0.309000
     19 OAE         3.2560    1.9150   -0.9310 o         1 2H8     -0.395000
     20 CAC         4.6240   -0.0080   -0.5620 c2        1 2H8     -0.242000
     21 H1         -3.3050   -2.0120   -3.2430 hc        1 2H8      0.074833
     22 H2         -3.3050   -1.5330   -1.7230 hc        1 2H8      0.074833
     23 H3         -3.3050   -0.4560   -2.8980 hc        1 2H8      0.074833
     24 H4         -1.1170   -0.5370   -3.0820 hc        1 2H8      0.078750
     25 H5         -1.1170   -2.1310   -3.0820 hc        1 2H8      0.078750
     26 H6         -1.6780   -1.2370   -0.5470 h1        1 2H8      0.101000
     27 H7          0.3770   -2.8990   -1.6310 hc        1 2H8      0.078750
     28 H8          0.3590   -2.5720   -0.0710 hc        1 2H8      0.078750
     29 H9         -0.8220   -4.5040   -0.1260 hc        1 2H8      0.074833
     30 H10        -1.9950   -3.4250   -0.1670 hc        1 2H8      0.074833
     31 H11        -1.5180   -4.1350   -1.5120 hc        1 2H8      0.074833
     32 H12         0.0490   -0.3630    1.0570 h1        1 2H8      0.077000
     33 H13        -2.2490    0.4220    0.5340 hc        1 2H8      0.111000
     34 H14        -1.7950    1.7130   -0.0930 hc        1 2H8      0.111000
     35 H16        -0.1330    3.2760    3.1320 ha        1 2H8      0.145000
     36 H17         1.3540    1.3070    2.7280 h4        1 2H8      0.083000
     37 H18         2.5540    2.8920    2.9000 hn        1 2H8      0.146000
     38 H19         1.9880    3.6460    1.7480 hn        1 2H8      0.146000
     39 H21         0.9400    1.7950   -0.1750 h1        1 2H8      0.126000
     40 H22         2.2990   -0.5250    0.7520 hn        1 2H8      0.217000
     41 H23         4.4940   -0.7250   -1.2120 ha        1 2H8      0.094667
     42 H24         4.8540   -0.3930    0.3050 ha        1 2H8      0.094667
     43 H25         5.3460    0.5760   -0.8610 ha        1 2H8      0.094667
@<TRIPOS>BOND
     1    1    2 1   
     2    1   21 1   
     3    1   22 1   
     4    1   23 1   
     5    2    3 1   
     6    2   24 1   
     7    2   25 1   
     8    3    4 1   
     9    3    6 1   
    10    3   26 1   
    11    4    5 1   
    12    4   27 1   
    13    4   28 1   
    14    5   29 1   
    15    5   30 1   
    16    5   31 1   
    17    6    7 1   
    18    7    8 1   
    19    7   16 1   
    20    7   32 1   
    21    8    9 1   
    22    8   33 1   
    23    8   34 1   
    24    9   10 1   
    25    9   13 1   
    26   10   11 1   
    27   10   12 1   
    28   13   35 1   
    29   14   15 1   
    30   14   16 1   
    31   14   36 1   
    32   15   37 1   
    33   15   38 1   
    34   16   17 1   
    35   16   39 1   
    36   17   18 1   
    37   17   40 1   
    38   18   19 1   
    39   20   41 1   
    40   20   42 1   
    41   20   43 1   
@<TRIPOS>SUBSTRUCTURE
     1 2H8         1 TEMP              0 ****  ****    0 ROOT
