@<TRIPOS>MOLECULE
2H8
   45    45     1     0     0
SMALL
bcc


@<TRIPOS>ATOM
      1 CAA        -0.1410    0.1160    0.2270 c3        1 2H8     -0.095600
      2 CAI         1.3540    0.2710    0.1330 c3        1 2H8     -0.100900
      3 CAR         2.0340    0.0630    1.4830 c3        1 2H8      0.143100
      4 CAJ         3.5310   -0.1740    1.3190 c3        1 2H8     -0.100900
      5 CAB         4.2060   -0.5770    2.6030 c3        1 2H8     -0.095600
      6 OAM         1.8490    1.2920    2.2280 os        1 2H8     -0.481600
      7 CAS         1.4290    1.1070    3.5750 c3        1 2H8      0.145100
      8 CAK        -0.0500    0.7750    3.7040 c3        1 2H8     -0.112200
      9 CAP        -0.3770    0.6760    5.1420 ce        1 2H8     -0.034400
     10 CAO        -1.4480   -0.3810    5.5600 c         1 2H8      0.920800
     11 OAG        -2.1470   -0.0520    6.5410 o         1 2H8     -0.746300
     12 OAF        -1.4640   -1.4080    4.8490 o         1 2H8     -0.746300
     13 CAH         0.2700    1.4170    6.0570 c2        1 2H8     -0.375200
     14 CAQ         1.2000    2.5210    5.7210 c3        1 2H8      0.209700
     15 NAD         0.4300    3.8110    6.0090 nz        1 2H8     -0.867600
     16 CAT         1.7000    2.4940    4.2500 c3        1 2H8      0.098500
     17 NAL         3.1720    2.8040    4.1140 ny        1 2H8     -0.696800
     18 CAN         3.5250    4.2710    4.1140 c         1 2H8      0.582100
     19 OAE         2.7680    5.0110    4.7300 o         1 2H8     -0.475100
     20 CAC         4.7490    4.6450    3.3540 c3        1 2H8     -0.195100
     21 H1         -0.5650    0.8400    0.9660 hc        1 2H8      0.039700
     22 H2         -0.6110    0.3070   -0.7680 hc        1 2H8      0.039700
     23 H3         -0.4160   -0.9170    0.5540 hc        1 2H8      0.039700
     24 H4          1.7670   -0.4810   -0.5900 hc        1 2H8      0.062950
     25 H5          1.6110    1.2920   -0.2540 hc        1 2H8      0.062950
     26 H6          1.5570   -0.7970    2.0290 h1        1 2H8      0.083700
     27 H7          3.6700   -0.9920    0.5600 hc        1 2H8      0.062950
     28 H8          4.0090    0.7510    0.9040 hc        1 2H8      0.062950
     29 H9          4.1760    0.2580    3.3470 hc        1 2H8      0.039700
     30 H10         5.2770   -0.8360    2.4140 hc        1 2H8      0.039700
     31 H11         3.7050   -1.4680    3.0570 hc        1 2H8      0.039700
     32 H12         2.0430    0.3020    4.0720 h1        1 2H8      0.082700
     33 H13        -0.2640   -0.2240    3.2160 hc        1 2H8      0.119200
     34 H14        -0.6900    1.5340    3.1830 hc        1 2H8      0.119200
     35 H16         0.0770    1.2450    7.1310 ha        1 2H8      0.194000
     36 H17         2.0700    2.5340    6.4450 hx        1 2H8      0.089700
     37 H18         0.1200    3.7760    6.9890 hn        1 2H8      0.461467
     38 H19         0.9910    4.6490    5.8520 hn        1 2H8      0.461467
     39 H21         1.1600    3.2620    3.6160 hx        1 2H8      0.118700
     40 H22         3.6950    2.3280    4.8590 hn        1 2H8      0.482300
     41 H23         5.0250    5.7040    3.6120 hc        1 2H8      0.125700
     42 H24         4.5430    4.5920    2.2520 hc        1 2H8      0.125700
     43 H25         5.6140    3.9770    3.5970 hc        1 2H8      0.125700
     44 HAD3       -0.4120    3.8390    5.4220 hn        1 2H8      0.461467
     45 HAL2        3.4710    2.3920    3.2050 hn        1 2H8      0.482300
@<TRIPOS>BOND
     1    1    2 1   
     2    1   21 1   
     3    1   22 1   
     4    1   23 1   
     5    2    3 1   
     6    2   24 1   
     7    2   25 1   
     8    3    4 1   
     9    3    6 1   
    10    3   26 1   
    11    4    5 1   
    12    4   27 1   
    13    4   28 1   
    14    5   29 1   
    15    5   30 1   
    16    5   31 1   
    17    6    7 1   
    18    7    8 1   
    19    7   16 1   
    20    7   32 1   
    21    8    9 1   
    22    8   33 1   
    23    8   34 1   
    24    9   10 1   
    25    9   13 2   
    26   10   11 1   
    27   10   12 1   
    28   13   14 1   
    29   13   35 1   
    30   14   15 1   
    31   14   16 1   
    32   14   36 1   
    33   15   37 1   
    34   15   38 1   
    35   15   44 1   
    36   16   17 1   
    37   16   39 1   
    38   17   18 1   
    39   17   40 1   
    40   17   45 1   
    41   18   19 2   
    42   18   20 1   
    43   20   41 1   
    44   20   42 1   
    45   20   43 1   
@<TRIPOS>SUBSTRUCTURE
     1 2H8         1 TEMP              0 ****  ****    0 ROOT
