@<TRIPOS>MOLECULE
2H8
   45    45     1     0     0
SMALL
bcc


@<TRIPOS>ATOM
      1 CAA        -0.1330    0.1100    0.2240 c3        1 2H8     -0.095600
      2 CAI         1.3620    0.2690    0.1330 c3        1 2H8     -0.100900
      3 CAR         2.0390    0.0620    1.4850 c3        1 2H8      0.143100
      4 CAJ         3.5370   -0.1740    1.3240 c3        1 2H8     -0.100900
      5 CAB         4.2100   -0.5760    2.6100 c3        1 2H8     -0.095600
      6 OAM         1.8520    1.2910    2.2290 os        1 2H8     -0.481600
      7 CAS         1.4290    1.1070    3.5740 c3        1 2H8      0.145100
      8 CAK        -0.0500    0.7740    3.7000 c3        1 2H8     -0.112200
      9 CAP        -0.3810    0.6760    5.1370 ce        1 2H8     -0.034400
     10 CAO        -1.4530   -0.3800    5.5540 c         1 2H8      0.920800
     11 OAG        -2.1540   -0.0510    6.5330 o         1 2H8     -0.746300
     12 OAF        -1.4680   -1.4080    4.8430 o         1 2H8     -0.746300
     13 CAH         0.2640    1.4170    6.0540 c2        1 2H8     -0.375200
     14 CAQ         1.1940    2.5220    5.7200 c3        1 2H8      0.209700
     15 NAD         0.4240    3.8110    6.0060 n4        1 2H8     -0.867600
     16 CAT         1.6980    2.4940    4.2500 c3        1 2H8      0.098500
     17 NAL         3.1700    2.8050    4.1160 n4        1 2H8     -0.696800
     18 CAN         3.5210    4.2730    4.1160 c         1 2H8      0.582100
     19 OAE         2.7630    5.0130    4.7300 o         1 2H8     -0.475100
     20 CAC         4.7460    4.6470    3.3560 c3        1 2H8     -0.195100
     21 H1         -0.4070   -0.9230    0.5510 hc        1 2H8      0.039700
     22 H2         -0.5590    0.8340    0.9620 hc        1 2H8      0.039700
     23 H3         -0.6010    0.3000   -0.7720 hc        1 2H8      0.039700
     24 H4          1.7780   -0.4830   -0.5880 hc        1 2H8      0.062950
     25 H5          1.6180    1.2900   -0.2540 hc        1 2H8      0.062950
     26 H6          1.5630   -0.7990    2.0310 h1        1 2H8      0.083700
     27 H7          3.6790   -0.9910    0.5660 hc        1 2H8      0.062950
     28 H8          4.0150    0.7520    0.9110 hc        1 2H8      0.062950
     29 H9          4.1770    0.2600    3.3540 hc        1 2H8      0.039700
     30 H10         5.2810   -0.8330    2.4230 hc        1 2H8      0.039700
     31 H11         3.7090   -1.4660    3.0630 hc        1 2H8      0.039700
     32 H12         2.0430    0.3030    4.0740 h1        1 2H8      0.083700
     33 H13        -0.2630   -0.2260    3.2120 hc        1 2H8      0.119200
     34 H14        -0.6900    1.5320    3.1770 hc        1 2H8      0.119200
     35 H16         0.0690    1.2460    7.1280 ha        1 2H8      0.194000
     36 H17         2.0630    2.5350    6.4460 hx        1 2H8      0.089700
     37 H18         0.1110    3.7770    6.9850 hn        1 2H8      0.461467
     38 H19        -0.4170    3.8390    5.4170 hn        1 2H8      0.461467
     39 H21         1.1580    3.2620    3.6140 hx        1 2H8      0.118700
     40 H22         3.6910    2.3310    4.8630 hn        1 2H8      0.482300
     41 H23         5.0200    5.7070    3.6140 hc        1 2H8      0.125700
     42 H24         5.6110    3.9800    3.6000 hc        1 2H8      0.125700
     43 H25         4.5410    4.5930    2.2530 hc        1 2H8      0.125700
     44 HAD3        0.9850    4.6500    5.8500 hn        1 2H8      0.461467
     45 HAL2        3.4710    2.3930    3.2080 hn        1 2H8      0.482300
@<TRIPOS>BOND
     1    1    2 1   
     2    1   21 1   
     3    1   22 1   
     4    1   23 1   
     5    2    3 1   
     6    2   24 1   
     7    2   25 1   
     8    3    4 1   
     9    3    6 1   
    10    3   26 1   
    11    4    5 1   
    12    4   27 1   
    13    4   28 1   
    14    5   29 1   
    15    5   30 1   
    16    5   31 1   
    17    6    7 1   
    18    7    8 1   
    19    7   16 1   
    20    7   32 1   
    21    8    9 1   
    22    8   33 1   
    23    8   34 1   
    24    9   10 1   
    25    9   13 2   
    26   10   11 1   
    27   10   12 1   
    28   13   14 1   
    29   13   35 1   
    30   14   15 1   
    31   14   16 1   
    32   14   36 1   
    33   15   37 1   
    34   15   38 1   
    35   15   44 1   
    36   16   17 1   
    37   16   39 1   
    38   17   18 1   
    39   17   40 1   
    40   17   45 1   
    41   18   19 2   
    42   18   20 1   
    43   20   41 1   
    44   20   42 1   
    45   20   43 1   
@<TRIPOS>SUBSTRUCTURE
     1 2H8         1 TEMP              0 ****  ****    0 ROOT
