@<TRIPOS>MOLECULE
2H9
   45    45     1     0     0
SMALL
bcc


@<TRIPOS>ATOM
      1 CAM         0.3300   -1.0790    0.4570 ca        1 2H9     -0.072000
      2 CAK         1.6430   -0.6100    0.3960 ca        1 2H9     -0.156500
      3 CAJ         1.9860    0.6000    0.9990 ca        1 2H9     -0.117000
      4 CAL         1.0200    1.3540    1.6650 ca        1 2H9     -0.156500
      5 CAN        -0.2970    0.8990    1.7370 ca        1 2H9     -0.072000
      6 CAY        -0.6280   -0.3220    1.1400 ca        1 2H9     -0.161600
      7 CAX        -2.0150   -0.8340    1.2480 c         1 2H9      0.640700
      8 OAD        -2.5230   -1.3380    2.2440 o         1 2H9     -0.491100
      9 NAR        -2.7740   -0.8240   -0.0370 ny        1 2H9     -0.647800
     10 CBA        -4.1990   -0.4300    0.1490 c3        1 2H9     -0.023500
     11 CAW        -4.3170    0.8980    0.9910 c         1 2H9      0.932600
     12 OAH        -5.4490    1.4250    1.0620 o         1 2H9     -0.807300
     13 OAC        -3.2660    1.2900    1.5750 o         1 2H9     -0.807300
     14 CAQ        -4.9630   -0.3370   -1.1800 c3        1 2H9      0.171400
     15 OAT        -4.1150    0.0320   -2.2380 os        1 2H9     -0.587200
     16 PBB        -4.8740    0.1370   -3.6940 p5        1 2H9      1.316700
     17 OAI        -4.7510    1.4990   -4.2280 o         1 2H9     -0.774000
     18 OAE        -6.1320   -0.6340   -3.5750 o         1 2H9     -0.774000
     19 N          -3.9060   -0.9190   -4.7230 ny        1 2H9     -0.733100
     20 CA         -2.4620   -0.8970   -4.4050 c3        1 2H9     -0.034500
     21 C          -1.6090   -0.4620   -5.6700 c         1 2H9      0.926600
     22 OXT        -0.4270   -0.1110   -5.4570 o         1 2H9     -0.810300
     23 O          -2.1890   -0.5240   -6.7910 o         1 2H9     -0.810300
     24 CB         -1.8830   -2.2370   -3.9480 c3        1 2H9     -0.068400
     25 CG         -2.7110   -3.0050   -2.9430 c3        1 2H9     -0.208400
     26 CD         -1.8210   -3.7580   -1.9510 c         1 2H9      0.919600
     27 OE2        -1.6030   -3.2060   -0.8150 o         1 2H9     -0.851800
     28 OE1        -1.3470   -4.8830   -2.2480 o         1 2H9     -0.851800
     29 H1          0.0410   -2.0320   -0.0330 ha        1 2H9      0.198000
     30 H2          2.4010   -1.1950   -0.1450 ha        1 2H9      0.127000
     31 H3          3.0210    0.9670    0.9390 ha        1 2H9      0.113000
     32 H4          1.2880    2.3150    2.1240 ha        1 2H9      0.127000
     33 H5         -1.0890    1.4920    2.2300 ha        1 2H9      0.198000
     34 H6         -2.3490   -0.1440   -0.6770 hn        1 2H9      0.485300
     35 H7         -4.6870   -1.2320    0.7770 hx        1 2H9      0.084700
     36 H9         -5.4270   -1.3310   -1.4330 h1        1 2H9      0.063700
     37 H10        -5.7730    0.4360   -1.0690 h1        1 2H9      0.063700
     38 H12        -4.2510   -1.8740   -4.6740 hn        1 2H9      0.442300
     39 H13        -2.3130   -0.1190   -3.6030 hx        1 2H9      0.090700
     40 H15        -1.7080   -2.8850   -4.8480 hc        1 2H9      0.066700
     41 H16        -0.8710   -2.0010   -3.5190 hc        1 2H9      0.066700
     42 H17        -3.3770   -2.3220   -2.3560 hc        1 2H9      0.026700
     43 H18        -3.3650   -3.7470   -3.4690 hc        1 2H9      0.026700
     44 HAR2       -2.6890   -1.7830   -0.4750 hn        1 2H9      0.485300
     45 H21        -3.9790   -0.6230   -5.7100 hn        1 2H9      0.442300
@<TRIPOS>BOND
     1    1    2 ar  
     2    1    6 ar  
     3    1   29 1   
     4    2    3 ar  
     5    2   30 1   
     6    3    4 ar  
     7    3   31 1   
     8    4    5 ar  
     9    4   32 1   
    10    5    6 ar  
    11    5   33 1   
    12    6    7 1   
    13    7    8 2   
    14    7    9 1   
    15    9   10 1   
    16    9   34 1   
    17    9   44 1   
    18   10   11 1   
    19   10   14 1   
    20   10   35 1   
    21   11   12 1   
    22   11   13 1   
    23   14   15 1   
    24   14   36 1   
    25   14   37 1   
    26   15   16 1   
    27   16   17 1   
    28   16   18 1   
    29   16   19 1   
    30   19   20 1   
    31   19   38 1   
    32   19   45 1   
    33   20   21 1   
    34   20   24 1   
    35   20   39 1   
    36   21   22 1   
    37   21   23 1   
    38   24   25 1   
    39   24   40 1   
    40   24   41 1   
    41   25   26 1   
    42   25   42 1   
    43   25   43 1   
    44   26   27 1   
    45   26   28 1   
@<TRIPOS>SUBSTRUCTURE
     1 2H9         1 TEMP              0 ****  ****    0 ROOT
