@<TRIPOS>MOLECULE
2H9
   45    45     1     0     0
SMALL
bcc


@<TRIPOS>ATOM
      1 CAM         0.3160   -1.1210    0.4680 ca        1 2H9     -0.072000
      2 CAK         1.6360   -0.6730    0.4120 ca        1 2H9     -0.156500
      3 CAJ         1.9960    0.5300    1.0180 ca        1 2H9     -0.117000
      4 CAL         1.0390    1.2990    1.6800 ca        1 2H9     -0.156500
      5 CAN        -0.2850    0.8650    1.7460 ca        1 2H9     -0.072000
      6 CAY        -0.6330   -0.3490    1.1470 ca        1 2H9     -0.161600
      7 CAX        -2.0280   -0.8400    1.2480 c         1 2H9      0.640700
      8 OAD        -2.5480   -1.3360    2.2430 o         1 2H9     -0.491100
      9 NAR        -2.7810   -0.8160   -0.0390 n4        1 2H9     -0.647800
     10 CBA        -4.2010   -0.4000    0.1410 c3        1 2H9     -0.023500
     11 CAW        -4.3010    0.9290    0.9830 c         1 2H9      0.932600
     12 OAH        -5.4250    1.4740    1.0500 o         1 2H9     -0.807300
     13 OAC        -3.2460    1.3040    1.5720 o         1 2H9     -0.807300
     14 CAQ        -4.9580   -0.2940   -1.1910 c3        1 2H9      0.171400
     15 OAT        -4.0990    0.0620   -2.2460 os        1 2H9     -0.587200
     16 PBB        -4.8490    0.1810   -3.7050 p5        1 2H9      1.316700
     17 OAI        -4.7020    1.5410   -4.2370 o         1 2H9     -0.774000
     18 OAE        -6.1200   -0.5700   -3.5920 o         1 2H9     -0.774000
     19 N          -3.8930   -0.8890   -4.7310 n4        1 2H9     -0.733100
     20 CA         -2.4500   -0.8910   -4.4060 c3        1 2H9     -0.034500
     21 C          -1.5850   -0.4690   -5.6670 c         1 2H9      0.926600
     22 OXT        -0.3980   -0.1370   -5.4470 o         1 2H9     -0.810300
     23 O          -2.1610   -0.5190   -6.7900 o         1 2H9     -0.810300
     24 CB         -1.8960   -2.2410   -3.9480 c3        1 2H9     -0.068400
     25 CG         -2.7410   -2.9960   -2.9470 c3        1 2H9     -0.208400
     26 CD         -1.8680   -3.7640   -1.9520 c         1 2H9      0.919600
     27 OE2        -1.6450   -3.2160   -0.8150 o         1 2H9     -0.851800
     28 OE1        -1.4110   -4.8960   -2.2470 o         1 2H9     -0.851800
     29 H1          0.0130   -2.0690   -0.0250 ha        1 2H9      0.198000
     30 H2          2.3870   -1.2700   -0.1270 ha        1 2H9      0.127000
     31 H3          3.0370    0.8810    0.9620 ha        1 2H9      0.113000
     32 H4          1.3210    2.2550    2.1410 ha        1 2H9      0.127000
     33 H5         -1.0700    1.4700    2.2360 ha        1 2H9      0.198000
     34 H6         -2.7100   -1.7770   -0.4770 hn        1 2H9      0.485300
     35 H7         -4.7040   -1.1940    0.7650 hx        1 2H9      0.084700
     36 H9         -5.7560    0.4930   -1.0840 h1        1 2H9      0.063700
     37 H10        -5.4360   -1.2800   -1.4480 h1        1 2H9      0.063700
     38 H12        -4.2540   -1.8380   -4.6840 hn        1 2H9      0.442300
     39 H13        -2.2930   -0.1160   -3.6020 hx        1 2H9      0.090700
     40 H15        -1.7260   -2.8900   -4.8470 hc        1 2H9      0.066700
     41 H16        -0.8820   -2.0220   -3.5130 hc        1 2H9      0.066700
     42 H17        -3.3980   -2.3040   -2.3620 hc        1 2H9      0.026700
     43 H18        -3.4040   -3.7270   -3.4770 hc        1 2H9      0.026700
     44 HAR2       -2.3430   -0.1430   -0.6770 hn        1 2H9      0.485300
     45 H21        -3.9570   -0.5910   -5.7180 hn        1 2H9      0.442300
@<TRIPOS>BOND
     1    1    2 ar  
     2    1    6 ar  
     3    1   29 1   
     4    2    3 ar  
     5    2   30 1   
     6    3    4 ar  
     7    3   31 1   
     8    4    5 ar  
     9    4   32 1   
    10    5    6 ar  
    11    5   33 1   
    12    6    7 1   
    13    7    8 2   
    14    7    9 1   
    15    9   10 1   
    16    9   34 1   
    17    9   44 1   
    18   10   11 1   
    19   10   14 1   
    20   10   35 1   
    21   11   12 1   
    22   11   13 1   
    23   14   15 1   
    24   14   36 1   
    25   14   37 1   
    26   15   16 1   
    27   16   17 1   
    28   16   18 1   
    29   16   19 1   
    30   19   20 1   
    31   19   38 1   
    32   19   45 1   
    33   20   21 1   
    34   20   24 1   
    35   20   39 1   
    36   21   22 1   
    37   21   23 1   
    38   24   25 1   
    39   24   40 1   
    40   24   41 1   
    41   25   26 1   
    42   25   42 1   
    43   25   43 1   
    44   26   27 1   
    45   26   28 1   
@<TRIPOS>SUBSTRUCTURE
     1 2H9         1 TEMP              0 ****  ****    0 ROOT
