@<TRIPOS>MOLECULE
2HA
   12    11     1     0     0
SMALL
bcc


@<TRIPOS>ATOM
      1 O1          0.0360    0.0000   -0.0190 oh        1 2HA     -0.567800
      2 O2          1.0530   -0.0000    2.4490 o         1 2HA     -0.449100
      3 O3          3.6510    0.0000    3.0660 oh        1 2HA     -0.567800
      4 C1          1.4470    0.0000    0.0580 c3        1 2HA      0.026400
      5 C2          1.8490    0.0000    1.5170 c         1 2HA      0.557100
      6 C3          3.3530    0.0000    1.6840 c3        1 2HA      0.026400
      7 H1         -0.1850   -0.0000   -0.9590 ho        1 2HA      0.403000
      8 H3          4.6130   -0.0000    3.1360 ho        1 2HA      0.403000
      9 H1C1        1.8670    0.9160   -0.4400 h1        1 2HA      0.042700
     10 H1C2        1.8670   -0.9160   -0.4400 h1        1 2HA      0.042700
     11 H3C1        3.7790   -0.9160    1.1920 h1        1 2HA      0.042700
     12 H3C2        3.7790    0.9160    1.1920 h1        1 2HA      0.042700
@<TRIPOS>BOND
     1    1    4 1   
     2    1    7 1   
     3    2    5 2   
     4    3    6 1   
     5    3    8 1   
     6    4    5 1   
     7    4    9 1   
     8    4   10 1   
     9    5    6 1   
    10    6   11 1   
    11    6   12 1   
@<TRIPOS>SUBSTRUCTURE
     1 2HA         1 TEMP              0 ****  ****    0 ROOT
