@<TRIPOS>MOLECULE
2HA
   12    11     1     0     0
SMALL
bcc


@<TRIPOS>ATOM
      1 O1         -2.0250    0.8730   -1.1060 oh        1 2HA     -0.584800
      2 O2         -0.9820    0.5830    1.2640 o         1 2HA     -0.527100
      3 O3          1.4350   -0.1340    1.9920 oh        1 2HA     -0.584800
      4 C1         -0.7720    0.2250   -1.0660 c3        1 2HA      0.035400
      5 C2         -0.2910    0.1460    0.3660 c         1 2HA      0.495100
      6 C3          1.0510   -0.4780    0.6790 c3        1 2HA      0.035400
      7 H1         -2.3270    0.8830   -1.9430 ho        1 2HA      0.421000
      8 H3          2.1920   -0.5510    2.1980 ho        1 2HA      0.421000
      9 H1C1       -0.1260    0.7310   -1.6010 h1        1 2HA      0.072200
     10 H1C2       -0.8610   -0.6800   -1.4310 h1        1 2HA      0.072200
     11 H3C1        1.7210   -0.1470    0.0460 h1        1 2HA      0.072200
     12 H3C2        0.9840   -1.4520    0.6030 h1        1 2HA      0.072200
@<TRIPOS>BOND
     1    1    4 1   
     2    1    7 1   
     3    2    5 2   
     4    3    6 1   
     5    3    8 1   
     6    4    5 1   
     7    4    9 1   
     8    4   10 1   
     9    5    6 1   
    10    6   11 1   
    11    6   12 1   
@<TRIPOS>SUBSTRUCTURE
     1 2HA         1 TEMP              0 ****  ****    0 ROOT
