@<TRIPOS>MOLECULE
2HA
   12    11     1     0     0
SMALL
bcc


@<TRIPOS>ATOM
      1 O1          0.4730    0.3460    2.3620 oh        1 2HA     -0.583800
      2 O2         -0.4940   -1.4990    0.5890 o         1 2HA     -0.524100
      3 O3          1.3810    0.5670   -1.6610 oh        1 2HA     -0.583800
      4 C1          0.6250    0.5820    0.9820 c3        1 2HA      0.029900
      5 C2          0.2060   -0.5900    0.1310 c         1 2HA      0.495100
      6 C3          0.6760   -0.6010   -1.3020 c3        1 2HA      0.029900
      7 H1         -0.3330   -0.1750    2.4880 ho        1 2HA      0.410500
      8 H3          0.7480    1.2960   -1.6730 ho        1 2HA      0.410500
      9 H1C1        0.0180    1.4790    0.6780 h1        1 2HA      0.078700
     10 H1C2        1.7180    0.8040    0.8300 h1        1 2HA      0.078700
     11 H3C1        1.4190   -1.4370   -1.4390 h1        1 2HA      0.078700
     12 H3C2       -0.1990   -0.7720   -1.9850 h1        1 2HA      0.078700
@<TRIPOS>BOND
     1    1    4 1   
     2    1    7 1   
     3    2    5 2   
     4    3    6 1   
     5    3    8 1   
     6    4    5 1   
     7    4    9 1   
     8    4   10 1   
     9    5    6 1   
    10    6   11 1   
    11    6   12 1   
@<TRIPOS>SUBSTRUCTURE
     1 2HA         1 TEMP              0 ****  ****    0 ROOT
