@<TRIPOS>MOLECULE
2HB
   53    57     1     0     0
SMALL
bcc


@<TRIPOS>ATOM
      1 C8         -0.8230    0.5350    0.6150 cx        1 2HB     -0.023300
      2 C5          0.3480   -2.1190   -0.2430 c3        1 2HB      0.160300
      3 C2         -1.1200   -4.6060    0.3090 c3        1 2HB     -0.361600
      4 C4          1.0340   -3.4550   -0.4410 c3        1 2HB     -0.361600
      5 C1         -1.7440   -3.2360    0.4680 c3        1 2HB      0.160300
      6 C7         -1.4540   -0.8530    0.8980 cx        1 2HB      0.128700
      7 C9          0.6000    0.8530    0.4070 c2        1 2HB     -0.227200
      8 C10         1.3430    1.1240    1.4940 c2        1 2HB     -0.062400
      9 C11         0.8070    1.1610    2.9320 c3        1 2HB     -0.098600
     10 C12        -0.3350    0.2090    3.0890 c2        1 2HB     -0.003200
     11 C13        -1.0540    0.0360    1.9860 cu        1 2HB     -0.254400
     12 C14         2.0650    0.8760    3.7550 c2        1 2HB      0.226000
     13 C15         3.1490    1.6470    3.0020 c3        1 2HB     -0.103700
     14 C16         2.8680    1.0600    1.5730 c3        1 2HB      0.105600
     15 C17         3.0890   -0.3690    1.6790 c1        1 2HB     -0.359100
     16 C18         2.6630   -1.4010    2.1790 cg        1 2HB      0.036000
     17 C21         1.6980   -2.2360    4.0900 cf        1 2HB      0.690900
     18 C24         0.0430   -4.0810    4.2110 c         1 2HB      0.693900
     19 C26        -1.2550   -7.2210    7.9190 cu        1 2HB     -0.193200
     20 C27        -0.9430   -6.7450    6.5420 cx        1 2HB     -0.094000
     21 C28        -0.8660   -5.9660    7.8100 cu        1 2HB     -0.193200
     22 S3          0.0300   -4.7280   -0.9510 s6        1 2HB      1.342000
     23 O29        -0.5880   -4.3840   -2.1580 o         1 2HB     -0.638300
     24 N6         -0.7460   -2.1600    0.7800 nx        1 2HB     -0.670400
     25 N19         2.4170   -0.0730    4.5720 n1        1 2HB     -0.191400
     26 N20         1.7240   -1.1490    4.9040 nf        1 2HB     -0.522300
     27 N23         1.1030   -3.4000    4.7130 ns        1 2HB     -0.459400
     28 O25        -0.5900   -3.7760    3.1720 o         1 2HB     -0.721100
     29 N22         2.1330   -2.4560    2.7810 ne        1 2HB     -0.698700
     30 H1         -0.0940   -1.7550   -1.2130 hx        1 2HB      0.110200
     31 H2          1.1230   -1.3750    0.1260 hx        1 2HB      0.110200
     32 H3         -0.6790   -4.9230    1.3010 h1        1 2HB      0.161450
     33 H4         -1.9680   -5.3260    0.1390 h1        1 2HB      0.161450
     34 H5          1.5950   -3.7200    0.5070 h1        1 2HB      0.161450
     35 H6          1.8580   -3.2720   -1.1890 h1        1 2HB      0.161450
     36 H7         -0.3060   -2.3880    1.7050 hn        1 2HB      0.513800
     37 H8         -2.2800   -2.9520   -0.4830 hx        1 2HB      0.110200
     38 H9         -2.4760   -3.2620    1.3270 hx        1 2HB      0.110200
     39 H10        -2.5240   -0.9560    0.6040 hx        1 2HB      0.121700
     40 H11        -1.5270    1.2380    0.1230 hc        1 2HB      0.108700
     41 H12         1.0040    0.8510   -0.6130 ha        1 2HB      0.145000
     42 H13         0.4720    2.2090    3.1780 hc        1 2HB      0.097700
     43 H14        -0.4830   -0.3300    4.0350 ha        1 2HB      0.180000
     44 H15         4.1840    1.4200    3.3440 hc        1 2HB      0.068700
     45 H16         2.9750    2.7470    3.0190 hc        1 2HB      0.068700
     46 H17         3.4100    1.5890    0.7610 hc        1 2HB      0.080700
     47 H18        -0.2530   -4.9730    4.8220 h5        1 2HB      0.039200
     48 H19        -1.5760   -8.0640    8.4930 ha        1 2HB      0.191500
     49 H20        -1.7600   -6.5610    5.8190 hc        1 2HB      0.049700
     50 H21        -0.0210   -7.0820    6.0320 hc        1 2HB      0.049700
     51 H22        -0.6330   -5.0120    8.2320 ha        1 2HB      0.191500
     52 H24         1.4920   -3.6610    5.5910 hn        1 2HB      0.339500
     53 O30         0.6930   -5.9490   -0.8710 o         1 2HB     -0.638300
@<TRIPOS>BOND
     1    1    6 1   
     2    1    7 1   
     3    1   11 1   
     4    1   40 1   
     5    2    4 1   
     6    2   24 1   
     7    2   30 1   
     8    2   31 1   
     9    3    5 1   
    10    3   22 1   
    11    3   32 1   
    12    3   33 1   
    13    4   22 1   
    14    4   34 1   
    15    4   35 1   
    16    5   24 1   
    17    5   37 1   
    18    5   38 1   
    19    6   11 1   
    20    6   24 1   
    21    6   39 1   
    22    7    8 2   
    23    7   41 1   
    24    8    9 1   
    25    8   14 1   
    26    9   10 1   
    27    9   12 1   
    28    9   42 1   
    29   10   11 2   
    30   10   43 1   
    31   12   13 1   
    32   12   25 2   
    33   13   14 1   
    34   13   44 1   
    35   13   45 1   
    36   14   15 1   
    37   14   46 1   
    38   15   16 3   
    39   16   29 1   
    40   17   26 1   
    41   17   27 1   
    42   17   29 2   
    43   18   27 1   
    44   18   28 2   
    45   18   47 1   
    46   19   20 1   
    47   19   21 2   
    48   19   48 1   
    49   20   21 1   
    50   20   49 1   
    51   20   50 1   
    52   21   51 1   
    53   22   23 2   
    54   22   53 2   
    55   24   36 1   
    56   25   26 2   
    57   27   52 1   
@<TRIPOS>SUBSTRUCTURE
     1 2HB         1 TEMP              0 ****  ****    0 ROOT
