@<TRIPOS>MOLECULE
2HB
   53    53     1     0     0
SMALL
bcc


@<TRIPOS>ATOM
      1 C8          0.2030   -0.2180   -0.5920 c3        1 2HB      0.043000
      2 C5         -1.5390   -3.4440   -1.7170 c3        1 2HB     -0.176000
      3 C2         -1.5160   -2.4480    1.6700 c3        1 2HB     -0.874000
      4 C4         -0.5780   -4.0980   -2.5750 c1        1 2HB     -0.050000
      5 C1         -2.0640   -2.1350    0.2740 c3        1 2HB     -0.036000
      6 C7         -0.5400   -1.2660   -1.4480 c3        1 2HB     -0.053000
      7 C9          1.1630   -0.8330    0.3760 c2        1 2HB     -0.113000
      8 C10         1.7490   -0.1680    1.3310 c1        1 2HB     -0.112000
      9 C11         2.3430    0.5220    2.2650 c2        1 2HB     -0.124000
     10 C12        -1.4550    1.4940    0.5340 c1        1 2HB     -0.194000
     11 C13        -0.7100    0.7030    0.0340 c1        1 2HB     -0.178000
     12 C14         1.7790    0.7430    3.6020 c2        1 2HB      0.010000
     13 C15         2.1510    2.0760    4.2270 c3        1 2HB     -0.104000
     14 C16         3.1710    1.8700    5.3250 c2        1 2HB      0.004000
     15 C17         3.3390    0.6620    5.7980 c1        1 2HB     -0.205000
     16 C18         3.1160   -0.5890    5.9260 c1        1 2HB      0.064000
     17 C21         1.7290   -2.2040    5.0220 c2        1 2HB      0.173000
     18 C24         2.3850   -4.5980    5.1090 c2        1 2HB      0.272000
     19 C26        -0.4120   -6.9480    5.2150 cu        1 2HB     -0.196500
     20 C27         0.6690   -7.6630    5.9520 cx        1 2HB     -0.185000
     21 C28        -0.7380   -8.1070    5.7520 cu        1 2HB     -0.196500
     22 S3         -0.8460   -3.9930    1.8020 s6        1 2HB      2.822000
     23 O29        -1.5050   -4.9130    0.9700 o         1 2HB     -0.954000
     24 N6         -1.0840   -2.4250   -0.7630 n3        1 2HB     -0.324000
     25 N19         1.1200   -0.0950    4.3630 n2        1 2HB     -0.114000
     26 N20         1.0260   -1.4070    4.1940 n2        1 2HB     -0.200000
     27 N23         1.4370   -3.5850    5.0270 n         1 2HB     -0.337000
     28 O25         3.6070   -4.4300    5.0520 o         1 2HB     -0.321000
     29 N22         2.7790   -1.8010    5.9710 n2        1 2HB     -0.071000
     30 H1         -1.9710   -4.3280   -1.1240 h1        1 2HB      0.164000
     31 H2         -2.3820   -3.0570   -2.3690 h1        1 2HB      0.164000
     32 H3         -0.7710   -1.6450    1.9400 h1        1 2HB      0.178000
     33 H4         -2.3600   -2.3090    2.3990 h1        1 2HB      0.178000
     34 H5          0.2740   -3.7680    1.3650 hs        1 2HB     -0.474000
     35 H6          0.4960   -3.9090   -2.4260 ha        1 2HB      0.051000
     36 H7         -2.9970   -2.7530    0.1240 h1        1 2HB      0.099000
     37 H8         -2.3770   -1.0520    0.2570 h1        1 2HB      0.099000
     38 H9         -1.3440   -0.7150   -2.0220 h1        1 2HB      0.081500
     39 H10         0.2090   -1.6590   -2.1960 h1        1 2HB      0.081500
     40 H11         0.8220    0.3820   -1.3350 hc        1 2HB      0.121000
     41 H12         1.3870   -1.9050    0.2210 ha        1 2HB      0.162000
     42 H13         3.3100    1.0200    2.0630 ha        1 2HB      0.155000
     43 H14        -2.1150    2.1930    0.9820 ha        1 2HB      0.227000
     44 H15         1.2520    2.5770    4.6780 hc        1 2HB      0.119000
     45 H16         2.5760    2.7580    3.4460 hc        1 2HB      0.119000
     46 H17         3.7020    2.7670    5.6740 ha        1 2HB      0.152000
     47 H18         1.9000   -5.6010    5.2250 h5        1 2HB      0.150000
     48 H19        -0.6490   -6.0660    4.6480 ha        1 2HB      0.199500
     49 H20         1.4930   -8.1550    5.4020 hc        1 2HB      0.090000
     50 H21         1.0040   -7.3040    6.9430 hc        1 2HB      0.090000
     51 H22        -1.4380   -8.8870    5.9600 ha        1 2HB      0.199500
     52 H24         0.4900   -3.8410    4.8140 hn        1 2HB      0.281000
     53 O30        -0.7230   -4.3650    3.1570 o         1 2HB     -0.954000
@<TRIPOS>BOND
     1    1    6 1   
     2    1    7 1   
     3    1   11 1   
     4    1   40 1   
     5    2    4 1   
     6    2   24 1   
     7    2   30 1   
     8    2   31 1   
     9    3    5 1   
    10    3   22 1   
    11    3   32 1   
    12    3   33 1   
    13    4   35 1   
    14    5   24 1   
    15    5   36 1   
    16    5   37 1   
    17    6   24 1   
    18    6   38 1   
    19    6   39 1   
    20    7    8 1   
    21    7   41 1   
    22    8    9 1   
    23    9   12 1   
    24    9   42 1   
    25   10   11 1   
    26   10   43 1   
    27   12   13 1   
    28   12   25 1   
    29   13   14 1   
    30   13   44 1   
    31   13   45 1   
    32   14   15 1   
    33   14   46 1   
    34   15   16 1   
    35   16   29 1   
    36   17   26 1   
    37   17   27 1   
    38   17   29 1   
    39   18   27 1   
    40   18   28 1   
    41   18   47 1   
    42   19   20 1   
    43   19   21 1   
    44   19   48 1   
    45   20   21 1   
    46   20   49 1   
    47   20   50 1   
    48   21   51 1   
    49   22   23 1   
    50   22   34 1   
    51   22   53 1   
    52   25   26 1   
    53   27   52 1   
@<TRIPOS>SUBSTRUCTURE
     1 2HB         1 TEMP              0 ****  ****    0 ROOT
