@<TRIPOS>MOLECULE
2HC
   19    19     1     0     0
SMALL
bcc


@<TRIPOS>ATOM
      1 CA          0.3220    0.7760    0.6860 ce        1 2HC     -0.137200
      2 C           0.5640   -0.3580   -0.2830 c         1 2HC      0.897800
      3 OXT         1.2410   -1.3400    0.1320 o         1 2HC     -0.830800
      4 O           0.1330   -0.2410   -1.4670 o         1 2HC     -0.830800
      5 CB         -0.8010    1.1090    1.3300 cf        1 2HC     -0.201200
      6 CG         -2.1080    0.4830    1.2200 ca        1 2HC     -0.072800
      7 CD1        -2.5860   -0.0110   -0.0010 ca        1 2HC     -0.083000
      8 CE1        -3.8710   -0.5420   -0.1010 ca        1 2HC     -0.170000
      9 CZ         -4.7040   -0.5940    1.0150 ca        1 2HC     -0.130000
     10 CE2        -4.2510   -0.1330    2.2480 ca        1 2HC     -0.177000
     11 CD2        -2.9550    0.3950    2.3460 ca        1 2HC      0.103100
     12 OH         -2.5800    0.8320    3.6030 oh        1 2HC     -0.528100
     13 HA          1.2350    1.3690    0.8700 ha        1 2HC      0.097000
     14 HB         -0.7860    1.9750    2.0200 ha        1 2HC      0.082000
     15 HD1        -1.9100    0.0090   -0.8820 ha        1 2HC      0.203000
     16 HE1        -4.2240   -0.9270   -1.0690 ha        1 2HC      0.120000
     17 HZ         -5.7180   -1.0080    0.9300 ha        1 2HC      0.109000
     18 HE2        -4.8850   -0.1790    3.1420 ha        1 2HC      0.125000
     19 HOH        -1.6150    0.9050    3.6080 ho        1 2HC      0.423000
@<TRIPOS>BOND
     1    1    2 1   
     2    1    5 2   
     3    1   13 1   
     4    2    3 1   
     5    2    4 1   
     6    5    6 1   
     7    5   14 1   
     8    6    7 ar  
     9    6   11 ar  
    10    7    8 ar  
    11    7   15 1   
    12    8    9 ar  
    13    8   16 1   
    14    9   10 ar  
    15    9   17 1   
    16   10   11 ar  
    17   10   18 1   
    18   11   12 1   
    19   12   19 1   
@<TRIPOS>SUBSTRUCTURE
     1 2HC         1 TEMP              0 ****  ****    0 ROOT
