@<TRIPOS>MOLECULE
2HC
   19    15     1     0     0
SMALL
bcc


@<TRIPOS>ATOM
      1 CA         -0.6380   -1.9840    1.4910 c1        1 2HC     -0.159500
      2 C           0.8740   -2.0070    1.5030 c1        1 2HC      0.348000
      3 OXT         1.5040   -1.5210    2.4790 o         1 2HC     -0.565500
      4 O           1.5040   -2.5290    0.5460 o         1 2HC     -0.565500
      5 CB         -1.2910   -0.9960    0.8480 c1        1 2HC     -0.159500
      6 CG         -0.5120    0.0890    0.1390 c1        1 2HC     -0.061000
      7 CD1        -0.0660    1.1960    0.8440 c2        1 2HC     -0.083000
      8 CE1         0.6030    2.2150    0.1850 c1        1 2HC     -0.170000
      9 CZ          0.8270    2.1270   -1.1800 c1        1 2HC     -0.159500
     10 CE2         0.3820    1.0200   -1.8860 c1        1 2HC     -0.159500
     11 CD2        -0.2880    0.0020   -1.2260 c1        1 2HC      0.058000
     12 OH         -0.7180   -1.1330   -1.9380 oh        1 2HC     -0.282000
     13 HA         -1.1410   -2.6840    1.9490 ha        1 2HC      0.103250
     14 HB         -2.2670   -0.9810    0.8400 ha        1 2HC      0.103250
     15 HD1        -0.2330    1.2630    1.8040 ha        1 2HC      0.203000
     16 HE1         0.9140    2.9960    0.6810 ha        1 2HC      0.120000
     17 HZ          1.2910    2.8490   -1.6460 ha        1 2HC      0.103250
     18 HE2         0.5320    0.9630   -2.8480 ha        1 2HC      0.103250
     19 HOH        -1.2750   -0.8840   -2.5850 ho        1 2HC      0.222000
@<TRIPOS>BOND
     1    1    5 1   
     2    1   13 1   
     3    2    3 1   
     4    2    4 1   
     5    5   14 1   
     6    6    7 1   
     7    6   11 1   
     8    7    8 1   
     9    7   15 1   
    10    8   16 1   
    11    9   10 1   
    12    9   17 1   
    13   10   18 1   
    14   11   12 1   
    15   12   19 1   
@<TRIPOS>SUBSTRUCTURE
     1 2HC         1 TEMP              0 ****  ****    0 ROOT
