@<TRIPOS>MOLECULE
2HC
   19    19     1     0     0
SMALL
bcc


@<TRIPOS>ATOM
      1 CA          0.4210    0.6810    0.6070 ce        1 2HC     -0.148200
      2 C           0.6090   -0.3520   -0.4760 c         1 2HC      0.894800
      3 OXT         1.2680   -1.3890   -0.1840 o         1 2HC     -0.835300
      4 O           0.1510   -0.1140   -1.6340 o         1 2HC     -0.835300
      5 CB         -0.6680    1.0000    1.3150 cf        1 2HC     -0.174200
      6 CG         -2.0060    0.4480    1.2110 ca        1 2HC     -0.017800
      7 CD1        -2.4800   -0.1850    0.0540 ca        1 2HC     -0.093000
      8 CE1        -3.7800   -0.6890   -0.0120 ca        1 2HC     -0.166000
      9 CZ         -4.6420   -0.5700    1.0740 ca        1 2HC     -0.127000
     10 CE2        -4.2070    0.0610    2.2380 ca        1 2HC     -0.231000
     11 CD2        -2.9030    0.5670    2.3010 ca        1 2HC      0.096100
     12 OH         -2.4460    1.2140    3.4350 oh        1 2HC     -0.503100
     13 HA          1.3630    1.2130    0.8330 ha        1 2HC      0.097000
     14 HB         -0.5800    1.7680    2.1080 ha        1 2HC      0.101000
     15 HD1        -1.7980   -0.2840   -0.8160 ha        1 2HC      0.209000
     16 HE1        -4.1180   -1.1870   -0.9310 ha        1 2HC      0.122000
     17 HZ         -5.6630   -0.9720    1.0210 ha        1 2HC      0.108000
     18 HE2        -4.8790    0.1610    3.1010 ha        1 2HC      0.108000
     19 HOH        -3.1430    1.1530    4.1020 ho        1 2HC      0.396000
@<TRIPOS>BOND
     1    1    2 1   
     2    1    5 2   
     3    1   13 1   
     4    2    3 1   
     5    2    4 1   
     6    5    6 1   
     7    5   14 1   
     8    6    7 ar  
     9    6   11 ar  
    10    7    8 ar  
    11    7   15 1   
    12    8    9 ar  
    13    8   16 1   
    14    9   10 ar  
    15    9   17 1   
    16   10   11 ar  
    17   10   18 1   
    18   11   12 1   
    19   12   19 1   
@<TRIPOS>SUBSTRUCTURE
     1 2HC         1 TEMP              0 ****  ****    0 ROOT
