@<TRIPOS>MOLECULE
2HC
   19    19     1     0     0
SMALL
bcc


@<TRIPOS>ATOM
      1 CA         -0.3960    0.2850    1.6430 ce        1 2HC     -0.153200
      2 C           0.0930    0.1630    3.0730 c         1 2HC      0.889800
      3 OXT         1.2920   -0.1830    3.2780 o         1 2HC     -0.831800
      4 O          -0.7400    0.4220    3.9870 o         1 2HC     -0.831800
      5 CB          0.3100   -0.1700    0.6010 cf        1 2HC     -0.202200
      6 CG         -0.1030   -0.0880   -0.7880 ca        1 2HC     -0.078800
      7 CD1        -1.4460   -0.2380   -1.1580 ca        1 2HC     -0.104000
      8 CE1        -1.8370   -0.1850   -2.4940 ca        1 2HC     -0.172000
      9 CZ         -0.8880    0.0200   -3.4950 ca        1 2HC     -0.128000
     10 CE2         0.4540    0.1820   -3.1630 ca        1 2HC     -0.171000
     11 CD2         0.8420    0.1330   -1.8160 ca        1 2HC      0.119100
     12 OH          2.1860    0.3140   -1.5770 oh        1 2HC     -0.521100
     13 HA         -1.3730    0.7760    1.5250 ha        1 2HC      0.103000
     14 HB          1.2830   -0.6590    0.7980 ha        1 2HC      0.140000
     15 HD1        -2.1960   -0.4040   -0.3690 ha        1 2HC      0.139000
     16 HE1        -2.8960   -0.3080   -2.7590 ha        1 2HC      0.116000
     17 HZ         -1.1960    0.0570   -4.5490 ha        1 2HC      0.113000
     18 HE2         1.2150    0.3510   -3.9370 ha        1 2HC      0.131000
     19 HOH         2.3180    0.3650   -0.6160 ho        1 2HC      0.441000
@<TRIPOS>BOND
     1    1    2 1   
     2    1    5 2   
     3    1   13 1   
     4    2    3 1   
     5    2    4 1   
     6    5    6 1   
     7    5   14 1   
     8    6    7 ar  
     9    6   11 ar  
    10    7    8 ar  
    11    7   15 1   
    12    8    9 ar  
    13    8   16 1   
    14    9   10 ar  
    15    9   17 1   
    16   10   11 ar  
    17   10   18 1   
    18   11   12 1   
    19   12   19 1   
@<TRIPOS>SUBSTRUCTURE
     1 2HC         1 TEMP              0 ****  ****    0 ROOT
