@<TRIPOS>MOLECULE
2HD
   65    64     1     0     0
SMALL
bcc


@<TRIPOS>ATOM
      1 O20         0.2240   -1.3350   -1.4360 o         1 2HD     -0.848300
      2 P9          1.6810   -1.3070   -1.3850 p5        1 2HD      1.464300
      3 C8          2.3970   -0.6670   -0.0590 c3        1 2HD     -0.432600
      4 C7          1.7300   -1.2540    1.1580 c3        1 2HD     -0.071400
      5 C6          2.2450   -0.6510    2.4440 c3        1 2HD     -0.070400
      6 C5          1.5370   -1.2370    3.6470 c3        1 2HD     -0.080400
      7 C4          2.0550   -0.6340    4.9350 c3        1 2HD     -0.078400
      8 C3          1.3490   -1.2210    6.1380 c3        1 2HD     -0.079400
      9 C2          1.8660   -0.6190    7.4280 c3        1 2HD     -0.080400
     10 C1          1.1650   -1.2000    8.6290 c3        1 2HD     -0.093100
     11 O10         2.2620   -0.4690   -2.6470 os        1 2HD     -0.596200
     12 C11         1.4840    0.5780   -3.1670 c3        1 2HD      0.172400
     13 C12         2.2090    1.9190   -2.9680 c3        1 2HD      0.114100
     14 O21         2.0520    2.2600   -1.5900 os        1 2HD     -0.444600
     15 C22         3.0030    3.2240   -1.1350 c3        1 2HD      0.127400
     16 C23         2.6420    3.5350    0.3070 c3        1 2HD     -0.085400
     17 C24         3.6270    4.5180    0.8990 c3        1 2HD     -0.079400
     18 C25         3.2820    4.8470    2.3290 c3        1 2HD     -0.092100
     19 C13         1.5650    2.9920   -3.8530 c3        1 2HD      0.102400
     20 O14         2.5720    3.9680   -4.1070 os        1 2HD     -0.432600
     21 C15         2.1070    5.0130   -4.9610 c3        1 2HD      0.130400
     22 C16         3.2680    5.9740   -5.1440 c3        1 2HD     -0.084400
     23 C17         2.8670    7.1240   -6.0410 c3        1 2HD     -0.079400
     24 C18         4.0060    8.0910   -6.2350 c3        1 2HD     -0.092100
     25 H2          2.2920    0.4560   -0.0390 hc        1 2HD      0.119200
     26 H3          3.5010   -0.8450   -0.0060 hc        1 2HD      0.119200
     27 H4          1.9020   -2.3630    1.1620 hc        1 2HD      0.057200
     28 H5          0.6200   -1.0880    1.0710 hc        1 2HD      0.057200
     29 H6          3.3490   -0.8320    2.5290 hc        1 2HD      0.042200
     30 H7          2.0940    0.4620    2.4210 hc        1 2HD      0.042200
     31 H8          0.4340   -1.0520    3.5610 hc        1 2HD      0.043200
     32 H9          1.6850   -2.3490    3.6660 hc        1 2HD      0.043200
     33 H10         1.9060    0.4780    4.9160 hc        1 2HD      0.039200
     34 H11         3.1590   -0.8180    5.0200 hc        1 2HD      0.039200
     35 H12         1.4970   -2.3330    6.1570 hc        1 2HD      0.040700
     36 H13         0.2450   -1.0360    6.0540 hc        1 2HD      0.040700
     37 H14         2.9700   -0.8030    7.5100 hc        1 2HD      0.038200
     38 H15         1.7180    0.4930    7.4070 hc        1 2HD      0.038200
     39 H16         1.3220   -2.3050    8.6800 hc        1 2HD      0.033033
     40 H17         0.0670   -1.0050    8.5770 hc        1 2HD      0.033033
     41 H18         1.5610   -0.7440    9.5680 hc        1 2HD      0.033033
     42 H19         1.3750    0.3940   -4.2720 h1        1 2HD      0.068200
     43 H20         0.4730    0.5910   -2.6740 h1        1 2HD      0.068200
     44 H21         3.2990    1.8110   -3.2200 h1        1 2HD      0.076700
     45 H22         2.9470    4.1410   -1.7800 h1        1 2HD      0.040700
     46 H23         4.0350    2.7870   -1.2070 h1        1 2HD      0.040700
     47 H24         1.6030    3.9550    0.3480 hc        1 2HD      0.050200
     48 H25         2.6360    2.5850    0.9040 hc        1 2HD      0.050200
     49 H26         4.6620    4.0870    0.8500 hc        1 2HD      0.040200
     50 H27         3.6320    5.4580    0.2860 hc        1 2HD      0.040200
     51 H28         2.2640    5.3010    2.3940 hc        1 2HD      0.034700
     52 H29         4.0200    5.5740    2.7470 hc        1 2HD      0.034700
     53 H30         3.2970    3.9260    2.9600 hc        1 2HD      0.034700
     54 H31         1.2160    2.5510   -4.8240 h1        1 2HD      0.041700
     55 H32         0.6990    3.4690   -3.3230 h1        1 2HD      0.041700
     56 H33         1.2300    5.5250   -4.4840 h1        1 2HD      0.027700
     57 H34         1.7850    4.5780   -5.9450 h1        1 2HD      0.027700
     58 H35         4.1400    5.4240   -5.5850 hc        1 2HD      0.053700
     59 H36         3.5920    6.3590   -4.1420 hc        1 2HD      0.053700
     60 H37         1.9890    7.6610   -5.5930 hc        1 2HD      0.039700
     61 H38         2.5370    6.7260   -7.0370 hc        1 2HD      0.039700
     62 H39         4.3320    8.5180   -5.2560 hc        1 2HD      0.034700
     63 H40         3.6920    8.9310   -6.8990 hc        1 2HD      0.034700
     64 H41         4.8820    7.5790   -6.7030 hc        1 2HD      0.034700
     65 H1          2.2780   -2.4320   -1.5510 hp        1 2HD     -0.159400
@<TRIPOS>BOND
     1    1    2 2   
     2    2    3 1   
     3    2   11 1   
     4    2   65 1   
     5    3    4 1   
     6    3   25 1   
     7    3   26 1   
     8    4    5 1   
     9    4   27 1   
    10    4   28 1   
    11    5    6 1   
    12    5   29 1   
    13    5   30 1   
    14    6    7 1   
    15    6   31 1   
    16    6   32 1   
    17    7    8 1   
    18    7   33 1   
    19    7   34 1   
    20    8    9 1   
    21    8   35 1   
    22    8   36 1   
    23    9   10 1   
    24    9   37 1   
    25    9   38 1   
    26   10   39 1   
    27   10   40 1   
    28   10   41 1   
    29   11   12 1   
    30   12   13 1   
    31   12   42 1   
    32   12   43 1   
    33   13   14 1   
    34   13   19 1   
    35   13   44 1   
    36   14   15 1   
    37   15   16 1   
    38   15   45 1   
    39   15   46 1   
    40   16   17 1   
    41   16   47 1   
    42   16   48 1   
    43   17   18 1   
    44   17   49 1   
    45   17   50 1   
    46   18   51 1   
    47   18   52 1   
    48   18   53 1   
    49   19   20 1   
    50   19   54 1   
    51   19   55 1   
    52   20   21 1   
    53   21   22 1   
    54   21   56 1   
    55   21   57 1   
    56   22   23 1   
    57   22   58 1   
    58   22   59 1   
    59   23   24 1   
    60   23   60 1   
    61   23   61 1   
    62   24   62 1   
    63   24   63 1   
    64   24   64 1   
@<TRIPOS>SUBSTRUCTURE
     1 2HD         1 TEMP              0 ****  ****    0 ROOT
