@<TRIPOS>MOLECULE
2HD
   65    64     1     0     0
SMALL
bcc


@<TRIPOS>ATOM
      1 O20         0.2950   -1.3750   -1.4480 o         1 2HD     -0.848300
      2 P9          1.7500   -1.3260   -1.3790 p5        1 2HD      1.464300
      3 C8          2.4410   -0.6700   -0.0480 c3        1 2HD     -0.432600
      4 C7          1.7650   -1.2590    1.1640 c3        1 2HD     -0.071400
      5 C6          2.2540   -0.6420    2.4530 c3        1 2HD     -0.070400
      6 C5          1.5370   -1.2300    3.6500 c3        1 2HD     -0.080400
      7 C4          2.0290   -0.6120    4.9410 c3        1 2HD     -0.078400
      8 C3          1.3130   -1.2000    6.1380 c3        1 2HD     -0.079400
      9 C2          1.8030   -0.5830    7.4310 c3        1 2HD     -0.080400
     10 C1          1.0930   -1.1660    8.6250 c3        1 2HD     -0.093100
     11 O10         2.3360   -0.4850   -2.6380 os        1 2HD     -0.596200
     12 C11         1.5490    0.5490   -3.1710 c3        1 2HD      0.172400
     13 C12         2.2520    1.9010   -2.9690 c3        1 2HD      0.114100
     14 O21         2.0740    2.2450   -1.5950 os        1 2HD     -0.444600
     15 C22         3.0070    3.2240   -1.1320 c3        1 2HD      0.127400
     16 C23         2.6240    3.5350    0.3040 c3        1 2HD     -0.085400
     17 C24         3.5880    4.5340    0.9040 c3        1 2HD     -0.079400
     18 C25         3.2220    4.8640    2.3280 c3        1 2HD     -0.092100
     19 C13         1.6040    2.9610   -3.8660 c3        1 2HD      0.102400
     20 O14         2.5990    3.9510   -4.1110 os        1 2HD     -0.432600
     21 C15         2.1290    4.9860   -4.9740 c3        1 2HD      0.130400
     22 C16         3.2770    5.9650   -5.1450 c3        1 2HD     -0.084400
     23 C17         2.8690    7.1060   -6.0500 c3        1 2HD     -0.079400
     24 C18         3.9970    8.0900   -6.2320 c3        1 2HD     -0.092100
     25 H2          2.3220    0.4520   -0.0350 hc        1 2HD      0.119200
     26 H3          3.5460   -0.8340    0.0210 hc        1 2HD      0.119200
     27 H4          1.9520   -2.3660    1.1760 hc        1 2HD      0.057200
     28 H5          0.6540   -1.1080    1.0610 hc        1 2HD      0.057200
     29 H6          3.3590   -0.8090    2.5550 hc        1 2HD      0.042200
     30 H7          2.0900    0.4680    2.4210 hc        1 2HD      0.042200
     31 H8          0.4330   -1.0600    3.5470 hc        1 2HD      0.043200
     32 H9          1.7000   -2.3400    3.6780 hc        1 2HD      0.043200
     33 H10         1.8660    0.4970    4.9130 hc        1 2HD      0.039200
     34 H11         3.1340   -0.7820    5.0430 hc        1 2HD      0.039200
     35 H12         1.4750   -2.3100    6.1660 hc        1 2HD      0.040700
     36 H13         0.2090   -1.0310    6.0360 hc        1 2HD      0.040700
     37 H14         2.9080   -0.7520    7.5300 hc        1 2HD      0.038200
     38 H15         1.6410    0.5270    7.4000 hc        1 2HD      0.038200
     39 H16         1.2630   -2.2680    8.6870 hc        1 2HD      0.033033
     40 H17        -0.0070   -0.9850    8.5560 hc        1 2HD      0.033033
     41 H18         1.4690   -0.6980    9.5670 hc        1 2HD      0.033033
     42 H19         1.4560    0.3580   -4.2770 h1        1 2HD      0.068200
     43 H20         0.5310    0.5500   -2.6910 h1        1 2HD      0.068200
     44 H21         3.3470    1.8070   -3.2080 h1        1 2HD      0.076700
     45 H22         2.9460    4.1370   -1.7820 h1        1 2HD      0.040700
     46 H23         4.0450    2.8000   -1.1900 h1        1 2HD      0.040700
     47 H24         1.5790    3.9410    0.3310 hc        1 2HD      0.050200
     48 H25         2.6250    2.5870    0.9050 hc        1 2HD      0.050200
     49 H26         4.6300    4.1170    0.8690 hc        1 2HD      0.040200
     50 H27         3.5870    5.4720    0.2870 hc        1 2HD      0.040200
     51 H28         2.1970    5.3030    2.3790 hc        1 2HD      0.034700
     52 H29         3.9440    5.6030    2.7520 hc        1 2HD      0.034700
     53 H30         3.2420    3.9460    2.9630 hc        1 2HD      0.034700
     54 H31         1.2740    2.5110   -4.8400 h1        1 2HD      0.041700
     55 H32         0.7240    3.4270   -3.3490 h1        1 2HD      0.041700
     56 H33         1.2380    5.4860   -4.5100 h1        1 2HD      0.027700
     57 H34         1.8260    4.5440   -5.9610 h1        1 2HD      0.027700
     58 H35         4.1620    5.4270   -5.5740 hc        1 2HD      0.053700
     59 H36         3.5830    6.3570   -4.1400 hc        1 2HD      0.053700
     60 H37         1.9780    7.6310   -5.6140 hc        1 2HD      0.039700
     61 H38         2.5580    6.7010   -7.0490 hc        1 2HD      0.039700
     62 H39         4.3040    8.5240   -5.2500 hc        1 2HD      0.034700
     63 H40         3.6780    8.9240   -6.9020 hc        1 2HD      0.034700
     64 H41         4.8860    7.5910   -6.6880 hc        1 2HD      0.034700
     65 H1          2.3660   -2.4430   -1.5330 hp        1 2HD     -0.159400
@<TRIPOS>BOND
     1    1    2 2   
     2    2    3 1   
     3    2   11 1   
     4    2   65 1   
     5    3    4 1   
     6    3   25 1   
     7    3   26 1   
     8    4    5 1   
     9    4   27 1   
    10    4   28 1   
    11    5    6 1   
    12    5   29 1   
    13    5   30 1   
    14    6    7 1   
    15    6   31 1   
    16    6   32 1   
    17    7    8 1   
    18    7   33 1   
    19    7   34 1   
    20    8    9 1   
    21    8   35 1   
    22    8   36 1   
    23    9   10 1   
    24    9   37 1   
    25    9   38 1   
    26   10   39 1   
    27   10   40 1   
    28   10   41 1   
    29   11   12 1   
    30   12   13 1   
    31   12   42 1   
    32   12   43 1   
    33   13   14 1   
    34   13   19 1   
    35   13   44 1   
    36   14   15 1   
    37   15   16 1   
    38   15   45 1   
    39   15   46 1   
    40   16   17 1   
    41   16   47 1   
    42   16   48 1   
    43   17   18 1   
    44   17   49 1   
    45   17   50 1   
    46   18   51 1   
    47   18   52 1   
    48   18   53 1   
    49   19   20 1   
    50   19   54 1   
    51   19   55 1   
    52   20   21 1   
    53   21   22 1   
    54   21   56 1   
    55   21   57 1   
    56   22   23 1   
    57   22   58 1   
    58   22   59 1   
    59   23   24 1   
    60   23   60 1   
    61   23   61 1   
    62   24   62 1   
    63   24   63 1   
    64   24   64 1   
@<TRIPOS>SUBSTRUCTURE
     1 2HD         1 TEMP              0 ****  ****    0 ROOT
