@<TRIPOS>MOLECULE
2HE
   12    11     1     0     0
SMALL
bcc


@<TRIPOS>ATOM
      1 O3         -1.8070   -0.8830    0.5760 o         1 2HE     -0.958833
      2 P          -0.7840    0.0310   -0.0600 p5        1 2HE      1.211700
      3 O1         -0.7120   -0.0370   -1.5710 o         1 2HE     -0.958833
      4 O2         -0.7450    1.4380    0.4990 o         1 2HE     -0.958833
      5 CA          0.8120   -0.6760    0.4690 c3        1 2HE     -0.267600
      6 CB          1.7970    0.2350   -0.1650 c3        1 2HE      0.140400
      7 O4          3.1510   -0.1530    0.1330 oh        1 2HE     -0.660800
      8 HA          0.8700   -0.6680    1.5740 hc        1 2HE      0.019700
      9 HAA         0.8930   -1.7170    0.1030 hc        1 2HE      0.019700
     10 HB          1.6440    0.2170   -1.2790 h1        1 2HE      0.039700
     11 HBA         1.6210    1.2810    0.2120 h1        1 2HE      0.039700
     12 HO4         3.7100    0.4880   -0.3150 ho        1 2HE      0.335000
@<TRIPOS>BOND
     1    1    2 1   
     2    2    3 1   
     3    2    4 1   
     4    2    5 1   
     5    5    6 1   
     6    5    8 1   
     7    5    9 1   
     8    6    7 1   
     9    6   10 1   
    10    6   11 1   
    11    7   12 1   
@<TRIPOS>SUBSTRUCTURE
     1 2HE         1 TEMP              0 ****  ****    0 ROOT
