@<TRIPOS>MOLECULE
2HE
   12    11     1     0     0
SMALL
bcc


@<TRIPOS>ATOM
      1 O3         -1.7100   -1.0170    1.3420 o         1 2HE     -0.958833
      2 P          -0.2030   -1.0920    1.2740 p5        1 2HE      1.211700
      3 O1          0.3620   -1.1480    2.6730 o         1 2HE     -0.958833
      4 O2          0.2050   -2.3330    0.5170 o         1 2HE     -0.958833
      5 CA          0.4380    0.3760    0.4200 c3        1 2HE     -0.267600
      6 CB         -0.1250    0.4290   -0.9840 c3        1 2HE      0.140400
      7 O4          0.3420    1.5910   -1.6330 oh        1 2HE     -0.660800
      8 HA          1.4140    0.3290    0.3790 hc        1 2HE      0.019700
      9 HAA         0.1700    1.1800    0.9090 hc        1 2HE      0.019700
     10 HB         -1.1030    0.4480   -0.9430 h1        1 2HE      0.039700
     11 HBA         0.1660   -0.3630   -1.4820 h1        1 2HE      0.039700
     12 HO4         0.0440    1.6010   -2.4710 ho        1 2HE      0.335000
@<TRIPOS>BOND
     1    1    2 1   
     2    2    3 1   
     3    2    4 1   
     4    2    5 1   
     5    5    6 1   
     6    5    8 1   
     7    5    9 1   
     8    6    7 1   
     9    6   10 1   
    10    6   11 1   
    11    7   12 1   
@<TRIPOS>SUBSTRUCTURE
     1 2HE         1 TEMP              0 ****  ****    0 ROOT
