@<TRIPOS>MOLECULE
2HE
   12    11     1     0     0
SMALL
bcc


@<TRIPOS>ATOM
      1 O3          0.1730   -0.0160   -0.0870 o         1 2HE     -0.958833
      2 P           1.6810   -0.0060    0.0050 p5        1 2HE      1.211700
      3 O1          2.2390    0.2020    1.3980 o         1 2HE     -0.958833
      4 O2          2.3800   -1.0930   -0.7850 o         1 2HE     -0.958833
      5 CA          2.1570    1.5210   -0.8710 c3        1 2HE     -0.267600
      6 CB          3.6360    1.5090   -0.7670 c3        1 2HE      0.140400
      7 O4          4.2260    2.6550   -1.4090 oh        1 2HE     -0.660800
      8 HA          1.7990    1.4720   -1.9170 hc        1 2HE      0.019700
      9 HAA         1.6980    2.3920   -0.3650 hc        1 2HE      0.019700
     10 HB          4.0270    0.5710   -1.2520 h1        1 2HE      0.039700
     11 HBA         3.9250    1.5040    0.3210 h1        1 2HE      0.039700
     12 HO4         5.1750    2.5590   -1.2910 ho        1 2HE      0.335000
@<TRIPOS>BOND
     1    1    2 1   
     2    2    3 1   
     3    2    4 1   
     4    2    5 1   
     5    5    6 1   
     6    5    8 1   
     7    5    9 1   
     8    6    7 1   
     9    6   10 1   
    10    6   11 1   
    11    7   12 1   
@<TRIPOS>SUBSTRUCTURE
     1 2HE         1 TEMP              0 ****  ****    0 ROOT
