@<TRIPOS>MOLECULE
2HF
   20    20     1     0     0
SMALL
bcc


@<TRIPOS>ATOM
      1 C          -2.9570   -0.2400   -0.1360 c         1 2HF      0.914600
      2 N          -0.8940   -1.7350    0.1470 n3        1 2HF     -0.933800
      3 O          -3.5460   -1.2930   -0.4790 o         1 2HF     -0.796300
      4 F1          3.7890   -0.9040    0.7760 f         1 2HF     -0.043900
      5 CA         -1.4350   -0.3880    0.2930 c3        1 2HF     -0.030500
      6 CB         -0.6710    0.6590   -0.5230 c3        1 2HF     -0.033100
      7 CG          0.7710    0.7080   -0.2030 cc        1 2HF      0.005400
      8 ND1         1.4910   -0.4490    0.1520 na        1 2HF     -0.135100
      9 CD2         1.6770    1.7860   -0.1760 cd        1 2HF     -0.164300
     10 CE1         2.7940   -0.0850    0.4050 cc        1 2HF      0.171300
     11 NE2         2.9310    1.2840    0.1990 na        1 2HF     -0.157100
     12 OXT        -3.4130    0.9280   -0.0920 o         1 2HF     -0.796300
     13 H          -1.3120   -2.3160    0.8530 hn        1 2HF      0.369800
     14 H2         -1.1940   -2.1030   -0.7410 hn        1 2HF      0.369800
     15 HA         -1.3810   -0.1050    1.3810 h1        1 2HF      0.054700
     16 HB         -0.7910    0.4480   -1.6220 hc        1 2HF      0.110700
     17 HBA        -1.1490    1.6580   -0.3140 hc        1 2HF      0.110700
     18 HND1        1.0030   -1.3540    0.2690 hn        1 2HF      0.409700
     19 HD2         1.5150    2.8460   -0.3830 h4        1 2HF      0.226000
     20 HE2         3.7740    1.7970    0.3050 hn        1 2HF      0.348700
@<TRIPOS>BOND
     1    1    3 1   
     2    1    5 1   
     3    1   12 1   
     4    2    5 1   
     5    2   13 1   
     6    2   14 1   
     7    4   10 1   
     8    5    6 1   
     9    5   15 1   
    10    6    7 1   
    11    6   16 1   
    12    6   17 1   
    13    7    8 1   
    14    7    9 2   
    15    8   10 2   
    16    8   18 1   
    17    9   11 1   
    18    9   19 1   
    19   10   11 1   
    20   11   20 1   
@<TRIPOS>SUBSTRUCTURE
     1 2HF         1 TEMP              0 ****  ****    0 ROOT
