@<TRIPOS>MOLECULE
2HG
   16    15     1     0     0
SMALL
bcc


@<TRIPOS>ATOM
      1 C1          0.0770    0.3340   -0.2000 c         1 2HG      0.889600
      2 O1         -0.6680   -0.6700   -0.4280 o         1 2HG     -0.864800
      3 C2          1.5950    0.0750   -0.0800 c3        1 2HG      0.025100
      4 O2         -0.3630    1.5150   -0.1100 o         1 2HG     -0.864800
      5 C3          2.0620    0.0590    1.3730 c3        1 2HG     -0.069400
      6 O3          1.9340   -1.1460   -0.7300 oh        1 2HG     -0.647800
      7 C4          3.5680    0.0920    1.4870 c3        1 2HG     -0.174400
      8 O4          3.7250   -0.9860    3.6570 o         1 2HG     -0.879300
      9 C5          4.0870   -0.0170    2.9230 c         1 2HG      0.902600
     10 O5          4.9190    0.8560    3.3280 o         1 2HG     -0.879300
     11 H2          2.1530    0.8680   -0.6500 h1        1 2HG      0.034700
     12 H3          1.6190    0.9490    1.8910 hc        1 2HG      0.042700
     13 H3A         1.6750   -0.8610    1.8820 hc        1 2HG      0.042700
     14 HO3         1.1740   -1.7340   -0.6090 ho        1 2HG      0.408000
     15 H4          3.9600    1.0390    1.0330 hc        1 2HG      0.016700
     16 H4A         3.9940   -0.7660    0.9030 hc        1 2HG      0.016700
@<TRIPOS>BOND
     1    1    2 1   
     2    1    3 1   
     3    1    4 1   
     4    3    5 1   
     5    3    6 1   
     6    3   11 1   
     7    5    7 1   
     8    5   12 1   
     9    5   13 1   
    10    6   14 1   
    11    7    9 1   
    12    7   15 1   
    13    7   16 1   
    14    8    9 1   
    15    9   10 1   
@<TRIPOS>SUBSTRUCTURE
     1 2HG         1 TEMP              0 ****  ****    0 ROOT
