@<TRIPOS>MOLECULE
2HG
   16    15     1     0     0
SMALL
bcc


@<TRIPOS>ATOM
      1 C1          0.0370    0.2130   -0.1570 c         1 2HG      0.889600
      2 O1         -0.6160   -0.8380   -0.4460 o         1 2HG     -0.864800
      3 C2          1.5750    0.0870   -0.0660 c3        1 2HG      0.025100
      4 O2         -0.5070    1.3410    0.0150 o         1 2HG     -0.864800
      5 C3          2.0600    0.0180    1.3790 c3        1 2HG     -0.069400
      6 O3          2.0140   -1.0530   -0.7990 oh        1 2HG     -0.647800
      7 C4          3.5590    0.1810    1.4830 c3        1 2HG     -0.174400
      8 O4          3.8440   -1.0180    3.5750 o         1 2HG     -0.879300
      9 C5          4.1050    0.0260    2.9050 c         1 2HG      0.902600
     10 O5          4.8580    0.9440    3.3620 o         1 2HG     -0.879300
     11 H2          2.0500    0.9630   -0.5870 h1        1 2HG      0.034700
     12 H3          1.7660   -0.9650    1.8280 hc        1 2HG      0.042700
     13 H3A         1.5450    0.8280    1.9580 hc        1 2HG      0.042700
     14 HO3         1.3120   -1.7140   -0.7120 ho        1 2HG      0.408000
     15 H4          3.8570    1.1880    1.0910 hc        1 2HG      0.016700
     16 H4A         4.0520   -0.5940    0.8400 hc        1 2HG      0.016700
@<TRIPOS>BOND
     1    1    2 1   
     2    1    3 1   
     3    1    4 1   
     4    3    5 1   
     5    3    6 1   
     6    3   11 1   
     7    5    7 1   
     8    5   12 1   
     9    5   13 1   
    10    6   14 1   
    11    7    9 1   
    12    7   15 1   
    13    7   16 1   
    14    8    9 1   
    15    9   10 1   
@<TRIPOS>SUBSTRUCTURE
     1 2HG         1 TEMP              0 ****  ****    0 ROOT
