@<TRIPOS>MOLECULE
2HG
   16    14     1     0     0
SMALL
bcc


@<TRIPOS>ATOM
      1 C1         -2.1200   -0.4310   -0.9610 c1        1 2HG      0.309000
      2 O1         -2.8570    0.5770   -1.1240 o         1 2HG     -0.599500
      3 C2         -0.6160   -0.2830   -1.0010 c2        1 2HG     -0.036000
      4 O2         -2.6360   -1.5630   -0.7640 o         1 2HG     -0.599500
      5 C3         -0.0750   -0.2490    0.4100 c3        1 2HG     -0.148000
      6 O3         -0.0560   -1.3720   -1.6930 oh        1 2HG     -0.375000
      7 C4          1.0530    0.7560    0.4940 c3        1 2HG     -0.203000
      8 O4          2.6070   -0.1190    2.1050 o         1 2HG     -0.614000
      9 C5          1.6780    0.6980    1.8700 c2        1 2HG      0.322000
     10 O5          1.2700    1.4660    2.7800 o         1 2HG     -0.614000
     11 H2         -0.3830    0.5490   -1.4590 h4        1 2HG      0.074000
     12 H3         -0.7890    0.0090    1.0270 hc        1 2HG      0.082000
     13 H3A         0.2600   -1.1360    0.6520 hc        1 2HG      0.082000
     14 HO3         0.2350   -1.1010   -2.4880 ho        1 2HG      0.207000
     15 H4          1.7290    0.5440   -0.1810 hc        1 2HG      0.056000
     16 H4A         0.7010    1.6540    0.3330 hc        1 2HG      0.056000
@<TRIPOS>BOND
     1    1    2 1   
     2    1    4 1   
     3    3    5 1   
     4    3    6 1   
     5    3   11 1   
     6    5    7 1   
     7    5   12 1   
     8    5   13 1   
     9    6   14 1   
    10    7    9 1   
    11    7   15 1   
    12    7   16 1   
    13    8    9 1   
    14    9   10 1   
@<TRIPOS>SUBSTRUCTURE
     1 2HG         1 TEMP              0 ****  ****    0 ROOT
