@<TRIPOS>MOLECULE
2HG
   16    15     1     0     0
SMALL
bcc


@<TRIPOS>ATOM
      1 C1         -2.3770   -0.3000    0.1670 c         1 2HG      0.889600
      2 O1         -3.0890   -0.0300   -0.8510 o         1 2HG     -0.864800
      3 C2         -1.1020    0.5450    0.3820 c3        1 2HG      0.025100
      4 O2         -2.6880   -1.1860    1.0130 o         1 2HG     -0.864800
      5 C3          0.1590   -0.2010   -0.0460 c3        1 2HG     -0.069400
      6 O3         -1.2140    1.7830   -0.3150 oh        1 2HG     -0.647800
      7 C4          1.4170    0.4960    0.4190 c3        1 2HG     -0.174400
      8 O4          2.8920   -0.3700   -1.3030 o         1 2HG     -0.879300
      9 C5          2.7110   -0.1630   -0.0650 c         1 2HG      0.902600
     10 O5          3.6010   -0.4450    0.7980 o         1 2HG     -0.879300
     11 H2         -1.0250    0.8320    1.4660 h1        1 2HG      0.034700
     12 H3          0.1140   -1.2350    0.3820 hc        1 2HG      0.042700
     13 H3A         0.1820   -0.2910   -1.1630 hc        1 2HG      0.042700
     14 HO3        -1.7300    1.5950   -1.1120 ho        1 2HG      0.408000
     15 H4          1.4070    1.5510    0.0400 hc        1 2HG      0.016700
     16 H4A         1.4320    0.5380    1.5390 hc        1 2HG      0.016700
@<TRIPOS>BOND
     1    1    2 1   
     2    1    3 1   
     3    1    4 1   
     4    3    5 1   
     5    3    6 1   
     6    3   11 1   
     7    5    7 1   
     8    5   12 1   
     9    5   13 1   
    10    6   14 1   
    11    7    9 1   
    12    7   15 1   
    13    7   16 1   
    14    8    9 1   
    15    9   10 1   
@<TRIPOS>SUBSTRUCTURE
     1 2HG         1 TEMP              0 ****  ****    0 ROOT
