@<TRIPOS>MOLECULE
2HH
   26    27     1     0     0
SMALL
bcc


@<TRIPOS>ATOM
      1 C1          0.0390   -0.0730   -0.0450 c3        1 2HH      0.011600
      2 N2          1.4220   -0.3870    0.2690 na        1 2HH      0.189400
      3 C3          2.1040    0.0960    1.4190 cc        1 2HH     -0.276900
      4 C4          3.4200   -0.4400    1.3530 cd        1 2HH     -0.201300
      5 C5          3.4360   -1.2130    0.1550 cd        1 2HH      0.307200
      6 N6          2.2090   -1.1490   -0.4610 nc        1 2HH     -0.412800
      7 C7          1.4850    0.9540    2.3890 c         1 2HH      0.607700
      8 O8          0.3440    1.4030    2.4170 o         1 2HH     -0.446100
      9 N9          2.3800    1.3980    3.5410 n4        1 2HH     -0.526200
     10 C10         2.2480    0.5190    4.6990 ca        1 2HH     -0.195700
     11 C11         3.3300   -0.2720    5.1340 ca        1 2HH     -0.061000
     12 C12         3.1490   -1.0730    6.2580 ca        1 2HH     -0.219300
     13 C13         1.8960   -1.0630    6.9080 ca        1 2HH      0.461200
     14 N14         0.8570   -0.3120    6.4950 nb        1 2HH     -0.621000
     15 C15         1.0220    0.4640    5.4140 ca        1 2HH      0.451200
     16 H1         -0.6110   -0.4320    0.7980 h1        1 2HH      0.093033
     17 H2         -0.0630    1.0410   -0.1460 h1        1 2HH      0.093033
     18 H3         -0.2670   -0.5740   -1.0030 h1        1 2HH      0.093033
     19 H4          4.2410   -0.3100    2.0510 ha        1 2HH      0.168000
     20 H5          4.2580   -1.7950   -0.2740 h4        1 2HH      0.082100
     21 H6          2.0950    2.3470    3.8230 hn        1 2HH      0.466300
     22 H7          4.3010   -0.2660    4.6120 ha        1 2HH      0.157000
     23 H8          3.9670   -1.7060    6.6360 ha        1 2HH      0.184000
     24 H9          1.7120   -1.6870    7.8070 h4        1 2HH      0.067100
     25 H10         0.1380    1.0590    5.1050 h4        1 2HH      0.060100
     26 H92         3.3590    1.4170    3.2310 hn        1 2HH      0.466300
@<TRIPOS>BOND
     1    1    2 1   
     2    1   16 1   
     3    1   17 1   
     4    1   18 1   
     5    2    3 1   
     6    2    6 1   
     7    3    4 2   
     8    3    7 1   
     9    4    5 1   
    10    4   19 1   
    11    5    6 2   
    12    5   20 1   
    13    7    8 2   
    14    7    9 1   
    15    9   10 1   
    16    9   21 1   
    17    9   26 1   
    18   10   11 ar  
    19   10   15 ar  
    20   11   12 ar  
    21   11   22 1   
    22   12   13 ar  
    23   12   23 1   
    24   13   14 ar  
    25   13   24 1   
    26   14   15 ar  
    27   15   25 1   
@<TRIPOS>SUBSTRUCTURE
     1 2HH         1 TEMP              0 ****  ****    0 ROOT
