@<TRIPOS>MOLECULE
2HH
   25    26     1     0     0
SMALL
bcc


@<TRIPOS>ATOM
      1 C1          0.0500    0.2460   -0.1460 c3        1 2HH      0.031600
      2 N2          1.4900    0.1070   -0.0970 na        1 2HH      0.145400
      3 C3          2.2330   -0.0210    1.0950 cc        1 2HH     -0.188900
      4 C4          3.5860   -0.1300    0.7100 cd        1 2HH     -0.257300
      5 C5          3.5630   -0.0590   -0.7250 cd        1 2HH      0.284200
      6 N6          2.2810    0.0830   -1.1670 nc        1 2HH     -0.486800
      7 C7          1.6160   -0.0260    2.4390 c         1 2HH      0.713700
      8 O8          0.3840    0.0930    2.5920 o         1 2HH     -0.598100
      9 N9          2.5000   -0.1720    3.4990 ns        1 2HH     -0.454100
     10 C10         2.1820   -0.2100    4.8620 ca        1 2HH     -0.047700
     11 C11         3.2240   -0.3800    5.8070 ca        1 2HH     -0.150000
     12 C12         2.9140   -0.4170    7.1620 ca        1 2HH     -0.218300
     13 C13         1.5710   -0.2860    7.5570 ca        1 2HH      0.367200
     14 N14         0.5630   -0.1240    6.6800 nb        1 2HH     -0.642000
     15 C15         0.8550   -0.0870    5.3720 ca        1 2HH      0.377200
     16 H1         -0.3010    0.3260   -1.2080 h1        1 2HH      0.074367
     17 H2         -0.4160   -0.6490    0.3480 h1        1 2HH      0.074367
     18 H3         -0.2430    1.1660    0.4280 h1        1 2HH      0.074367
     19 H4          4.4630   -0.2420    1.3370 ha        1 2HH      0.162000
     20 H5          4.4060   -0.1060   -1.4150 h4        1 2HH      0.050100
     21 H6          3.4680   -0.2650    3.2810 hn        1 2HH      0.323500
     22 H7          4.2710   -0.4810    5.4840 ha        1 2HH      0.135000
     23 H8          3.7050   -0.5470    7.9130 ha        1 2HH      0.144000
     24 H9          1.2860   -0.3100    8.6230 h4        1 2HH      0.025100
     25 H10        -0.0120    0.0480    4.6950 h4        1 2HH      0.063100
@<TRIPOS>BOND
     1    1    2 1   
     2    1   16 1   
     3    1   17 1   
     4    1   18 1   
     5    2    3 1   
     6    2    6 1   
     7    3    4 2   
     8    3    7 1   
     9    4    5 1   
    10    4   19 1   
    11    5    6 2   
    12    5   20 1   
    13    7    8 2   
    14    7    9 1   
    15    9   10 1   
    16    9   21 1   
    17   10   11 ar  
    18   10   15 ar  
    19   11   12 ar  
    20   11   22 1   
    21   12   13 ar  
    22   12   23 1   
    23   13   14 ar  
    24   13   24 1   
    25   14   15 ar  
    26   15   25 1   
@<TRIPOS>SUBSTRUCTURE
     1 2HH         1 TEMP              0 ****  ****    0 ROOT
