@<TRIPOS>MOLECULE
2HH
   25    26     1     0     0
SMALL
bcc


@<TRIPOS>ATOM
      1 C1          0.0500    0.2250   -0.1480 c3        1 2HH      0.031600
      2 N2          1.4910    0.1060   -0.0970 na        1 2HH      0.145400
      3 C3          2.2360   -0.0060    1.0960 cc        1 2HH     -0.188900
      4 C4          3.5910   -0.0950    0.7130 cd        1 2HH     -0.257300
      5 C5          3.5680   -0.0280   -0.7220 cd        1 2HH      0.284200
      6 N6          2.2840    0.0930   -1.1670 nc        1 2HH     -0.486800
      7 C7          1.6170   -0.0170    2.4400 c         1 2HH      0.713700
      8 O8          0.3850    0.1020    2.5920 o         1 2HH     -0.598100
      9 N9          2.5000   -0.1670    3.4990 n         1 2HH     -0.454100
     10 C10         2.1810   -0.2120    4.8620 ca        1 2HH     -0.047700
     11 C11         3.2200   -0.4050    5.8060 ca        1 2HH     -0.150000
     12 C12         2.9080   -0.4480    7.1610 ca        1 2HH     -0.218300
     13 C13         1.5680   -0.2970    7.5560 ca        1 2HH      0.367200
     14 N14         0.5620   -0.1120    6.6800 nb        1 2HH     -0.642000
     15 C15         0.8560   -0.0700    5.3720 ca        1 2HH      0.377200
     16 H1         -0.2570    1.1460    0.4170 h1        1 2HH      0.074033
     17 H2         -0.4040   -0.6720    0.3550 h1        1 2HH      0.074033
     18 H3         -0.3020    0.2890   -1.2110 h1        1 2HH      0.074033
     19 H4          4.4680   -0.1900    1.3410 ha        1 2HH      0.162000
     20 H5          4.4120   -0.0630   -1.4110 h4        1 2HH      0.050100
     21 H6          3.4680   -0.2650    3.2820 hn        1 2HH      0.323500
     22 H7          4.2650   -0.5210    5.4820 ha        1 2HH      0.135000
     23 H8          3.6960   -0.5960    7.9110 ha        1 2HH      0.144000
     24 H9          1.2810   -0.3250    8.6220 h4        1 2HH      0.025100
     25 H10        -0.0090    0.0830    4.6960 h4        1 2HH      0.063100
@<TRIPOS>BOND
     1    1    2 1   
     2    1   16 1   
     3    1   17 1   
     4    1   18 1   
     5    2    3 1   
     6    2    6 1   
     7    3    4 2   
     8    3    7 1   
     9    4    5 1   
    10    4   19 1   
    11    5    6 2   
    12    5   20 1   
    13    7    8 2   
    14    7    9 1   
    15    9   10 1   
    16    9   21 1   
    17   10   11 ar  
    18   10   15 ar  
    19   11   12 ar  
    20   11   22 1   
    21   12   13 ar  
    22   12   23 1   
    23   13   14 ar  
    24   13   24 1   
    25   14   15 ar  
    26   15   25 1   
@<TRIPOS>SUBSTRUCTURE
     1 2HH         1 TEMP              0 ****  ****    0 ROOT
