@<TRIPOS>MOLECULE
2HI
   32    29     1     0     0
SMALL
bcc


@<TRIPOS>ATOM
      1 C1         -3.4150   -1.5020   -2.1320 c1        1 2HI     -0.237500
      2 C2         -2.0910   -1.0230   -2.1270 c1        1 2HI     -0.003000
      3 C3         -1.3840   -0.9570   -0.9400 c1        1 2HI     -0.252000
      4 C4         -2.0140   -1.3840    0.3090 c1        1 2HI      0.162000
      5 C5         -3.3160   -1.8540    0.2990 c1        1 2HI     -0.205000
      6 C6         -4.0320   -1.9200   -0.9120 c1        1 2HI      0.112500
      7 O1         -1.2270   -1.2370    1.5800 os        1 2HI     -0.248000
      8 C7          0.1180   -0.5570   -0.8950 c2        1 2HI      0.294000
      9 O2          0.7330   -0.3900   -1.9290 o         1 2HI     -0.277000
     10 C8          0.8120   -0.7770    0.3070 c3        1 2HI     -0.116000
     11 C9         -0.0210   -0.5600    1.5140 c3        1 2HI      0.164000
     12 O3         -0.3110    0.8910    1.6090 oh        1 2HI     -0.334000
     13 C10         1.7910    0.3880    0.3540 c2        1 2HI     -0.113000
     14 C11         2.9350    0.3000    1.1300 c2        1 2HI     -0.084000
     15 C12         3.7920    1.3850    1.2270 c1        1 2HI     -0.163000
     16 C13         3.5040    2.5580    0.5480 c1        1 2HI      0.112500
     17 C14         2.3600    2.6460   -0.2280 c1        1 2HI     -0.237500
     18 C15         1.5030    1.5610   -0.3260 c1        1 2HI     -0.049000
     19 O4          4.3490    3.6740    0.6850 oh        1 2HI     -0.247500
     20 O5         -5.3610   -2.3810   -0.9170 oh        1 2HI     -0.247500
     21 H1         -3.9140   -1.5480   -2.9710 ha        1 2HI      0.139000
     22 H2         -1.6710   -0.7380   -2.9610 ha        1 2HI      0.159000
     23 H5         -3.7380   -2.1400    1.1310 ha        1 2HI      0.169000
     24 H8          1.4020   -1.5560    0.3260 hc        1 2HI      0.132000
     25 H9          0.5090   -0.8150    2.2950 h2        1 2HI      0.126000
     26 HO3        -0.7530    1.0560    2.3610 ho        1 2HI      0.224000
     27 H11         3.1380   -0.5260    1.6080 ha        1 2HI      0.131000
     28 H12         4.5980    1.3230    1.7740 ha        1 2HI      0.151000
     29 H14         2.1570    3.4730   -0.7070 ha        1 2HI      0.139000
     30 H15         0.6970    1.6240   -0.8720 ha        1 2HI      0.156000
     31 HO4         4.2250    4.2250   -0.0010 ho        1 2HI      0.222000
     32 HO5        -5.3760   -3.2420   -1.1390 ho        1 2HI      0.222000
@<TRIPOS>BOND
     1    1    6 1   
     2    1   21 1   
     3    2    3 1   
     4    2   22 1   
     5    3    8 1   
     6    4    5 1   
     7    4    7 1   
     8    5   23 1   
     9    6   20 1   
    10    7   11 1   
    11    8    9 1   
    12    8   10 1   
    13   10   11 1   
    14   10   13 1   
    15   10   24 1   
    16   11   12 1   
    17   11   25 1   
    18   12   26 1   
    19   13   14 1   
    20   13   18 1   
    21   14   15 1   
    22   14   27 1   
    23   15   28 1   
    24   16   17 1   
    25   16   19 1   
    26   17   29 1   
    27   18   30 1   
    28   19   31 1   
    29   20   32 1   
@<TRIPOS>SUBSTRUCTURE
     1 2HI         1 TEMP              0 ****  ****    0 ROOT
