@<TRIPOS>MOLECULE
2HI
   32    34     1     0     0
SMALL
bcc


@<TRIPOS>ATOM
      1 C1         -0.0690    0.0860   -0.1660 ca        1 2HI     -0.259000
      2 C2          1.3100   -0.0290   -0.0670 ca        1 2HI     -0.001000
      3 C3          1.9490    0.0020    1.1820 ca        1 2HI     -0.266600
      4 C4          1.1660    0.1680    2.3380 ca        1 2HI      0.209100
      5 C5         -0.2300    0.2870    2.2690 ca        1 2HI     -0.207000
      6 C6         -0.8330    0.2400    1.0060 ca        1 2HI      0.182100
      7 O1          1.6980    0.1880    3.6090 os        1 2HI     -0.364900
      8 C7          3.4050   -0.1370    1.2680 c         1 2HI      0.609700
      9 O2          4.1370   -0.1670    0.2720 o         1 2HI     -0.530100
     10 C8          3.9960   -0.2460    2.6620 c3        1 2HI     -0.126400
     11 C9          3.1060    0.3860    3.7330 c3        1 2HI      0.345900
     12 O3          3.2760    1.7810    3.6770 oh        1 2HI     -0.611800
     13 C10         4.3190   -1.6690    2.9850 ca        1 2HI     -0.128300
     14 C11         5.6000   -2.1600    2.6900 ca        1 2HI     -0.078000
     15 C12         5.9410   -3.4760    2.9770 ca        1 2HI     -0.185500
     16 C13         4.9830   -4.3160    3.5700 ca        1 2HI      0.133100
     17 C14         3.6980   -3.8410    3.8670 ca        1 2HI     -0.185500
     18 C15         3.3750   -2.5190    3.5700 ca        1 2HI     -0.078000
     19 O4          5.3780   -5.6060    3.8360 oh        1 2HI     -0.495100
     20 O5         -2.2000    0.3560    0.9820 oh        1 2HI     -0.490100
     21 H1         -0.5630    0.0570   -1.1470 ha        1 2HI      0.142000
     22 H2          1.9290   -0.1490   -0.9730 ha        1 2HI      0.160000
     23 H5         -0.8320    0.4120    3.1790 ha        1 2HI      0.169000
     24 H8          4.9570    0.3540    2.6570 hc        1 2HI      0.112700
     25 H9          3.3340   -0.0240    4.7610 h2        1 2HI      0.086700
     26 HO3         2.6540    2.1790    4.3010 ho        1 2HI      0.426000
     27 H11         6.3410   -1.4980    2.2140 ha        1 2HI      0.146000
     28 H12         6.9410   -3.8700    2.7470 ha        1 2HI      0.146000
     29 H14         2.9520   -4.5040    4.3260 ha        1 2HI      0.146000
     30 H15         2.3640   -2.1440    3.7960 ha        1 2HI      0.146000
     31 HO4         4.6250   -6.0760    4.2230 ho        1 2HI      0.421000
     32 HO5        -2.4900    0.3200    0.0580 ho        1 2HI      0.426000
@<TRIPOS>BOND
     1    1    2 ar  
     2    1    6 ar  
     3    1   21 1   
     4    2    3 ar  
     5    2   22 1   
     6    3    4 ar  
     7    3    8 1   
     8    4    5 ar  
     9    4    7 1   
    10    5    6 ar  
    11    5   23 1   
    12    6   20 1   
    13    7   11 1   
    14    8    9 2   
    15    8   10 1   
    16   10   11 1   
    17   10   13 1   
    18   10   24 1   
    19   11   12 1   
    20   11   25 1   
    21   12   26 1   
    22   13   14 ar  
    23   13   18 ar  
    24   14   15 ar  
    25   14   27 1   
    26   15   16 ar  
    27   15   28 1   
    28   16   17 ar  
    29   16   19 1   
    30   17   18 ar  
    31   17   29 1   
    32   18   30 1   
    33   19   31 1   
    34   20   32 1   
@<TRIPOS>SUBSTRUCTURE
     1 2HI         1 TEMP              0 ****  ****    0 ROOT
