@<TRIPOS>MOLECULE
2HI
   32    34     1     0     0
SMALL
bcc


@<TRIPOS>ATOM
      1 C1          3.4690    0.7670   -1.5700 ca        1 2HI     -0.202000
      2 C2          2.3520   -0.0250   -1.7800 ca        1 2HI     -0.008000
      3 C3          1.5200   -0.4080   -0.7150 ca        1 2HI     -0.266600
      4 C4          1.8490    0.0150    0.5840 ca        1 2HI      0.216100
      5 C5          2.9750    0.8160    0.8290 ca        1 2HI     -0.267000
      6 C6          3.7730    1.1870   -0.2590 ca        1 2HI      0.185100
      7 O1          1.0870   -0.2880    1.6910 os        1 2HI     -0.367900
      8 C7          0.3340   -1.2320   -0.9640 c         1 2HI      0.609700
      9 O2          0.0760   -1.7220   -2.0680 o         1 2HI     -0.529100
     10 C8         -0.5900   -1.4660    0.2170 c3        1 2HI     -0.126400
     11 C9          0.1230   -1.3330    1.5650 c3        1 2HI      0.345900
     12 O3          0.8480   -2.5160    1.7950 oh        1 2HI     -0.610800
     13 C10        -1.7830   -0.5690    0.1370 ca        1 2HI     -0.127300
     14 C11        -2.9380   -1.0290   -0.5140 ca        1 2HI     -0.078000
     15 C12        -4.0680   -0.2270   -0.6090 ca        1 2HI     -0.185500
     16 C13        -4.0430    1.0590   -0.0430 ca        1 2HI      0.133100
     17 C14        -2.8940    1.5340    0.6070 ca        1 2HI     -0.185500
     18 C15        -1.7710    0.7150    0.6900 ca        1 2HI     -0.078000
     19 O4         -5.1910    1.8050   -0.1630 oh        1 2HI     -0.494100
     20 O5          4.8900    1.9700   -0.1140 oh        1 2HI     -0.489100
     21 H1          4.1210    1.0720   -2.4000 ha        1 2HI      0.159000
     22 H2          2.0940   -0.3690   -2.7970 ha        1 2HI      0.162000
     23 H5          3.2100    1.1370    1.8520 ha        1 2HI      0.153000
     24 H8         -0.9370   -2.5430    0.1510 hc        1 2HI      0.112700
     25 H9         -0.6040   -1.1150    2.4020 h2        1 2HI      0.085700
     26 HO3         1.3520   -2.3970    2.6100 ho        1 2HI      0.425000
     27 H11        -2.9450   -2.0340   -0.9650 ha        1 2HI      0.145000
     28 H12        -4.9760   -0.5780   -1.1190 ha        1 2HI      0.146000
     29 H14        -2.8790    2.5420    1.0420 ha        1 2HI      0.146000
     30 H15        -0.8640    1.0870    1.1940 ha        1 2HI      0.145000
     31 HO4        -5.0320    2.6680    0.2470 ho        1 2HI      0.421000
     32 HO5         4.9910    2.1850    0.8250 ho        1 2HI      0.425000
@<TRIPOS>BOND
     1    1    2 ar  
     2    1    6 ar  
     3    1   21 1   
     4    2    3 ar  
     5    2   22 1   
     6    3    4 ar  
     7    3    8 1   
     8    4    5 ar  
     9    4    7 1   
    10    5    6 ar  
    11    5   23 1   
    12    6   20 1   
    13    7   11 1   
    14    8    9 2   
    15    8   10 1   
    16   10   11 1   
    17   10   13 1   
    18   10   24 1   
    19   11   12 1   
    20   11   25 1   
    21   12   26 1   
    22   13   14 ar  
    23   13   18 ar  
    24   14   15 ar  
    25   14   27 1   
    26   15   16 ar  
    27   15   28 1   
    28   16   17 ar  
    29   16   19 1   
    30   17   18 ar  
    31   17   29 1   
    32   18   30 1   
    33   19   31 1   
    34   20   32 1   
@<TRIPOS>SUBSTRUCTURE
     1 2HI         1 TEMP              0 ****  ****    0 ROOT
