@<TRIPOS>MOLECULE
2HJ
   57    58     1     0     0
SMALL
bcc


@<TRIPOS>ATOM
      1 C1          1.5610   -1.1670   -0.4250 c3        1 2HJ     -0.096100
      2 C2          2.5370   -0.2230    0.2750 c3        1 2HJ     -0.044700
      3 C3          2.2790   -0.2490    1.7810 c3        1 2HJ     -0.096100
      4 C4          3.9550   -0.7170    0.0190 c3        1 2HJ     -0.096100
      5 C5          2.3160    1.1750   -0.2310 ca        1 2HJ      0.127700
      6 C6          3.3330    1.9240   -0.8560 ca        1 2HJ     -0.162500
      7 C7          3.1000    3.2130   -1.2910 ca        1 2HJ      0.033000
      8 C8          1.8330    3.8420   -1.1340 ca        1 2HJ     -0.645500
      9 C9          0.8140    3.0660   -0.5110 ca        1 2HJ      0.033000
     10 C10         1.0480    1.7800   -0.0760 ca        1 2HJ     -0.162500
     11 S11         1.5980    5.3130   -1.5500 s4        1 2HJ      1.682300
     12 O12         0.4100    5.8930   -1.2350 o         1 2HJ     -0.437900
     13 O13         2.6620    6.0330   -1.9940 o         1 2HJ     -0.437900
     14 N14         0.9110    4.9500   -3.8270 n3        1 2HJ     -0.997800
     15 C15        -0.3070    5.6890   -4.1310 c3        1 2HJ      0.164100
     16 C16        -0.5810    5.9380   -5.5870 ca        1 2HJ     -0.073300
     17 C17        -1.7870    5.5090   -6.1540 ca        1 2HJ     -0.112000
     18 C18        -2.0780    5.7870   -7.4880 ca        1 2HJ     -0.063500
     19 C19        -1.1520    6.4920   -8.2680 ca        1 2HJ     -0.175600
     20 C20         0.0660    6.9120   -7.7100 ca        1 2HJ     -0.063500
     21 C21         0.3410    6.6410   -6.3710 ca        1 2HJ     -0.112000
     22 C22        -1.3750    6.7630   -9.6940 c         1 2HJ      0.572700
     23 O23        -0.5910    6.6340  -10.6210 o         1 2HJ     -0.392100
     24 N24        -2.7550    7.2860  -10.0790 n4        1 2HJ     -0.532200
     25 C25        -2.7820    8.7460  -10.1190 ca        1 2HJ     -0.203700
     26 C26        -2.2750    9.4410  -11.2380 ca        1 2HJ     -0.053000
     27 C27        -2.3480   10.8300  -11.2360 ca        1 2HJ     -0.213300
     28 C28        -2.9190   11.4840  -10.1230 ca        1 2HJ      0.465200
     29 N29        -3.4030   10.8260   -9.0510 nb        1 2HJ     -0.623000
     30 C30        -3.3420    9.4860   -9.0450 ca        1 2HJ      0.442200
     31 H1          0.5040   -0.8770   -0.2170 hc        1 2HJ      0.055700
     32 H2          1.7320   -1.1610   -1.5280 hc        1 2HJ      0.055700
     33 H3          1.7200   -2.2070   -0.0470 hc        1 2HJ      0.055700
     34 H4          1.2290    0.0520    2.0120 hc        1 2HJ      0.055700
     35 H5          2.4410   -1.2870    2.1640 hc        1 2HJ      0.055700
     36 H6          2.9810    0.4370    2.3120 hc        1 2HJ      0.055700
     37 H7          4.1810   -0.7350   -1.0740 hc        1 2HJ      0.055700
     38 H8          4.0600   -1.7590    0.4130 hc        1 2HJ      0.055700
     39 H9          4.7020   -0.0730    0.5430 hc        1 2HJ      0.055700
     40 H10         4.3390    1.4870   -0.9950 ha        1 2HJ      0.186000
     41 H11         3.9230    3.7850   -1.7620 ha        1 2HJ      0.169000
     42 H12        -0.1830    3.5220   -0.3610 ha        1 2HJ      0.169000
     43 H13         0.2340    1.2130    0.4130 ha        1 2HJ      0.186000
     44 H14         0.7990    3.9750   -4.0490 hn        1 2HJ      0.399300
     45 H15        -1.1770    5.1380   -3.6680 h1        1 2HJ      0.099200
     46 H16        -0.2350    6.6940   -3.6140 h1        1 2HJ      0.099200
     47 H17        -2.5200    4.9510   -5.5470 ha        1 2HJ      0.165500
     48 H18        -3.0220    5.4120   -7.9140 ha        1 2HJ      0.162000
     49 H19         0.8030    7.4530   -8.3280 ha        1 2HJ      0.162000
     50 H20         1.2890    7.0000   -5.9370 ha        1 2HJ      0.165500
     51 H21        -2.9960    6.9320  -11.0170 hn        1 2HJ      0.465800
     52 H22        -1.8280    8.9080  -12.0950 ha        1 2HJ      0.175000
     53 H23        -1.9690   11.4150  -12.0910 ha        1 2HJ      0.192000
     54 H24        -2.9980   12.5900  -10.0850 h4        1 2HJ      0.072100
     55 H25        -3.7650    8.9960   -8.1470 h4        1 2HJ      0.041100
     56 H142        1.6850    5.3100   -4.3670 hn        1 2HJ      0.399300
     57 H242       -3.4540    6.9560   -9.4040 hn        1 2HJ      0.465800
@<TRIPOS>BOND
     1    1    2 1   
     2    1   31 1   
     3    1   32 1   
     4    1   33 1   
     5    2    3 1   
     6    2    4 1   
     7    2    5 1   
     8    3   34 1   
     9    3   35 1   
    10    3   36 1   
    11    4   37 1   
    12    4   38 1   
    13    4   39 1   
    14    5    6 ar  
    15    5   10 ar  
    16    6    7 ar  
    17    6   40 1   
    18    7    8 ar  
    19    7   41 1   
    20    8    9 ar  
    21    8   11 1   
    22    9   10 ar  
    23    9   42 1   
    24   10   43 1   
    25   11   12 1   
    26   11   13 1   
    27   14   15 1   
    28   14   44 1   
    29   14   56 1   
    30   15   16 1   
    31   15   45 1   
    32   15   46 1   
    33   16   17 ar  
    34   16   21 ar  
    35   17   18 ar  
    36   17   47 1   
    37   18   19 ar  
    38   18   48 1   
    39   19   20 ar  
    40   19   22 1   
    41   20   21 ar  
    42   20   49 1   
    43   21   50 1   
    44   22   23 2   
    45   22   24 1   
    46   24   25 1   
    47   24   51 1   
    48   24   57 1   
    49   25   26 ar  
    50   25   30 ar  
    51   26   27 ar  
    52   26   52 1   
    53   27   28 ar  
    54   27   53 1   
    55   28   29 ar  
    56   28   54 1   
    57   29   30 ar  
    58   30   55 1   
@<TRIPOS>SUBSTRUCTURE
     1 2HJ         1 TEMP              0 ****  ****    0 ROOT
