@<TRIPOS>MOLECULE
2HJ
   56    58     1     0     0
SMALL
bcc


@<TRIPOS>ATOM
      1 C1          0.9090   -1.1050   -1.1540 c3        1 2HJ     -0.094100
      2 C2          2.1900   -0.5350   -0.5470 c3        1 2HJ     -0.037700
      3 C3          2.1960   -0.7920    0.9590 c3        1 2HJ     -0.094100
      4 C4          3.3800   -1.2590   -1.1640 c3        1 2HJ     -0.094100
      5 C5          2.2320    0.9500   -0.7890 ca        1 2HJ      0.088700
      6 C6          3.2760    1.5680   -1.5000 ca        1 2HJ     -0.156500
      7 C7          3.2840    2.9380   -1.6960 ca        1 2HJ      0.013500
      8 C8          2.2510    3.7650   -1.1990 ca        1 2HJ     -0.569500
      9 C9          1.2080    3.1310   -0.4820 ca        1 2HJ      0.013500
     10 C10         1.1970    1.7630   -0.2850 ca        1 2HJ     -0.156500
     11 S11         2.3060    5.3510   -1.3540 sy        1 2HJ      1.492200
     12 O12         1.4650    6.0550   -0.5140 o         1 2HJ     -0.575800
     13 O13         3.5300    5.8630   -1.7380 o         1 2HJ     -0.575800
     14 N14         1.3400    5.4600   -3.0030 n4        1 2HJ     -0.697900
     15 C15         1.1690    6.8740   -3.4280 c3        1 2HJ      0.158100
     16 C16         0.4360    7.0020   -4.7220 ca        1 2HJ     -0.155300
     17 C17        -0.9140    7.3640   -4.7330 ca        1 2HJ     -0.111000
     18 C18        -1.5910    7.4950   -5.9460 ca        1 2HJ     -0.086000
     19 C19        -0.9180    7.2560   -7.1460 ca        1 2HJ     -0.104600
     20 C20         0.4340    6.8950   -7.1380 ca        1 2HJ     -0.086000
     21 C21         1.1110    6.7740   -5.9270 ca        1 2HJ     -0.111000
     22 C22        -1.6220    7.3200   -8.4700 c         1 2HJ      0.668700
     23 O23        -1.4790    6.3980   -9.2930 o         1 2HJ     -0.567100
     24 N24        -2.4090    8.4360   -8.6810 n         1 2HJ     -0.451100
     25 C25        -3.1300    8.7430   -9.8480 ca        1 2HJ     -0.070700
     26 C26        -3.3340    7.8390  -10.9110 ca        1 2HJ     -0.112000
     27 C27        -4.0840    8.2530  -12.0110 ca        1 2HJ     -0.217300
     28 C28        -4.6150    9.5530  -12.0310 ca        1 2HJ      0.379200
     29 N29        -4.4340   10.4350  -11.0270 nb        1 2HJ     -0.636000
     30 C30        -3.7130   10.0430   -9.9690 ca        1 2HJ      0.357200
     31 H1          0.8850   -0.9240   -2.2550 hc        1 2HJ      0.051256
     32 H2          0.0070   -0.6410   -0.6900 hc        1 2HJ      0.051256
     33 H3          0.8720   -2.2070   -0.9740 hc        1 2HJ      0.051256
     34 H4          1.3060   -0.3280    1.4470 hc        1 2HJ      0.051256
     35 H5          3.1220   -0.3760    1.4230 hc        1 2HJ      0.051256
     36 H6          2.1670   -1.8930    1.1480 hc        1 2HJ      0.051256
     37 H7          3.4030   -1.1150   -2.2710 hc        1 2HJ      0.051256
     38 H8          4.3380   -0.8960   -0.7220 hc        1 2HJ      0.051256
     39 H9          3.2940   -2.3550   -0.9580 hc        1 2HJ      0.051256
     40 H10         4.1090    0.9680   -1.9030 ha        1 2HJ      0.175500
     41 H11         4.1290    3.4040   -2.2370 ha        1 2HJ      0.164000
     42 H12         0.3970    3.7510   -0.0550 ha        1 2HJ      0.164000
     43 H13         0.3710    1.3030    0.2850 ha        1 2HJ      0.175500
     44 H14         0.4210    5.0330   -2.9140 hn        1 2HJ      0.443800
     45 H15         0.6120    7.4120   -2.6030 hx        1 2HJ      0.115200
     46 H16         2.2020    7.3260   -3.5240 hx        1 2HJ      0.115200
     47 H17        -1.4470    7.5590   -3.7890 ha        1 2HJ      0.144500
     48 H18        -2.6580    7.7730   -5.9450 ha        1 2HJ      0.168000
     49 H19         0.9510    6.6980   -8.0930 ha        1 2HJ      0.168000
     50 H20         2.1800    6.5110   -5.9250 ha        1 2HJ      0.144500
     51 H21        -2.3950    9.1500   -7.9860 hn        1 2HJ      0.322500
     52 H22        -2.9110    6.8220  -10.8870 ha        1 2HJ      0.175000
     53 H23        -4.2570    7.5690  -12.8530 ha        1 2HJ      0.154000
     54 H24        -5.2130    9.9150  -12.8860 h4        1 2HJ      0.034100
     55 H25        -3.5930   10.8020   -9.1750 h4        1 2HJ      0.019100
     56 H142        1.8270    4.9580   -3.7440 hn        1 2HJ      0.443800
@<TRIPOS>BOND
     1    1    2 1   
     2    1   31 1   
     3    1   32 1   
     4    1   33 1   
     5    2    3 1   
     6    2    4 1   
     7    2    5 1   
     8    3   34 1   
     9    3   35 1   
    10    3   36 1   
    11    4   37 1   
    12    4   38 1   
    13    4   39 1   
    14    5    6 ar  
    15    5   10 ar  
    16    6    7 ar  
    17    6   40 1   
    18    7    8 ar  
    19    7   41 1   
    20    8    9 ar  
    21    8   11 1   
    22    9   10 ar  
    23    9   42 1   
    24   10   43 1   
    25   11   12 2   
    26   11   13 2   
    27   11   14 1   
    28   14   15 1   
    29   14   44 1   
    30   14   56 1   
    31   15   16 1   
    32   15   45 1   
    33   15   46 1   
    34   16   17 ar  
    35   16   21 ar  
    36   17   18 ar  
    37   17   47 1   
    38   18   19 ar  
    39   18   48 1   
    40   19   20 ar  
    41   19   22 1   
    42   20   21 ar  
    43   20   49 1   
    44   21   50 1   
    45   22   23 2   
    46   22   24 1   
    47   24   25 1   
    48   24   51 1   
    49   25   26 ar  
    50   25   30 ar  
    51   26   27 ar  
    52   26   52 1   
    53   27   28 ar  
    54   27   53 1   
    55   28   29 ar  
    56   28   54 1   
    57   29   30 ar  
    58   30   55 1   
@<TRIPOS>SUBSTRUCTURE
     1 2HJ         1 TEMP              0 ****  ****    0 ROOT
