@<TRIPOS>MOLECULE
2HJ
   56    58     1     0     0
SMALL
bcc


@<TRIPOS>ATOM
      1 C1          0.8540   -1.0880   -1.1050 c3        1 2HJ     -0.094100
      2 C2          2.1460   -0.5280   -0.5140 c3        1 2HJ     -0.037700
      3 C3          2.1650   -0.7760    0.9930 c3        1 2HJ     -0.094100
      4 C4          3.3220   -1.2690   -1.1390 c3        1 2HJ     -0.094100
      5 C5          2.2020    0.9540   -0.7670 ca        1 2HJ      0.088700
      6 C6          3.2450    1.5570   -1.4920 ca        1 2HJ     -0.156500
      7 C7          3.2660    2.9260   -1.6970 ca        1 2HJ      0.013500
      8 C8          2.2460    3.7660   -1.1950 ca        1 2HJ     -0.569500
      9 C9          1.2040    3.1480   -0.4650 ca        1 2HJ      0.013500
     10 C10         1.1810    1.7820   -0.2580 ca        1 2HJ     -0.156500
     11 S11         2.3170    5.3510   -1.3620 sy        1 2HJ      1.492200
     12 O12         1.4910    6.0690   -0.5190 o         1 2HJ     -0.575800
     13 O13         3.5430    5.8470   -1.7590 o         1 2HJ     -0.575800
     14 N14         1.3370    5.4600   -3.0030 ny        1 2HJ     -0.697900
     15 C15         1.1980    6.8710   -3.4470 c3        1 2HJ      0.157100
     16 C16         0.4580    6.9980   -4.7380 ca        1 2HJ     -0.155300
     17 C17        -0.8820    7.3950   -4.7440 ca        1 2HJ     -0.111000
     18 C18        -1.5650    7.5250   -5.9540 ca        1 2HJ     -0.086000
     19 C19        -0.9080    7.2500   -7.1560 ca        1 2HJ     -0.104600
     20 C20         0.4360    6.8540   -7.1520 ca        1 2HJ     -0.086000
     21 C21         1.1180    6.7340   -5.9440 ca        1 2HJ     -0.111000
     22 C22        -1.6200    7.3130   -8.4750 c         1 2HJ      0.668700
     23 O23        -1.5080    6.3750   -9.2840 o         1 2HJ     -0.567100
     24 N24        -2.3780    8.4470   -8.6980 ns        1 2HJ     -0.451100
     25 C25        -3.0980    8.7540   -9.8640 ca        1 2HJ     -0.070700
     26 C26        -3.3380    7.8380  -10.9100 ca        1 2HJ     -0.112000
     27 C27        -4.0840    8.2560  -12.0110 ca        1 2HJ     -0.217300
     28 C28        -4.5770    9.5700  -12.0500 ca        1 2HJ      0.379200
     29 N29        -4.3620   10.4630  -11.0630 nb        1 2HJ     -0.636000
     30 C30        -3.6440   10.0680  -10.0040 ca        1 2HJ      0.357200
     31 H1         -0.0390   -0.6120   -0.6350 hc        1 2HJ      0.051256
     32 H2          0.8060   -2.1880   -0.9170 hc        1 2HJ      0.051256
     33 H3          0.8200   -0.9140   -2.2070 hc        1 2HJ      0.051256
     34 H4          1.2850   -0.2990    1.4860 hc        1 2HJ      0.051256
     35 H5          2.1270   -1.8750    1.1890 hc        1 2HJ      0.051256
     36 H6          3.1000   -0.3660    1.4450 hc        1 2HJ      0.051256
     37 H7          4.2890   -0.9140   -0.7090 hc        1 2HJ      0.051256
     38 H8          3.3360   -1.1320   -2.2460 hc        1 2HJ      0.051256
     39 H9          3.2270   -2.3620   -0.9240 hc        1 2HJ      0.051256
     40 H10         4.0690    0.9450   -1.9000 ha        1 2HJ      0.175500
     41 H11         4.1110    3.3790   -2.2500 ha        1 2HJ      0.164000
     42 H12         0.4040    3.7800   -0.0330 ha        1 2HJ      0.164000
     43 H13         0.3550    1.3340    0.3220 ha        1 2HJ      0.175500
     44 H14         0.4080    5.0580   -2.8960 hn        1 2HJ      0.443800
     45 H15         0.6610    7.4340   -2.6260 hx        1 2HJ      0.114700
     46 H16         2.2410    7.2950   -3.5570 hx        1 2HJ      0.114700
     47 H17        -1.4030    7.6180   -3.7990 ha        1 2HJ      0.144500
     48 H18        -2.6240    7.8300   -5.9500 ha        1 2HJ      0.168000
     49 H19         0.9400    6.6300   -8.1070 ha        1 2HJ      0.168000
     50 H20         2.1800    6.4440   -5.9450 ha        1 2HJ      0.144500
     51 H21        -2.3380    9.1700   -8.0140 hn        1 2HJ      0.322500
     52 H22        -2.9440    6.8090  -10.8710 ha        1 2HJ      0.175000
     53 H23        -4.2840    7.5620  -12.8400 ha        1 2HJ      0.154000
     54 H24        -5.1710    9.9350  -12.9070 h4        1 2HJ      0.034100
     55 H25        -3.4950   10.8370   -9.2240 h4        1 2HJ      0.019100
     56 H142        1.8030    4.9340   -3.7400 hn        1 2HJ      0.443800
@<TRIPOS>BOND
     1    1    2 1   
     2    1   31 1   
     3    1   32 1   
     4    1   33 1   
     5    2    3 1   
     6    2    4 1   
     7    2    5 1   
     8    3   34 1   
     9    3   35 1   
    10    3   36 1   
    11    4   37 1   
    12    4   38 1   
    13    4   39 1   
    14    5    6 ar  
    15    5   10 ar  
    16    6    7 ar  
    17    6   40 1   
    18    7    8 ar  
    19    7   41 1   
    20    8    9 ar  
    21    8   11 1   
    22    9   10 ar  
    23    9   42 1   
    24   10   43 1   
    25   11   12 2   
    26   11   13 2   
    27   11   14 1   
    28   14   15 1   
    29   14   44 1   
    30   14   56 1   
    31   15   16 1   
    32   15   45 1   
    33   15   46 1   
    34   16   17 ar  
    35   16   21 ar  
    36   17   18 ar  
    37   17   47 1   
    38   18   19 ar  
    39   18   48 1   
    40   19   20 ar  
    41   19   22 1   
    42   20   21 ar  
    43   20   49 1   
    44   21   50 1   
    45   22   23 2   
    46   22   24 1   
    47   24   25 1   
    48   24   51 1   
    49   25   26 ar  
    50   25   30 ar  
    51   26   27 ar  
    52   26   52 1   
    53   27   28 ar  
    54   27   53 1   
    55   28   29 ar  
    56   28   54 1   
    57   29   30 ar  
    58   30   55 1   
@<TRIPOS>SUBSTRUCTURE
     1 2HJ         1 TEMP              0 ****  ****    0 ROOT
