@<TRIPOS>MOLECULE
2HK
   67    72     1     0     0
SMALL
bcc


@<TRIPOS>ATOM
      1 O3         -0.0990    0.8370   -1.0600 oh        1 2HK     -0.495100
      2 C28         1.2390    0.6650   -0.7950 ca        1 2HK      0.132100
      3 C27         1.9560    1.5060    0.0680 ca        1 2HK     -0.186500
      4 C26         3.3090    1.2650    0.2870 ca        1 2HK     -0.077500
      5 C29         1.8730   -0.4120   -1.4390 ca        1 2HK     -0.186500
      6 C30         3.2250   -0.6340   -1.2110 ca        1 2HK     -0.077500
      7 C25         3.9580    0.1980   -0.3490 cp        1 2HK     -0.084000
      8 C22         5.3780   -0.0480   -0.1170 cp        1 2HK     -0.005000
      9 C21         5.9280    0.1010    1.1650 ca        1 2HK     -0.131000
     10 C20         7.2810   -0.1330    1.3860 ca        1 2HK     -0.096000
     11 C23         6.2170   -0.4330   -1.1740 ca        1 2HK     -0.131000
     12 C24         7.5710   -0.6680   -0.9570 ca        1 2HK     -0.096000
     13 C19         8.1180   -0.5230    0.3270 ca        1 2HK     -0.055000
     14 C18         9.5240   -0.7550    0.5900 cc        1 2HK      0.049700
     15 N3         10.3570   -1.5050   -0.3310 na        1 2HK     -0.205400
     16 N2         11.6180   -1.7450    0.2610 na        1 2HK     -0.144400
     17 C17        11.6690   -0.9200    1.4140 cd        1 2HK     -0.092300
     18 C10        12.5060   -0.4970    2.4190 ca        1 2HK     -0.078000
     19 C9         13.8790   -0.7300    2.7100 ca        1 2HK     -0.164000
     20 C16        10.2950   -0.3240    1.6480 cd        1 2HK     -0.121800
     21 C15        10.3870    0.4630    2.8420 cd        1 2HK     -0.160200
     22 C11        11.6920    0.3610    3.3120 ca        1 2HK      0.005000
     23 C12        12.3110    0.9360    4.4600 ca        1 2HK     -0.207000
     24 C13        13.6320    0.6880    4.7080 ca        1 2HK      0.142100
     25 O2         14.3490    1.1810    5.7770 os        1 2HK     -0.303900
     26 C14        13.6240    2.0060    6.6820 c3        1 2HK      0.108700
     27 C8         14.4290   -0.1570    3.8210 ca        1 2HK      0.110100
     28 O1         15.7390   -0.2890    4.2340 os        1 2HK     -0.313900
     29 C1         16.5610   -1.1220    3.4040 c3        1 2HK      0.124400
     30 C2         17.9300   -1.1160    4.1010 c3        1 2HK      0.165800
     31 N1         18.8850   -1.9820    3.4260 n3        1 2HK     -0.734600
     32 C7         19.9020   -2.4900    4.3390 c3        1 2HK      0.172300
     33 C6         20.9170   -3.4070    3.6590 c3        1 2HK     -0.077900
     34 C5         21.5340   -2.7400    2.4490 c3        1 2HK     -0.078400
     35 C4         20.4530   -2.2570    1.5070 c3        1 2HK     -0.077900
     36 C3         19.4500   -1.3630    2.2340 c3        1 2HK      0.172300
     37 H29        -0.4070    1.6050   -0.5580 ho        1 2HK      0.421000
     38 H28         1.4540    2.3480    0.5660 ha        1 2HK      0.145000
     39 H27         3.8760    1.9270    0.9590 ha        1 2HK      0.138500
     40 H30         1.2920   -1.0610   -2.1090 ha        1 2HK      0.145000
     41 H31         3.7270   -1.4790   -1.7080 ha        1 2HK      0.138500
     42 H24         5.2820    0.3970    2.0050 ha        1 2HK      0.140000
     43 H23         7.7050   -0.0160    2.3960 ha        1 2HK      0.146000
     44 H25         5.8010   -0.5400   -2.1870 ha        1 2HK      0.140000
     45 H26         8.2090   -0.9520   -1.8080 ha        1 2HK      0.146000
     46 H32         9.9400   -2.3920   -0.5750 hn        1 2HK      0.253700
     47 H22        12.3330   -1.4990   -0.4150 hn        1 2HK      0.244700
     48 H16        14.4590   -1.3740    2.0350 ha        1 2HK      0.141000
     49 H21         9.5730    1.0270    3.2900 ha        1 2HK      0.144000
     50 H17        11.7010    1.5670    5.1200 ha        1 2HK      0.141000
     51 H18        12.7820    1.4380    7.1480 h1        1 2HK      0.044700
     52 H20        14.3900    2.2810    7.4520 h1        1 2HK      0.044700
     53 H19        13.2400    2.9190    6.1640 h1        1 2HK      0.044700
     54 H2         16.6160   -0.6830    2.3740 h1        1 2HK      0.045700
     55 H3         16.1300   -2.1550    3.3570 h1        1 2HK      0.045700
     56 H5         18.2900   -0.0480    4.1640 h1        1 2HK      0.049200
     57 H4         17.7760   -1.4800    5.1570 h1        1 2HK      0.049200
     58 H15        20.4630   -1.6470    4.8410 h1        1 2HK      0.029950
     59 H14        19.3730   -3.0740    5.1440 h1        1 2HK      0.029950
     60 H13        21.7120   -3.6660    4.4050 hc        1 2HK      0.046700
     61 H12        20.4150   -4.3600    3.3480 hc        1 2HK      0.046700
     62 H11        22.2070   -3.4620    1.9180 hc        1 2HK      0.040200
     63 H10        22.1630   -1.8710    2.7770 hc        1 2HK      0.040200
     64 H9         20.9050   -1.6690    0.6680 hc        1 2HK      0.046700
     65 H8         19.9210   -3.1370    1.0610 hc        1 2HK      0.046700
     66 H7         18.5960   -1.1340    1.5370 h1        1 2HK      0.029950
     67 H6         19.9600   -0.3840    2.4810 h1        1 2HK      0.029950
@<TRIPOS>BOND
     1    1    2 1   
     2    1   37 1   
     3    2    3 ar  
     4    2    5 ar  
     5    3    4 ar  
     6    3   38 1   
     7    4    7 ar  
     8    4   39 1   
     9    5    6 ar  
    10    5   40 1   
    11    6    7 ar  
    12    6   41 1   
    13    7    8 1   
    14    8    9 ar  
    15    8   11 ar  
    16    9   10 ar  
    17    9   42 1   
    18   10   13 ar  
    19   10   43 1   
    20   11   12 ar  
    21   11   44 1   
    22   12   13 ar  
    23   12   45 1   
    24   13   14 1   
    25   14   15 1   
    26   14   20 2   
    27   15   16 1   
    28   15   46 1   
    29   16   17 1   
    30   16   47 1   
    31   17   18 2   
    32   17   20 1   
    33   18   19 ar  
    34   18   22 ar  
    35   19   27 ar  
    36   19   48 1   
    37   20   21 1   
    38   21   22 2   
    39   21   49 1   
    40   22   23 ar  
    41   23   24 ar  
    42   23   50 1   
    43   24   25 1   
    44   24   27 ar  
    45   25   26 1   
    46   26   51 1   
    47   26   52 1   
    48   26   53 1   
    49   27   28 1   
    50   28   29 1   
    51   29   30 1   
    52   29   54 1   
    53   29   55 1   
    54   30   31 1   
    55   30   56 1   
    56   30   57 1   
    57   31   32 1   
    58   31   36 1   
    59   32   33 1   
    60   32   58 1   
    61   32   59 1   
    62   33   34 1   
    63   33   60 1   
    64   33   61 1   
    65   34   35 1   
    66   34   62 1   
    67   34   63 1   
    68   35   36 1   
    69   35   64 1   
    70   35   65 1   
    71   36   66 1   
    72   36   67 1   
@<TRIPOS>SUBSTRUCTURE
     1 2HK         1 TEMP              0 ****  ****    0 ROOT
