@<TRIPOS>MOLECULE
2HK
   67    72     1     0     0
SMALL
bcc


@<TRIPOS>ATOM
      1 O3         -0.0340    1.0520   -1.1880 oh        1 2HK     -0.495100
      2 C28         1.2810    0.8020   -0.8730 ca        1 2HK      0.132100
      3 C27         1.7990    0.9770    0.4180 ca        1 2HK     -0.186500
      4 C26         3.1420    0.7040    0.6560 ca        1 2HK     -0.077500
      5 C29         2.1020    0.3520   -1.9210 ca        1 2HK     -0.186500
      6 C30         3.4390    0.0800   -1.6630 ca        1 2HK     -0.077500
      7 C25         3.9750    0.2520   -0.3770 cp        1 2HK     -0.084000
      8 C22         5.3830   -0.0360   -0.1190 cp        1 2HK     -0.005000
      9 C21         6.1380    0.7920    0.7250 ca        1 2HK     -0.131000
     10 C20         7.4790    0.5180    0.9700 ca        1 2HK     -0.096000
     11 C23         6.0020   -1.1480   -0.7090 ca        1 2HK     -0.131000
     12 C24         7.3440   -1.4260   -0.4650 ca        1 2HK     -0.096000
     13 C19         8.0980   -0.5940    0.3760 ca        1 2HK     -0.055000
     14 C18         9.4960   -0.8550    0.6560 cc        1 2HK      0.049700
     15 N3         10.2900   -1.7290   -0.1860 na        1 2HK     -0.205400
     16 N2         11.6480   -1.6490    0.1980 na        1 2HK     -0.145400
     17 C17        11.6610   -0.9540    1.4350 cd        1 2HK     -0.092300
     18 C10        12.4880   -0.5700    2.4640 ca        1 2HK     -0.078000
     19 C9         13.8640   -0.7940    2.7480 ca        1 2HK     -0.164000
     20 C16        10.2750   -0.4000    1.6970 cd        1 2HK     -0.121800
     21 C15        10.3500    0.3260    2.9320 cd        1 2HK     -0.160200
     22 C11        11.6600    0.2380    3.3910 ca        1 2HK      0.005000
     23 C12        12.2710    0.7820    4.5580 ca        1 2HK     -0.207000
     24 C13        13.5950    0.5450    4.7970 ca        1 2HK      0.142100
     25 O2         14.3050    1.0100    5.8830 os        1 2HK     -0.303900
     26 C14        13.5690    1.7940    6.8160 c3        1 2HK      0.108700
     27 C8         14.4050   -0.2540    3.8800 ca        1 2HK      0.110100
     28 O1         15.7160   -0.3840    4.2890 os        1 2HK     -0.313900
     29 C1         16.5620   -1.1290    3.4030 c3        1 2HK      0.124400
     30 C2         17.9390   -1.1050    4.0850 c3        1 2HK      0.165800
     31 N1         18.9130   -1.9180    3.3710 n3        1 2HK     -0.733600
     32 C7         19.9690   -2.4010    4.2520 c3        1 2HK      0.171300
     33 C6         21.0070   -3.2600    3.5330 c3        1 2HK     -0.077900
     34 C5         21.5700   -2.5430    2.3250 c3        1 2HK     -0.078400
     35 C4         20.4510   -2.0870    1.4160 c3        1 2HK     -0.077900
     36 C3         19.4270   -1.2520    2.1820 c3        1 2HK      0.171300
     37 H29        -0.4820    1.3520   -0.3830 ho        1 2HK      0.421000
     38 H28         1.1500    1.3260    1.2330 ha        1 2HK      0.145000
     39 H27         3.5510    0.8350    1.6700 ha        1 2HK      0.138500
     40 H30         1.6760    0.2240   -2.9270 ha        1 2HK      0.145000
     41 H31         4.0890   -0.2670   -2.4820 ha        1 2HK      0.138500
     42 H24         5.6670    1.6720    1.1890 ha        1 2HK      0.140000
     43 H23         8.0660    1.1750    1.6330 ha        1 2HK      0.146000
     44 H25         5.4180   -1.8140   -1.3620 ha        1 2HK      0.140000
     45 H26         7.7990   -2.3160   -0.9260 ha        1 2HK      0.146000
     46 H32        10.2150   -1.4800   -1.1620 hn        1 2HK      0.253700
     47 H22        12.0040   -2.5950    0.2900 hn        1 2HK      0.245700
     48 H16        14.4560   -1.3940    2.0440 ha        1 2HK      0.141000
     49 H21         9.5240    0.8490    3.4060 ha        1 2HK      0.144000
     50 H17        11.6520    1.3820    5.2390 ha        1 2HK      0.141000
     51 H18        13.1730    2.7180    6.3290 h1        1 2HK      0.044700
     52 H20        12.7350    1.1990    7.2610 h1        1 2HK      0.044700
     53 H19        14.3310    2.0510    7.5950 h1        1 2HK      0.044700
     54 H2         16.5870   -0.6290    2.4000 h1        1 2HK      0.045700
     55 H3         16.1750   -2.1750    3.2990 h1        1 2HK      0.045700
     56 H5         17.8090   -1.5110    5.1280 h1        1 2HK      0.049700
     57 H4         18.2670   -0.0290    4.1820 h1        1 2HK      0.049700
     58 H15        19.4820   -3.0230    5.0550 h1        1 2HK      0.030200
     59 H14        20.5050   -1.5450    4.7600 h1        1 2HK      0.030200
     60 H13        21.8280   -3.5010    4.2570 hc        1 2HK      0.046450
     61 H12        20.5390   -4.2270    3.2110 hc        1 2HK      0.046450
     62 H11        22.2620   -3.2240    1.7660 hc        1 2HK      0.040200
     63 H10        22.1690   -1.6550    2.6600 hc        1 2HK      0.040200
     64 H9         20.8610   -1.4630    0.5800 hc        1 2HK      0.046450
     65 H8         19.9470   -2.9790    0.9620 hc        1 2HK      0.046450
     66 H7         18.5490   -1.0450    1.5060 h1        1 2HK      0.030200
     67 H6         19.8990   -0.2570    2.4380 h1        1 2HK      0.030200
@<TRIPOS>BOND
     1    1    2 1   
     2    1   37 1   
     3    2    3 ar  
     4    2    5 ar  
     5    3    4 ar  
     6    3   38 1   
     7    4    7 ar  
     8    4   39 1   
     9    5    6 ar  
    10    5   40 1   
    11    6    7 ar  
    12    6   41 1   
    13    7    8 1   
    14    8    9 ar  
    15    8   11 ar  
    16    9   10 ar  
    17    9   42 1   
    18   10   13 ar  
    19   10   43 1   
    20   11   12 ar  
    21   11   44 1   
    22   12   13 ar  
    23   12   45 1   
    24   13   14 1   
    25   14   15 1   
    26   14   20 2   
    27   15   16 1   
    28   15   46 1   
    29   16   17 1   
    30   16   47 1   
    31   17   18 2   
    32   17   20 1   
    33   18   19 ar  
    34   18   22 ar  
    35   19   27 ar  
    36   19   48 1   
    37   20   21 1   
    38   21   22 2   
    39   21   49 1   
    40   22   23 ar  
    41   23   24 ar  
    42   23   50 1   
    43   24   25 1   
    44   24   27 ar  
    45   25   26 1   
    46   26   51 1   
    47   26   52 1   
    48   26   53 1   
    49   27   28 1   
    50   28   29 1   
    51   29   30 1   
    52   29   54 1   
    53   29   55 1   
    54   30   31 1   
    55   30   56 1   
    56   30   57 1   
    57   31   32 1   
    58   31   36 1   
    59   32   33 1   
    60   32   58 1   
    61   32   59 1   
    62   33   34 1   
    63   33   60 1   
    64   33   61 1   
    65   34   35 1   
    66   34   62 1   
    67   34   63 1   
    68   35   36 1   
    69   35   64 1   
    70   35   65 1   
    71   36   66 1   
    72   36   67 1   
@<TRIPOS>SUBSTRUCTURE
     1 2HK         1 TEMP              0 ****  ****    0 ROOT
