@<TRIPOS>MOLECULE
2HK
   67    72     1     0     0
SMALL
bcc


@<TRIPOS>ATOM
      1 O3        -11.7850    0.0460    0.4030 oh        1 2HK     -0.495100
      2 C28       -10.4160    0.0820    0.2760 ca        1 2HK      0.132100
      3 C27        -9.6100   -1.0540    0.4310 ca        1 2HK     -0.186500
      4 C26        -8.2310   -0.9360    0.2880 ca        1 2HK     -0.077500
      5 C29        -9.8470    1.3320   -0.0210 ca        1 2HK     -0.186500
      6 C30        -8.4690    1.4300   -0.1640 ca        1 2HK     -0.077500
      7 C25        -7.6460    0.3020   -0.0110 cp        1 2HK     -0.084000
      8 C22        -6.1980    0.4190   -0.1610 cp        1 2HK     -0.005000
      9 C21        -5.3330   -0.2810    0.6930 ca        1 2HK     -0.131000
     10 C20        -3.9550   -0.1690    0.5500 ca        1 2HK     -0.096000
     11 C23        -5.6490    1.2310   -1.1650 ca        1 2HK     -0.131000
     12 C24        -4.2710    1.3450   -1.3110 ca        1 2HK     -0.096000
     13 C19        -3.4070    0.6480   -0.4530 ca        1 2HK     -0.055000
     14 C18        -1.9660    0.7390   -0.5780 cc        1 2HK      0.049700
     15 N3         -1.3330    1.8170   -1.3120 na        1 2HK     -0.205400
     16 N2          0.0650    1.7710   -1.1090 na        1 2HK     -0.145400
     17 C17         0.3250    0.5220   -0.4880 cd        1 2HK     -0.092300
     18 C10         1.3450   -0.3030   -0.0770 ca        1 2HK     -0.078000
     19 C9          2.7630   -0.2230   -0.1680 ca        1 2HK     -0.164000
     20 C16        -0.9950   -0.1150   -0.1030 cd        1 2HK     -0.121800
     21 C15        -0.6790   -1.3490    0.5550 cd        1 2HK     -0.160200
     22 C11         0.7070   -1.4670    0.5820 ca        1 2HK      0.005000
     23 C12         1.5400   -2.4900    1.1210 ca        1 2HK     -0.207000
     24 C13         2.8980   -2.3780    1.0160 ca        1 2HK      0.142100
     25 O2          3.8120   -3.2930    1.4910 os        1 2HK     -0.303900
     26 C14         3.2660   -4.4390    2.1350 c3        1 2HK      0.108700
     27 C8          3.5200   -1.2290    0.3630 ca        1 2HK      0.110100
     28 O1          4.8980   -1.2940    0.3520 os        1 2HK     -0.313900
     29 C1          5.5590   -0.1660   -0.2390 c3        1 2HK      0.124400
     30 C2          7.0550   -0.4890   -0.1010 c3        1 2HK      0.165800
     31 N1          7.8880    0.5080   -0.7560 n3        1 2HK     -0.733600
     32 C7          9.1750   -0.0410   -1.1650 c3        1 2HK      0.171300
     33 C6         10.0740    0.9810   -1.8580 c3        1 2HK     -0.077900
     34 C5         10.2400    2.2250   -1.0130 c3        1 2HK     -0.078400
     35 C4          8.8880    2.7900   -0.6350 c3        1 2HK     -0.077900
     36 C3          8.0170    1.7280    0.0320 c3        1 2HK      0.171300
     37 H29       -12.0430   -0.8650    0.6060 ho        1 2HK      0.421000
     38 H28       -10.0620   -2.0290    0.6600 ha        1 2HK      0.145000
     39 H27        -7.5950   -1.8270    0.4040 ha        1 2HK      0.138500
     40 H30       -10.4970    2.2110   -0.1360 ha        1 2HK      0.145000
     41 H31        -8.0160    2.4070   -0.3920 ha        1 2HK      0.138500
     42 H24        -5.7490   -0.9170    1.4890 ha        1 2HK      0.140000
     43 H23        -3.2820   -0.7210    1.2260 ha        1 2HK      0.146000
     44 H25        -6.3170    1.7750   -1.8510 ha        1 2HK      0.140000
     45 H26        -3.8670    1.9750   -2.1190 ha        1 2HK      0.146000
     46 H32        -1.6730    2.7220   -1.0180 hn        1 2HK      0.253700
     47 H22         0.5160    1.8470   -2.0140 hn        1 2HK      0.245700
     48 H16         3.2110    0.6510   -0.6590 ha        1 2HK      0.141000
     49 H21        -1.4030   -2.0520    0.9580 ha        1 2HK      0.144000
     50 H17         1.0610   -3.3480    1.6110 ha        1 2HK      0.141000
     51 H18         2.6790   -4.1420    3.0380 h1        1 2HK      0.044700
     52 H20         2.6280   -5.0230    1.4290 h1        1 2HK      0.044700
     53 H19         4.1720   -5.0270    2.4290 h1        1 2HK      0.044700
     54 H2          5.2580   -0.0720   -1.3140 h1        1 2HK      0.045700
     55 H3          5.2820    0.7660    0.3190 h1        1 2HK      0.045700
     56 H5          7.2930   -0.5940    0.9980 h1        1 2HK      0.049700
     57 H4          7.2320   -1.4940   -0.5800 h1        1 2HK      0.049700
     58 H15         9.7380   -0.4720   -0.2840 h1        1 2HK      0.030450
     59 H14         8.9690   -0.8840   -1.8840 h1        1 2HK      0.030450
     60 H13        11.0700    0.5050   -2.0450 hc        1 2HK      0.046450
     61 H12         9.6340    1.2580   -2.8520 hc        1 2HK      0.046450
     62 H11        10.8170    1.9750   -0.0840 hc        1 2HK      0.040200
     63 H10        10.8290    2.9930   -1.5780 hc        1 2HK      0.040200
     64 H9          9.0110    3.6450    0.0780 hc        1 2HK      0.046450
     65 H8          8.3730    3.1790   -1.5520 hc        1 2HK      0.046450
     66 H7          6.9810    2.1460    0.1760 h1        1 2HK      0.030450
     67 H6          8.4420    1.5130    1.0580 h1        1 2HK      0.030450
@<TRIPOS>BOND
     1    1    2 1   
     2    1   37 1   
     3    2    3 ar  
     4    2    5 ar  
     5    3    4 ar  
     6    3   38 1   
     7    4    7 ar  
     8    4   39 1   
     9    5    6 ar  
    10    5   40 1   
    11    6    7 ar  
    12    6   41 1   
    13    7    8 1   
    14    8    9 ar  
    15    8   11 ar  
    16    9   10 ar  
    17    9   42 1   
    18   10   13 ar  
    19   10   43 1   
    20   11   12 ar  
    21   11   44 1   
    22   12   13 ar  
    23   12   45 1   
    24   13   14 1   
    25   14   15 1   
    26   14   20 2   
    27   15   16 1   
    28   15   46 1   
    29   16   17 1   
    30   16   47 1   
    31   17   18 2   
    32   17   20 1   
    33   18   19 ar  
    34   18   22 ar  
    35   19   27 ar  
    36   19   48 1   
    37   20   21 1   
    38   21   22 2   
    39   21   49 1   
    40   22   23 ar  
    41   23   24 ar  
    42   23   50 1   
    43   24   25 1   
    44   24   27 ar  
    45   25   26 1   
    46   26   51 1   
    47   26   52 1   
    48   26   53 1   
    49   27   28 1   
    50   28   29 1   
    51   29   30 1   
    52   29   54 1   
    53   29   55 1   
    54   30   31 1   
    55   30   56 1   
    56   30   57 1   
    57   31   32 1   
    58   31   36 1   
    59   32   33 1   
    60   32   58 1   
    61   32   59 1   
    62   33   34 1   
    63   33   60 1   
    64   33   61 1   
    65   34   35 1   
    66   34   62 1   
    67   34   63 1   
    68   35   36 1   
    69   35   64 1   
    70   35   65 1   
    71   36   66 1   
    72   36   67 1   
@<TRIPOS>SUBSTRUCTURE
     1 2HK         1 TEMP              0 ****  ****    0 ROOT
