@<TRIPOS>MOLECULE
2HK
   67    72     1     0     0
SMALL
bcc


@<TRIPOS>ATOM
      1 O3         -0.1050    0.8240   -1.0420 oh        1 2HK     -0.495100
      2 C28         1.2340    0.6570   -0.7790 ca        1 2HK      0.132100
      3 C27         1.9410    1.4760    0.1120 ca        1 2HK     -0.186500
      4 C26         3.2960    1.2420    0.3260 ca        1 2HK     -0.077500
      5 C29         1.8790   -0.3930   -1.4560 ca        1 2HK     -0.186500
      6 C30         3.2330   -0.6090   -1.2330 ca        1 2HK     -0.077500
      7 C25         3.9560    0.2010   -0.3420 cp        1 2HK     -0.084000
      8 C22         5.3790   -0.0380   -0.1150 cp        1 2HK     -0.005000
      9 C21         5.9240    0.0750    1.1720 ca        1 2HK     -0.131000
     10 C20         7.2790   -0.1530    1.3880 ca        1 2HK     -0.096000
     11 C23         6.2230   -0.3810   -1.1820 ca        1 2HK     -0.131000
     12 C24         7.5780   -0.6100   -0.9700 ca        1 2HK     -0.096000
     13 C19         8.1220   -0.5010    0.3200 ca        1 2HK     -0.055000
     14 C18         9.5290   -0.7280    0.5780 cc        1 2HK      0.049700
     15 N3         10.3700   -1.4420   -0.3640 na        1 2HK     -0.205400
     16 N2         11.6330   -1.6890    0.2220 na        1 2HK     -0.144400
     17 C17        11.6740   -0.9010    1.4010 cd        1 2HK     -0.092300
     18 C10        12.5050   -0.5020    2.4210 ca        1 2HK     -0.078000
     19 C9         13.8800   -0.7320    2.7080 ca        1 2HK     -0.164000
     20 C16        10.2940   -0.3250    1.6510 cd        1 2HK     -0.121800
     21 C15        10.3770    0.4250    2.8700 cd        1 2HK     -0.160200
     22 C11        11.6820    0.3210    3.3390 ca        1 2HK      0.005000
     23 C12        12.2930    0.8630    4.5060 ca        1 2HK     -0.207000
     24 C13        13.6160    0.6200    4.7490 ca        1 2HK      0.142100
     25 O2         14.3260    1.0850    5.8350 os        1 2HK     -0.303900
     26 C14        13.5920    1.8750    6.7640 c3        1 2HK      0.108700
     27 C8         14.4220   -0.1900    3.8380 ca        1 2HK      0.110100
     28 O1         15.7320   -0.3240    4.2490 os        1 2HK     -0.313900
     29 C1         16.5630   -1.1230    3.3960 c3        1 2HK      0.124400
     30 C2         17.9310   -1.1280    4.0970 c3        1 2HK      0.165800
     31 N1         18.8940   -1.9670    3.3990 n3        1 2HK     -0.734600
     32 C7         19.9130   -2.4930    4.2980 c3        1 2HK      0.172300
     33 C6         20.9370   -3.3810    3.5940 c3        1 2HK     -0.077900
     34 C5         21.5500   -2.6740    2.4050 c3        1 2HK     -0.078400
     35 C4         20.4670   -2.1730    1.4760 c3        1 2HK     -0.077900
     36 C3         19.4560   -1.3090    2.2270 c3        1 2HK      0.172300
     37 H29        -0.4220    1.5730   -0.5160 ho        1 2HK      0.421000
     38 H28         1.4300    2.2970    0.6350 ha        1 2HK      0.145000
     39 H27         3.8550    1.8870    1.0200 ha        1 2HK      0.138500
     40 H30         1.3060   -1.0260   -2.1480 ha        1 2HK      0.145000
     41 H31         3.7440   -1.4330   -1.7560 ha        1 2HK      0.138500
     42 H24         5.2730    0.3380    2.0200 ha        1 2HK      0.140000
     43 H23         7.7000   -0.0650    2.4030 ha        1 2HK      0.146000
     44 H25         5.8100   -0.4600   -2.1990 ha        1 2HK      0.140000
     45 H26         8.2210   -0.8610   -1.8280 ha        1 2HK      0.146000
     46 H32         9.9620   -2.3240   -0.6370 hn        1 2HK      0.253700
     47 H22        12.3470   -1.4150   -0.4430 hn        1 2HK      0.244700
     48 H16        14.4660   -1.3490    2.0140 ha        1 2HK      0.141000
     49 H21         9.5560    0.9670    3.3330 ha        1 2HK      0.144000
     50 H17        11.6770    1.4690    5.1850 ha        1 2HK      0.141000
     51 H18        13.2010    2.8000    6.2740 h1        1 2HK      0.044700
     52 H20        12.7550    1.2850    7.2090 h1        1 2HK      0.044700
     53 H19        14.3540    2.1320    7.5430 h1        1 2HK      0.044700
     54 H2         16.1400   -2.1580    3.3160 h1        1 2HK      0.045700
     55 H3         16.6170   -0.6530    2.3810 h1        1 2HK      0.045700
     56 H5         18.2820   -0.0590    4.1920 h1        1 2HK      0.049200
     57 H4         17.7770   -1.5240    5.1410 h1        1 2HK      0.049200
     58 H15        20.4660   -1.6600    4.8250 h1        1 2HK      0.029950
     59 H14        19.3870   -3.1040    5.0850 h1        1 2HK      0.029950
     60 H13        20.4430   -4.3290    3.2550 hc        1 2HK      0.046700
     61 H12        21.7320   -3.6560    4.3340 hc        1 2HK      0.046700
     62 H11        22.1720   -1.8110    2.7600 hc        1 2HK      0.040200
     63 H10        22.2300   -3.3750    1.8550 hc        1 2HK      0.040200
     64 H9         20.9160   -1.5570    0.6550 hc        1 2HK      0.046700
     65 H8         19.9430   -3.0440    1.0030 hc        1 2HK      0.046700
     66 H7         18.6010   -1.0660    1.5340 h1        1 2HK      0.029950
     67 H6         19.9570   -0.3330    2.5020 h1        1 2HK      0.029950
@<TRIPOS>BOND
     1    1    2 1   
     2    1   37 1   
     3    2    3 ar  
     4    2    5 ar  
     5    3    4 ar  
     6    3   38 1   
     7    4    7 ar  
     8    4   39 1   
     9    5    6 ar  
    10    5   40 1   
    11    6    7 ar  
    12    6   41 1   
    13    7    8 1   
    14    8    9 ar  
    15    8   11 ar  
    16    9   10 ar  
    17    9   42 1   
    18   10   13 ar  
    19   10   43 1   
    20   11   12 ar  
    21   11   44 1   
    22   12   13 ar  
    23   12   45 1   
    24   13   14 1   
    25   14   15 1   
    26   14   20 2   
    27   15   16 1   
    28   15   46 1   
    29   16   17 1   
    30   16   47 1   
    31   17   18 2   
    32   17   20 1   
    33   18   19 ar  
    34   18   22 ar  
    35   19   27 ar  
    36   19   48 1   
    37   20   21 1   
    38   21   22 2   
    39   21   49 1   
    40   22   23 ar  
    41   23   24 ar  
    42   23   50 1   
    43   24   25 1   
    44   24   27 ar  
    45   25   26 1   
    46   26   51 1   
    47   26   52 1   
    48   26   53 1   
    49   27   28 1   
    50   28   29 1   
    51   29   30 1   
    52   29   54 1   
    53   29   55 1   
    54   30   31 1   
    55   30   56 1   
    56   30   57 1   
    57   31   32 1   
    58   31   36 1   
    59   32   33 1   
    60   32   58 1   
    61   32   59 1   
    62   33   34 1   
    63   33   60 1   
    64   33   61 1   
    65   34   35 1   
    66   34   62 1   
    67   34   63 1   
    68   35   36 1   
    69   35   64 1   
    70   35   65 1   
    71   36   66 1   
    72   36   67 1   
@<TRIPOS>SUBSTRUCTURE
     1 2HK         1 TEMP              0 ****  ****    0 ROOT
