@<TRIPOS>MOLECULE
2HK
   67    57     1     0     0
SMALL
bcc


@<TRIPOS>ATOM
      1 O3        -12.2610   -1.1120   -2.1560 oh        1 2HK     -0.248000
      2 C28       -10.8550   -1.2010   -2.1950 c1        1 2HK      0.088000
      3 C27       -10.1930   -1.1990   -3.4170 c1        1 2HK     -0.127500
      4 C26        -8.8070   -1.1900   -3.4540 c1        1 2HK     -0.127500
      5 C29       -10.1220   -1.1920   -1.0040 c1        1 2HK     -0.158000
      6 C30        -8.7400   -1.1830   -1.0410 c1        1 2HK     -0.096250
      7 C25        -8.0770   -1.1810   -2.2570 c1        1 2HK     -0.030500
      8 C22        -6.5230   -1.2050   -2.2920 c1        1 2HK     -0.030500
      9 C21        -5.8020   -0.0000   -2.2980 c1        1 2HK     -0.127500
     10 C20        -4.4290   -0.0200   -2.2780 c1        1 2HK     -0.127500
     11 C23        -5.8410   -2.4260   -2.2660 c1        1 2HK     -0.096250
     12 C24        -4.4550   -2.4440   -2.2450 c1        1 2HK     -0.096250
     13 C19        -3.7440   -1.2450   -2.2510 c1        1 2HK     -0.030500
     14 C18        -2.2060   -1.2620   -2.2600 c1        1 2HK      0.076000
     15 N3         -1.3710   -1.2910   -3.3160 n2        1 2HK     -0.177000
     16 N2         -0.0650   -1.2760   -2.8360 n2        1 2HK     -0.121000
     17 C17        -0.1160   -1.2360   -1.4540 c2        1 2HK     -0.049000
     18 C10         0.6790   -1.1540   -0.2800 c1        1 2HK     -0.106000
     19 C9          2.0940   -1.0780   -0.0910 c1        1 2HK     -0.096250
     20 C16        -1.4200   -1.2270   -1.0830 c2        1 2HK     -0.108000
     21 C15        -1.4700   -1.1410    0.3180 c1        1 2HK     -0.183000
     22 C11        -0.1550   -1.0970    0.7930 c1        1 2HK      0.016000
     23 C12         0.3910   -0.9580    2.1270 c1        1 2HK     -0.215000
     24 C13         1.7750   -0.8830    2.3120 c1        1 2HK      0.086000
     25 O2          2.4190   -1.0410    3.5690 os        1 2HK     -0.204000
     26 C14         1.9700   -0.1490    4.5490 c3        1 2HK     -0.079000
     27 C8          2.6290   -0.9420    1.2140 c1        1 2HK     -0.030500
     28 O1          4.0830   -0.9580    1.3310 o         1 2HK     -0.224000
     29 C1          4.7010    0.2330    0.9240 c3        1 2HK     -0.021000
     30 C2          6.0200    0.3560    1.5820 c3        1 2HK     -0.077000
     31 N1          6.5810    1.6630    1.2950 n3        1 2HK     -0.249000
     32 C7          8.1760    1.5500    1.1800 c3        1 2HK     -0.071000
     33 C6          8.8610    2.8960    0.9750 c3        1 2HK     -0.184500
     34 C5          8.0660    3.9210    1.3390 c3        1 2HK     -0.155000
     35 C4          7.2590    3.9260    2.4000 c3        1 2HK     -0.184500
     36 C3          6.5740    2.5540    2.6000 c3        1 2HK     -0.071000
     37 H29       -12.6250   -1.9240   -2.3740 ho        1 2HK      0.220000
     38 H28       -10.7250   -1.2050   -4.2830 ha        1 2HK      0.141250
     39 H27        -8.3280   -1.1880   -4.3340 ha        1 2HK      0.141250
     40 H30       -10.5900   -1.1920   -0.1370 ha        1 2HK      0.154000
     41 H31        -8.2410   -1.1780   -0.2240 ha        1 2HK      0.141750
     42 H24        -6.2790    0.8570   -2.3160 ha        1 2HK      0.141250
     43 H23        -3.9150    0.8440   -2.2820 ha        1 2HK      0.141250
     44 H25        -6.3140   -3.2180   -2.2610 ha        1 2HK      0.141750
     45 H26        -3.9630   -3.3210   -2.2260 ha        1 2HK      0.141750
     46 H32        -1.6210   -1.2980   -4.1960 DU        1 2HK      0.184667
     47 H22         0.7120   -1.2890   -3.3570 DU        1 2HK      0.184667
     48 H16         2.6840   -1.1200   -0.8510 ha        1 2HK      0.141750
     49 H21        -2.2360   -1.2090    0.8430 DU        1 2HK      0.184667
     50 H17        -0.2130   -0.9950    2.9170 ha        1 2HK      0.139000
     51 H18         2.0250    0.7610    4.2080 h1        1 2HK      0.084000
     52 H20         2.5380   -0.2330    5.3610 h1        1 2HK      0.084000
     53 H19         1.0270   -0.3600    4.7810 h1        1 2HK      0.084000
     54 H2          4.1610    0.9640    1.1650 h1        1 2HK      0.087000
     55 H3          4.8220    0.2230   -0.0350 h1        1 2HK      0.087000
     56 H5          6.6060   -0.3210    1.2470 h1        1 2HK      0.084000
     57 H4          5.9130    0.2460    2.5580 h1        1 2HK      0.084000
     58 H15         8.3910    0.9770    0.4290 h1        1 2HK      0.087750
     59 H14         8.5370    1.1250    2.0290 h1        1 2HK      0.087750
     60 H13         9.6870    2.9230    1.5240 hc        1 2HK      0.082000
     61 H12         9.0960    2.9890    0.0510 hc        1 2HK      0.082000
     62 H11         8.6650    4.7020    1.4510 hc        1 2HK      0.080500
     63 H10         7.4750    4.1190    0.5350 hc        1 2HK      0.080500
     64 H9          6.5910    4.5900    2.2750 hc        1 2HK      0.082000
     65 H8          7.8160    4.1590    3.2510 hc        1 2HK      0.082000
     66 H7          5.6220    2.7060    2.8840 h1        1 2HK      0.087750
     67 H6          7.0570    2.0570    3.3340 h1        1 2HK      0.087750
@<TRIPOS>BOND
     1    1    2 1   
     2    1   37 1   
     3    2    5 1   
     4    3    4 1   
     5    3   38 1   
     6    4   39 1   
     7    5   40 1   
     8    6    7 1   
     9    6   41 1   
    10    8   11 1   
    11    9   10 1   
    12    9   42 1   
    13   10   43 1   
    14   11   44 1   
    15   12   13 1   
    16   12   45 1   
    17   14   15 1   
    18   14   20 1   
    19   15   16 1   
    20   16   17 1   
    21   17   18 1   
    22   17   20 1   
    23   18   22 1   
    24   19   27 1   
    25   19   48 1   
    26   20   21 1   
    27   21   22 1   
    28   23   24 1   
    29   23   50 1   
    30   24   25 1   
    31   25   26 1   
    32   26   51 1   
    33   26   52 1   
    34   26   53 1   
    35   28   29 1   
    36   29   30 1   
    37   29   54 1   
    38   29   55 1   
    39   30   31 1   
    40   30   56 1   
    41   30   57 1   
    42   31   32 1   
    43   31   36 1   
    44   32   33 1   
    45   32   58 1   
    46   32   59 1   
    47   33   34 1   
    48   33   60 1   
    49   33   61 1   
    50   34   35 1   
    51   34   62 1   
    52   34   63 1   
    53   35   36 1   
    54   35   64 1   
    55   35   65 1   
    56   36   66 1   
    57   36   67 1   
@<TRIPOS>SUBSTRUCTURE
     1 2HK         1 TEMP              0 ****  ****    0 ROOT
