@<TRIPOS>MOLECULE
2HL
   59    63     1     0     0
SMALL
bcc


@<TRIPOS>ATOM
      1 C1         -0.3170   -0.2320    0.5310 ca        1 2HL     -0.104000
      2 C2          0.9190   -0.8740    0.4370 ca        1 2HL     -0.135000
      3 C3          1.8170   -0.8240    1.5020 ca        1 2HL     -0.093000
      4 C4          1.4740   -0.1290    2.6670 ca        1 2HL     -0.145600
      5 C5          0.2290    0.5010    2.7680 ca        1 2HL     -0.093000
      6 C6         -0.6600    0.4550    1.6960 ca        1 2HL     -0.135000
      7 C7          2.3770   -0.1100    3.8510 c         1 2HL      0.665700
      8 O8          1.9580   -0.4150    4.9830 o         1 2HL     -0.578100
      9 N9          3.7390    0.1860    3.6630 n         1 2HL     -0.455800
     10 C10         4.1740    1.0550    2.5950 c3        1 2HL      0.080000
     11 C11         4.5190    2.4790    3.0440 c3        1 2HL     -0.107900
     12 C12         5.4990    2.4590    4.2090 c3        1 2HL     -0.084700
     13 C13         4.9680    1.5860    5.3330 c3        1 2HL     -0.107900
     14 C14         4.6150    0.1890    4.8160 c3        1 2HL      0.080000
     15 C15         5.7250    3.9050    4.6770 c3        1 2HL      0.033300
     16 N16         6.7540    4.0770    5.6650 na        1 2HL     -0.146300
     17 C17         6.6110    3.8850    7.0640 cc        1 2HL      0.451700
     18 N18         7.7440    4.0880    7.7490 nd        1 2HL     -0.533100
     19 C19         8.7100    4.4250    6.7770 ca        1 2HL      0.050400
     20 C20         8.0880    4.4080    5.4540 ca        1 2HL     -0.022200
     21 C21         8.8350    4.7230    4.3060 ca        1 2HL     -0.114000
     22 C22        10.1740    5.0290    4.4670 ca        1 2HL     -0.097000
     23 C23        10.7830    5.0390    5.7440 ca        1 2HL     -0.236600
     24 C24        10.0560    4.7580    6.9100 ca        1 2HL      0.034000
     25 C25        12.1820    5.4020    5.9230 c         1 2HL      0.592700
     26 O26        12.7160    6.0750    6.7910 o         1 2HL     -0.423100
     27 N27        13.1610    4.8390    4.8790 n4        1 2HL     -0.543200
     28 C28        13.8360    3.6450    5.3750 ca        1 2HL     -0.188700
     29 C29        13.5720    2.3780    4.8170 ca        1 2HL     -0.061000
     30 C30        14.2600    1.2790    5.3240 ca        1 2HL     -0.222300
     31 C31        15.1850    1.4770    6.3700 ca        1 2HL      0.457200
     32 N32        15.4400    2.6840    6.9120 nb        1 2HL     -0.623000
     33 C33        14.7820    3.7480    6.4310 ca        1 2HL      0.448200
     34 H1         -1.0240   -0.2740   -0.3120 ha        1 2HL      0.142000
     35 H2          1.1830   -1.4280   -0.4760 ha        1 2HL      0.142500
     36 H3          2.7850   -1.3420    1.4310 ha        1 2HL      0.145500
     37 H4         -0.0480    1.0150    3.7020 ha        1 2HL      0.145500
     38 H5         -1.6390    0.9510    1.7740 ha        1 2HL      0.142500
     39 H6          3.3850    1.1120    1.7930 h1        1 2HL      0.067700
     40 H7          5.0980    0.5910    2.1410 h1        1 2HL      0.067700
     41 H8          4.9670    3.0250    2.1740 hc        1 2HL      0.053950
     42 H9          3.5850    3.0210    3.3450 hc        1 2HL      0.053950
     43 H10         6.4740    2.0260    3.8470 hc        1 2HL      0.058700
     44 H11         5.7390    1.4770    6.1390 hc        1 2HL      0.053950
     45 H12         4.0600    2.0610    5.7880 hc        1 2HL      0.053950
     46 H13         5.5660   -0.3340    4.5100 h1        1 2HL      0.067700
     47 H14         4.1380   -0.4010    5.6510 h1        1 2HL      0.067700
     48 H15         5.9940    4.5380    3.7830 h1        1 2HL      0.075700
     49 H16         4.7620    4.3000    5.1150 h1        1 2HL      0.075700
     50 H17         5.6410    3.6050    7.5040 h5        1 2HL      0.097800
     51 H18         8.3660    4.7360    3.3110 ha        1 2HL      0.162000
     52 H19        10.7480    5.3160    3.5720 ha        1 2HL      0.126000
     53 H20        10.5310    4.7990    7.9050 ha        1 2HL      0.181000
     54 H21        12.6550    4.6080    4.0180 hn        1 2HL      0.458300
     55 H22        12.8440    2.2450    4.0010 ha        1 2HL      0.159000
     56 H23        14.0860    0.2710    4.9180 ha        1 2HL      0.180000
     57 H24        15.7540    0.6270    6.8000 h4        1 2HL      0.063100
     58 H25        15.0120    4.7200    6.9150 h4        1 2HL      0.060100
     59 H272       13.8750    5.5500    4.6740 hn        1 2HL      0.458300
@<TRIPOS>BOND
     1    1    2 ar  
     2    1    6 ar  
     3    1   34 1   
     4    2    3 ar  
     5    2   35 1   
     6    3    4 ar  
     7    3   36 1   
     8    4    5 ar  
     9    4    7 1   
    10    5    6 ar  
    11    5   37 1   
    12    6   38 1   
    13    7    8 2   
    14    7    9 1   
    15    9   10 1   
    16    9   14 1   
    17   10   11 1   
    18   10   39 1   
    19   10   40 1   
    20   11   12 1   
    21   11   41 1   
    22   11   42 1   
    23   12   13 1   
    24   12   15 1   
    25   12   43 1   
    26   13   14 1   
    27   13   44 1   
    28   13   45 1   
    29   14   46 1   
    30   14   47 1   
    31   15   16 1   
    32   15   48 1   
    33   15   49 1   
    34   16   17 1   
    35   16   20 1   
    36   17   18 2   
    37   17   50 1   
    38   18   19 1   
    39   19   20 ar  
    40   19   24 ar  
    41   20   21 ar  
    42   21   22 ar  
    43   21   51 1   
    44   22   23 ar  
    45   22   52 1   
    46   23   24 ar  
    47   23   25 1   
    48   24   53 1   
    49   25   26 2   
    50   25   27 1   
    51   27   28 1   
    52   27   54 1   
    53   27   59 1   
    54   28   29 ar  
    55   28   33 ar  
    56   29   30 ar  
    57   29   55 1   
    58   30   31 ar  
    59   30   56 1   
    60   31   32 ar  
    61   31   57 1   
    62   32   33 ar  
    63   33   58 1   
@<TRIPOS>SUBSTRUCTURE
     1 2HL         1 TEMP              0 ****  ****    0 ROOT
