@<TRIPOS>MOLECULE
2HL
   58    62     1     0     0
SMALL
bcc


@<TRIPOS>ATOM
      1 C1         -0.5410    0.4010    0.0110 ca        1 2HL     -0.111000
      2 C2          0.4400   -0.5630    0.2430 ca        1 2HL     -0.136500
      3 C3          1.1470   -0.5670    1.4460 ca        1 2HL     -0.094500
      4 C4          0.8660    0.3970    2.4190 ca        1 2HL     -0.136600
      5 C5         -0.1280    1.3550    2.1920 ca        1 2HL     -0.094500
      6 C6         -0.8240    1.3590    0.9850 ca        1 2HL     -0.136500
      7 C7          1.5560    0.3820    3.7410 c         1 2HL      0.663700
      8 O8          0.8960    0.3380    4.7980 o         1 2HL     -0.587100
      9 N9          2.9540    0.3350    3.7750 n         1 2HL     -0.452800
     10 C10         3.7540    0.8510    2.6880 c3        1 2HL      0.079000
     11 C11         4.4070    2.2070    2.9780 c3        1 2HL     -0.103900
     12 C12         5.1780    2.1660    4.2880 c3        1 2HL     -0.090700
     13 C13         4.2800    1.6840    5.4150 c3        1 2HL     -0.103900
     14 C14         3.6280    0.3460    5.0600 c3        1 2HL      0.079000
     15 C15         5.7340    3.5700    4.5780 c3        1 2HL      0.047300
     16 N16         6.6840    3.6490    5.6440 na        1 2HL     -0.170300
     17 C17         6.3930    3.7040    7.0290 cc        1 2HL      0.424700
     18 N18         7.4800    3.6380    7.8080 nd        1 2HL     -0.552100
     19 C19         8.5690    3.5030    6.9190 ca        1 2HL      0.054400
     20 C20         8.0740    3.4950    5.5500 ca        1 2HL     -0.053200
     21 C21         8.9500    3.3750    4.4650 ca        1 2HL     -0.139000
     22 C22        10.3060    3.2730    4.7390 ca        1 2HL     -0.092000
     23 C23        10.7940    3.2850    6.0610 ca        1 2HL     -0.176600
     24 C24         9.9420    3.3880    7.1590 ca        1 2HL     -0.008000
     25 C25        12.2570    3.1480    6.3310 c         1 2HL      0.684700
     26 O26        12.6870    2.3860    7.2150 o         1 2HL     -0.580100
     27 N27        13.0900    3.9360    5.5420 n         1 2HL     -0.466100
     28 C28        14.4850    4.0070    5.5970 ca        1 2HL     -0.042700
     29 C29        15.2920    3.1810    6.4100 ca        1 2HL     -0.124000
     30 C30        16.6760    3.3390    6.3680 ca        1 2HL     -0.217300
     31 C31        17.2330    4.3110    5.5230 ca        1 2HL      0.359200
     32 N32        16.4880    5.1120    4.7370 nb        1 2HL     -0.642000
     33 C33        15.1570    4.9660    4.7740 ca        1 2HL      0.341200
     34 H1         -1.0960    0.4030   -0.9400 ha        1 2HL      0.136000
     35 H2          0.6550   -1.3250   -0.5200 ha        1 2HL      0.138000
     36 H3          1.9150   -1.3330    1.6330 ha        1 2HL      0.146000
     37 H4         -0.3640    2.0910    2.9760 ha        1 2HL      0.146000
     38 H5         -1.6040    2.1140    0.8050 ha        1 2HL      0.138000
     39 H6          4.5710    0.0970    2.4900 h1        1 2HL      0.065200
     40 H7          3.1320    0.9420    1.7540 h1        1 2HL      0.065200
     41 H8          3.6240    3.0070    3.0220 hc        1 2HL      0.053200
     42 H9          5.0990    2.4510    2.1310 hc        1 2HL      0.053200
     43 H10         6.0340    1.4420    4.1760 hc        1 2HL      0.067700
     44 H11         3.4870    2.4490    5.6230 hc        1 2HL      0.053200
     45 H12         4.8780    1.5460    6.3520 hc        1 2HL      0.053200
     46 H13         4.4290   -0.4480    5.0180 h1        1 2HL      0.065200
     47 H14         2.8950    0.0680    5.8700 h1        1 2HL      0.065200
     48 H15         6.2340    3.9560    3.6430 h1        1 2HL      0.063700
     49 H16         4.8730    4.2550    4.8300 h1        1 2HL      0.063700
     50 H17         5.3610    3.8120    7.3880 h5        1 2HL      0.073800
     51 H18         8.5780    3.3590    3.4310 ha        1 2HL      0.140000
     52 H19        11.0090    3.1570    3.8990 ha        1 2HL      0.138000
     53 H20        10.3390    3.3710    8.1860 ha        1 2HL      0.171000
     54 H21        12.6500    4.5650    4.9070 hn        1 2HL      0.321500
     55 H22        14.8440    2.4210    7.0720 ha        1 2HL      0.179000
     56 H23        17.3230    2.7080    6.9930 ha        1 2HL      0.146000
     57 H24        18.3250    4.4620    5.4660 h4        1 2HL      0.023100
     58 H25        14.5900    5.6460    4.1140 h4        1 2HL      0.016100
@<TRIPOS>BOND
     1    1    2 ar  
     2    1    6 ar  
     3    1   34 1   
     4    2    3 ar  
     5    2   35 1   
     6    3    4 ar  
     7    3   36 1   
     8    4    5 ar  
     9    4    7 1   
    10    5    6 ar  
    11    5   37 1   
    12    6   38 1   
    13    7    8 2   
    14    7    9 1   
    15    9   10 1   
    16    9   14 1   
    17   10   11 1   
    18   10   39 1   
    19   10   40 1   
    20   11   12 1   
    21   11   41 1   
    22   11   42 1   
    23   12   13 1   
    24   12   15 1   
    25   12   43 1   
    26   13   14 1   
    27   13   44 1   
    28   13   45 1   
    29   14   46 1   
    30   14   47 1   
    31   15   16 1   
    32   15   48 1   
    33   15   49 1   
    34   16   17 1   
    35   16   20 1   
    36   17   18 2   
    37   17   50 1   
    38   18   19 1   
    39   19   20 ar  
    40   19   24 ar  
    41   20   21 ar  
    42   21   22 ar  
    43   21   51 1   
    44   22   23 ar  
    45   22   52 1   
    46   23   24 ar  
    47   23   25 1   
    48   24   53 1   
    49   25   26 2   
    50   25   27 1   
    51   27   28 1   
    52   27   54 1   
    53   28   29 ar  
    54   28   33 ar  
    55   29   30 ar  
    56   29   55 1   
    57   30   31 ar  
    58   30   56 1   
    59   31   32 ar  
    60   31   57 1   
    61   32   33 ar  
    62   33   58 1   
@<TRIPOS>SUBSTRUCTURE
     1 2HL         1 TEMP              0 ****  ****    0 ROOT
