@<TRIPOS>MOLECULE
2HM
   27    26     1     0     0
SMALL
bcc


@<TRIPOS>ATOM
      1 C11        -0.7920    1.3600    0.5730 c3        1 2HM     -0.132400
      2 C21        -2.1160    1.0330   -0.0750 c         1 2HM      0.612100
      3 O21        -2.5520    1.6600   -1.0640 o         1 2HM     -0.644100
      4 N3         -2.9460    0.0840    0.5750 n         1 2HM     -0.376400
      5 O3         -3.9000   -0.4640   -0.1850 oh        1 2HM     -0.445100
      6 C           0.1220   -1.0060    0.7470 c         1 2HM      0.908600
      7 O           0.7070   -1.9760    0.1920 o         1 2HM     -0.838800
      8 C2          0.2980    0.4010    0.1200 c3        1 2HM     -0.187700
      9 C3          1.6560    0.9690    0.5040 c3        1 2HM     -0.043400
     10 C4          2.8020    0.2790   -0.2220 c3        1 2HM     -0.089700
     11 C5          2.9680    0.8180   -1.6260 c3        1 2HM     -0.079600
     12 CM4         4.0920    0.4440    0.5540 c3        1 2HM     -0.079600
     13 H12        -0.5280    2.4130    0.2890 hc        1 2HM      0.062200
     14 H13        -0.8790    1.2980    1.6910 hc        1 2HM      0.062200
     15 HN         -2.4210   -0.6680    1.0390 hn        1 2HM      0.368500
     16 HO         -4.4520    0.2780   -0.4990 ho        1 2HM      0.410000
     17 H22         0.2480    0.2820   -0.9960 hc        1 2HM      0.051700
     18 H31         1.6890    2.0690    0.2820 hc        1 2HM      0.023200
     19 H32         1.7900    0.8480    1.6120 hc        1 2HM      0.023200
     20 H4          2.5500   -0.8240   -0.2830 hc        1 2HM      0.114700
     21 H51         2.0200    0.6940   -2.2030 hc        1 2HM      0.019700
     22 H52         3.2310    1.9040   -1.6070 hc        1 2HM      0.019700
     23 H53         3.7810    0.2690   -2.1590 hc        1 2HM      0.019700
     24 HM41        4.0010   -0.0270    1.5620 hc        1 2HM      0.019700
     25 HM42        4.9370   -0.0430    0.0110 hc        1 2HM      0.019700
     26 HM43        4.3370    1.5250    0.6900 hc        1 2HM      0.019700
     27 OXT        -0.6040   -1.1260    1.7810 o         1 2HM     -0.838800
@<TRIPOS>BOND
     1    1    2 1   
     2    1    8 1   
     3    1   13 1   
     4    1   14 1   
     5    2    3 2   
     6    2    4 1   
     7    4    5 1   
     8    4   15 1   
     9    5   16 1   
    10    6    7 1   
    11    6    8 1   
    12    6   27 1   
    13    8    9 1   
    14    8   17 1   
    15    9   10 1   
    16    9   18 1   
    17    9   19 1   
    18   10   11 1   
    19   10   12 1   
    20   10   20 1   
    21   11   21 1   
    22   11   22 1   
    23   11   23 1   
    24   12   24 1   
    25   12   25 1   
    26   12   26 1   
@<TRIPOS>SUBSTRUCTURE
     1 2HM         1 TEMP              0 ****  ****    0 ROOT
