@<TRIPOS>MOLECULE
2HM
   27    25     1     0     0
SMALL
bcc


@<TRIPOS>ATOM
      1 C11         0.8920    0.0300   -1.3590 c3        1 2HM     -0.161000
      2 C21         2.4280   -0.0420   -1.3940 c2        1 2HM      0.256000
      3 O21         3.0580   -0.0810   -0.3560 o         1 2HM     -0.405000
      4 N3          3.1150   -0.0430   -2.6450 n         1 2HM     -0.217000
      5 O3          4.4840   -0.2020   -2.6790 oh        1 2HM     -0.250000
      6 C           0.8660   -1.5890    0.5140 c1        1 2HM      0.328000
      7 O           0.5490   -2.6100   -0.1460 o         1 2HM     -0.573500
      8 C2          0.4030   -0.2300    0.0660 c2        1 2HM     -0.177000
      9 C3         -1.1100   -0.1740    0.1000 c3        1 2HM     -0.122000
     10 C4         -1.5710    0.4380    1.4350 c3        1 2HM     -0.129000
     11 C5         -2.2200    1.7950    1.1750 c3        1 2HM     -0.197500
     12 CM4        -2.5760   -0.4820    2.0920 c3        1 2HM     -0.197500
     13 H12         0.5210   -0.6440   -1.9590 hc        1 2HM      0.101500
     14 H13         0.5980    0.9270   -1.6490 hc        1 2HM      0.101500
     15 HN          2.6410    0.0080   -3.4280 hn        1 2HM      0.282000
     16 HO          4.8010    0.0900   -3.4710 ho        1 2HM      0.209000
     17 H22         0.7660    0.4490    0.6620 ha        1 2HM      0.091000
     18 H31        -1.4320    0.3770   -0.6400 hc        1 2HM      0.062500
     19 H32        -1.4740   -1.0850    0.0140 hc        1 2HM      0.062500
     20 H4         -0.8030    0.5530    2.0230 hc        1 2HM      0.154000
     21 H51        -2.5980    2.1460    2.0190 hc        1 2HM      0.059000
     22 H52        -1.5480    2.4190    0.8360 hc        1 2HM      0.059000
     23 H53        -2.9370    1.6940    0.5120 hc        1 2HM      0.059000
     24 HM41       -3.3050   -0.6670    1.4680 hc        1 2HM      0.059000
     25 HM42       -2.1380   -1.3170    2.3390 hc        1 2HM      0.059000
     26 HM43       -2.9360   -0.0500    2.8980 hc        1 2HM      0.059000
     27 OXT         1.5260   -1.7080    1.5700 o         1 2HM     -0.573500
@<TRIPOS>BOND
     1    1    2 1   
     2    1    8 1   
     3    1   13 1   
     4    1   14 1   
     5    2    3 1   
     6    2    4 1   
     7    4    5 1   
     8    4   15 1   
     9    5   16 1   
    10    6    7 1   
    11    6   27 1   
    12    8    9 1   
    13    8   17 1   
    14    9   10 1   
    15    9   18 1   
    16    9   19 1   
    17   10   11 1   
    18   10   12 1   
    19   10   20 1   
    20   11   21 1   
    21   11   22 1   
    22   11   23 1   
    23   12   24 1   
    24   12   25 1   
    25   12   26 1   
@<TRIPOS>SUBSTRUCTURE
     1 2HM         1 TEMP              0 ****  ****    0 ROOT
