@<TRIPOS>MOLECULE
2HN
   35    36     1     0     0
SMALL
bcc


@<TRIPOS>ATOM
      1 FAK         0.1020   -0.9430   -0.1190 f         1 2HN     -0.105900
      2 CAT         1.3710   -0.4790   -0.0580 ca        1 2HN      0.132900
      3 CAR         2.0360   -0.5100    1.1940 ca        1 2HN      0.060400
      4 FAI         1.4050   -0.9910    2.2880 f         1 2HN     -0.114400
      5 CAP         3.3650   -0.0370    1.2950 ca        1 2HN      0.086900
      6 FAG         4.0060   -0.0600    2.4840 f         1 2HN     -0.114900
      7 CAQ         4.0190    0.4560    0.1430 ca        1 2HN      0.060400
      8 FAH         5.2900    0.9040    0.2300 f         1 2HN     -0.114400
      9 CAS         3.3390    0.4760   -1.1030 ca        1 2HN      0.132900
     10 FAJ         3.9990    0.9370   -2.1860 f         1 2HN     -0.105900
     11 CAU         2.0090    0.0170   -1.2120 ca        1 2HN     -0.088300
     12 CAL         1.3160    0.0110   -2.5300 c3        1 2HN     -0.047100
     13 CAX         0.9810    1.4010   -3.0530 c3        1 2HN     -0.150700
     14 CAY         0.2860    1.3350   -4.4350 c3        1 2HN      0.030800
     15 OAF         0.2860    2.6560   -4.9600 oh        1 2HN     -0.637800
     16 CAN         1.0580    0.3620   -5.3970 c         1 2HN      0.903600
     17 OAC         1.7410    0.9150   -6.3010 o         1 2HN     -0.813800
     18 OAA         0.9410   -0.8780   -5.2150 o         1 2HN     -0.813800
     19 CAO         0.1130    2.1640   -2.0870 c         1 2HN      0.558100
     20 OAB         0.5060    3.1440   -1.4440 o         1 2HN     -0.551100
     21 CAW        -1.3230    1.6880   -1.9670 c3        1 2HN      0.007100
     22 OAE        -2.0590    2.4410   -1.0230 oh        1 2HN     -0.586800
     23 CAV        -1.9740    1.7250   -3.3620 c3        1 2HN      0.120100
     24 OAD        -3.3250    1.3030   -3.3000 oh        1 2HN     -0.593800
     25 CAM        -1.1650    0.8750   -4.3300 c3        1 2HN     -0.103400
     26 HAL1        0.3800   -0.6080   -2.4750 hc        1 2HN      0.104700
     27 HAL2        1.9860   -0.4940   -3.2890 hc        1 2HN      0.104700
     28 HAX         1.9430    1.9740   -3.1950 hc        1 2HN      0.089700
     29 HAF         0.9350    2.6770   -5.6840 ho        1 2HN      0.437000
     30 HAM1       -1.6330    0.9410   -5.3460 hc        1 2HN      0.066200
     31 HAM2       -1.1740   -0.2020   -4.0170 hc        1 2HN      0.066200
     32 HAW        -1.3370    0.6360   -1.5570 h1        1 2HN      0.089700
     33 HAE        -1.8790    3.3730   -1.2010 ho        1 2HN      0.409000
     34 HAV        -2.0330    2.7890   -3.7280 h1        1 2HN      0.090700
     35 HAD        -3.3230    0.3890   -2.9940 ho        1 2HN      0.392000
@<TRIPOS>BOND
     1    1    2 1   
     2    2    3 ar  
     3    2   11 ar  
     4    3    4 1   
     5    3    5 ar  
     6    5    6 1   
     7    5    7 ar  
     8    7    8 1   
     9    7    9 ar  
    10    9   10 1   
    11    9   11 ar  
    12   11   12 1   
    13   12   13 1   
    14   12   26 1   
    15   12   27 1   
    16   13   14 1   
    17   13   19 1   
    18   13   28 1   
    19   14   15 1   
    20   14   16 1   
    21   14   25 1   
    22   15   29 1   
    23   16   17 1   
    24   16   18 1   
    25   19   20 2   
    26   19   21 1   
    27   21   22 1   
    28   21   23 1   
    29   21   32 1   
    30   22   33 1   
    31   23   24 1   
    32   23   25 1   
    33   23   34 1   
    34   24   35 1   
    35   25   30 1   
    36   25   31 1   
@<TRIPOS>SUBSTRUCTURE
     1 2HN         1 TEMP              0 ****  ****    0 ROOT
