@<TRIPOS>MOLECULE
2HN
   35    34     1     0     0
SMALL
bcc


@<TRIPOS>ATOM
      1 FAK        -0.7940   -0.8470    2.9810 f         1 2HN     -0.069500
      2 CAT         0.5750   -0.8420    2.7750 c2        1 2HN      0.098500
      3 CAR         1.4500   -0.9540    3.8750 c1        1 2HN      0.024500
      4 FAI         0.9780   -1.1240    5.0400 f         1 2HN     -0.079500
      5 CAP         2.8300   -1.0860    3.6620 c2        1 2HN      0.051000
      6 FAG         3.6920   -1.0660    4.7360 f         1 2HN     -0.081000
      7 CAQ         3.3380   -1.1070    2.3640 c1        1 2HN      0.024500
      8 FAH         4.7310   -1.2860    2.1510 f         1 2HN     -0.079500
      9 CAS         2.4660   -0.9960    1.2630 c2        1 2HN      0.098500
     10 FAJ         2.9340   -1.0070    0.0760 f         1 2HN     -0.069500
     11 CAU         1.0840   -0.8640    1.4730 c2        1 2HN     -0.080000
     12 CAL         0.1560   -0.8550    0.3110 c3        1 2HN     -0.136000
     13 CAX         0.2730    0.5260   -0.4370 c3        1 2HN     -0.140000
     14 CAY         0.1150    0.3560   -1.9650 c3        1 2HN      0.010000
     15 OAF         0.6200    1.5370   -2.6760 oh        1 2HN     -0.366000
     16 CAN         1.0180   -0.7050   -2.4820 c2        1 2HN      0.322000
     17 OAC         2.3020   -0.4540   -2.6420 o         1 2HN     -0.548000
     18 OAA         0.5340   -1.8120   -2.8750 o         1 2HN     -0.548000
     19 CAO        -0.7500    1.5270    0.0940 c2        1 2HN      0.215000
     20 OAB        -0.4990    2.1770    1.1040 o         1 2HN     -0.311000
     21 CAW        -2.2480    1.2020   -0.2920 c3        1 2HN     -0.016000
     22 OAE        -3.1580    2.2240    0.2100 oh        1 2HN     -0.308000
     23 CAV        -2.3640    1.0120   -1.7580 c3        1 2HN      0.009000
     24 OAD        -3.7450    0.5310   -2.0700 oh        1 2HN     -0.331000
     25 CAM        -1.3770    0.0340   -2.3290 c3        1 2HN     -0.185000
     26 HAL1        0.3930   -1.5750   -0.2960 hc        1 2HN      0.144500
     27 HAL2       -0.8000   -0.9870    0.6380 hc        1 2HN      0.144500
     28 HAX         1.1370    0.7780   -0.2150 hc        1 2HN      0.129000
     29 HAF         0.5960    1.3880   -3.5690 ho        1 2HN      0.237000
     30 HAM1       -1.6030   -0.8950   -1.9850 hc        1 2HN      0.104000
     31 HAM2       -1.4690    0.0350   -3.3390 hc        1 2HN      0.104000
     32 HAW        -2.5810    0.3920    0.1970 h1        1 2HN      0.142000
     33 HAE        -3.5390    1.9400    0.9780 ho        1 2HN      0.203000
     34 HAV        -2.2380    1.8440   -2.1760 h1        1 2HN      0.091000
     35 HAD        -4.0550    0.9620   -2.8240 ho        1 2HN      0.195000
@<TRIPOS>BOND
     1    1    2 1   
     2    2    3 1   
     3    2   11 1   
     4    3    5 1   
     5    5    6 1   
     6    5    7 1   
     7    7    9 1   
     8    9   10 1   
     9    9   11 1   
    10   11   12 1   
    11   12   13 1   
    12   12   26 1   
    13   12   27 1   
    14   13   14 1   
    15   13   19 1   
    16   13   28 1   
    17   14   15 1   
    18   14   16 1   
    19   14   25 1   
    20   15   29 1   
    21   16   17 1   
    22   16   18 1   
    23   19   20 1   
    24   19   21 1   
    25   21   22 1   
    26   21   23 1   
    27   21   32 1   
    28   22   33 1   
    29   23   24 1   
    30   23   25 1   
    31   23   34 1   
    32   24   35 1   
    33   25   30 1   
    34   25   31 1   
@<TRIPOS>SUBSTRUCTURE
     1 2HN         1 TEMP              0 ****  ****    0 ROOT
