@<TRIPOS>MOLECULE
2HN
   35    36     1     0     0
SMALL
bcc


@<TRIPOS>ATOM
      1 FAK         1.0340   -1.7560   -1.7540 f         1 2HN     -0.104400
      2 CAT         1.7470   -0.8680   -1.0250 ca        1 2HN      0.132400
      3 CAR         3.1200   -1.1400   -0.7950 ca        1 2HN      0.059900
      4 FAI         3.6850   -2.2610   -1.2960 f         1 2HN     -0.114900
      5 CAP         3.8990   -0.2340   -0.0400 ca        1 2HN      0.085900
      6 FAG         5.2060   -0.4850    0.1870 f         1 2HN     -0.114900
      7 CAQ         3.3000    0.9400    0.4740 ca        1 2HN      0.059900
      8 FAH         4.0390    1.8140    1.1920 f         1 2HN     -0.114900
      9 CAS         1.9260    1.1980    0.2310 ca        1 2HN      0.132400
     10 FAJ         1.3910    2.3350    0.7230 f         1 2HN     -0.104400
     11 CAU         1.1370    0.2950   -0.5130 ca        1 2HN     -0.087300
     12 CAL        -0.2950    0.5910   -0.7920 c3        1 2HN     -0.053100
     13 CAX        -1.1870    0.5000    0.4390 c3        1 2HN     -0.147700
     14 CAY        -2.6470    0.9040    0.1200 c3        1 2HN      0.027800
     15 OAF        -3.3250    1.0030    1.3670 oh        1 2HN     -0.640800
     16 CAN        -2.6920    2.2800   -0.6350 c         1 2HN      0.904600
     17 OAC        -3.0950    3.2620    0.0450 o         1 2HN     -0.812800
     18 OAA        -2.3390    2.3170   -1.8430 o         1 2HN     -0.812800
     19 CAO        -1.1680   -0.8850    1.0300 c         1 2HN      0.565100
     20 OAB        -0.6410   -1.1650    2.1130 o         1 2HN     -0.558100
     21 CAW        -1.8840   -1.9540    0.2290 c3        1 2HN     -0.003900
     22 OAE        -1.8820   -3.2200    0.8690 oh        1 2HN     -0.611800
     23 CAV        -3.3350   -1.5130   -0.0410 c3        1 2HN      0.131100
     24 OAD        -3.9740   -2.4470   -0.8990 oh        1 2HN     -0.604800
     25 CAM        -3.3640   -0.1520   -0.7190 c3        1 2HN     -0.068400
     26 HAL1       -0.3760    1.6420   -1.2030 hc        1 2HN      0.107700
     27 HAL2       -0.6850   -0.0940   -1.5930 hc        1 2HN      0.107700
     28 HAX        -0.8060    1.2250    1.2160 hc        1 2HN      0.089700
     29 HAF        -3.4890    1.9470    1.5320 ho        1 2HN      0.438000
     30 HAM1       -4.4300    0.1610   -0.8580 hc        1 2HN      0.071200
     31 HAM2       -2.8860   -0.2000   -1.7300 hc        1 2HN      0.071200
     32 HAW        -1.3440   -2.1220   -0.7480 h1        1 2HN      0.098700
     33 HAE        -1.8740   -3.0640    1.8230 ho        1 2HN      0.415000
     34 HAV        -3.8920   -1.4700    0.9380 h1        1 2HN      0.050700
     35 HAD        -3.7980   -3.3210   -0.5260 ho        1 2HN      0.402000
@<TRIPOS>BOND
     1    1    2 1   
     2    2    3 ar  
     3    2   11 ar  
     4    3    4 1   
     5    3    5 ar  
     6    5    6 1   
     7    5    7 ar  
     8    7    8 1   
     9    7    9 ar  
    10    9   10 1   
    11    9   11 ar  
    12   11   12 1   
    13   12   13 1   
    14   12   26 1   
    15   12   27 1   
    16   13   14 1   
    17   13   19 1   
    18   13   28 1   
    19   14   15 1   
    20   14   16 1   
    21   14   25 1   
    22   15   29 1   
    23   16   17 1   
    24   16   18 1   
    25   19   20 2   
    26   19   21 1   
    27   21   22 1   
    28   21   23 1   
    29   21   32 1   
    30   22   33 1   
    31   23   24 1   
    32   23   25 1   
    33   23   34 1   
    34   24   35 1   
    35   25   30 1   
    36   25   31 1   
@<TRIPOS>SUBSTRUCTURE
     1 2HN         1 TEMP              0 ****  ****    0 ROOT
