@<TRIPOS>MOLECULE
2HN
   35    36     1     0     0
SMALL
bcc


@<TRIPOS>ATOM
      1 FAK         0.0900   -0.9240   -0.1110 f         1 2HN     -0.105900
      2 CAT         1.3640   -0.4750   -0.0510 ca        1 2HN      0.132900
      3 CAR         2.0290   -0.5080    1.2020 ca        1 2HN      0.060400
      4 FAI         1.3920   -0.9770    2.2970 f         1 2HN     -0.114400
      5 CAP         3.3630   -0.0510    1.3010 ca        1 2HN      0.086900
      6 FAG         4.0030   -0.0760    2.4900 f         1 2HN     -0.114900
      7 CAQ         4.0230    0.4290    0.1470 ca        1 2HN      0.060400
      8 FAH         5.3000    0.8620    0.2330 f         1 2HN     -0.114400
      9 CAS         3.3440    0.4510   -1.0990 ca        1 2HN      0.132900
     10 FAJ         4.0100    0.9000   -2.1840 f         1 2HN     -0.105900
     11 CAU         2.0090    0.0090   -1.2070 ca        1 2HN     -0.088300
     12 CAL         1.3170    0.0040   -2.5250 c3        1 2HN     -0.047100
     13 CAX         0.9990    1.3960   -3.0550 c3        1 2HN     -0.150700
     14 CAY         0.3040    1.3320   -4.4370 c3        1 2HN      0.030800
     15 OAF         0.3190    2.6510   -4.9680 oh        1 2HN     -0.637800
     16 CAN         1.0650    0.3460   -5.3940 c         1 2HN      0.903600
     17 OAC         1.7560    0.8870   -6.3000 o         1 2HN     -0.813800
     18 OAA         0.9340   -0.8910   -5.2070 o         1 2HN     -0.813800
     19 CAO         0.1390    2.1740   -2.0920 c         1 2HN      0.558100
     20 OAB         0.5430    3.1520   -1.4540 o         1 2HN     -0.551100
     21 CAW        -1.3030    1.7150   -1.9720 c3        1 2HN      0.007100
     22 OAE        -2.0310    2.4800   -1.0320 oh        1 2HN     -0.586800
     23 CAV        -1.9530    1.7540   -3.3680 c3        1 2HN      0.120100
     24 OAD        -3.3080    1.3480   -3.3050 oh        1 2HN     -0.593800
     25 CAM        -1.1520    0.8890   -4.3310 c3        1 2HN     -0.103400
     26 HAL1        1.9800   -0.5120   -3.2820 hc        1 2HN      0.104200
     27 HAL2        0.3730   -0.6030   -2.4680 hc        1 2HN      0.104200
     28 HAX         1.9680    1.9570   -3.1980 hc        1 2HN      0.089700
     29 HAF         0.9690    2.6610   -5.6910 ho        1 2HN      0.437000
     30 HAM1       -1.6190    0.9560   -5.3480 hc        1 2HN      0.066200
     31 HAM2       -1.1740   -0.1860   -4.0130 hc        1 2HN      0.066200
     32 HAW        -1.3290    0.6650   -1.5580 h1        1 2HN      0.089700
     33 HAE        -1.8390    3.4100   -1.2130 ho        1 2HN      0.409000
     34 HAV        -1.9990    2.8170   -3.7390 h1        1 2HN      0.090700
     35 HAD        -3.3170    0.4340   -2.9950 ho        1 2HN      0.392000
@<TRIPOS>BOND
     1    1    2 1   
     2    2    3 ar  
     3    2   11 ar  
     4    3    4 1   
     5    3    5 ar  
     6    5    6 1   
     7    5    7 ar  
     8    7    8 1   
     9    7    9 ar  
    10    9   10 1   
    11    9   11 ar  
    12   11   12 1   
    13   12   13 1   
    14   12   26 1   
    15   12   27 1   
    16   13   14 1   
    17   13   19 1   
    18   13   28 1   
    19   14   15 1   
    20   14   16 1   
    21   14   25 1   
    22   15   29 1   
    23   16   17 1   
    24   16   18 1   
    25   19   20 2   
    26   19   21 1   
    27   21   22 1   
    28   21   23 1   
    29   21   32 1   
    30   22   33 1   
    31   23   24 1   
    32   23   25 1   
    33   23   34 1   
    34   24   35 1   
    35   25   30 1   
    36   25   31 1   
@<TRIPOS>SUBSTRUCTURE
     1 2HN         1 TEMP              0 ****  ****    0 ROOT
