@<TRIPOS>MOLECULE
2HO
   16    13     1     0     0
SMALL
bcc


@<TRIPOS>ATOM
      1 N1         -0.3960    0.0050    2.8480 n3        1 2HO     -0.431000
      2 C4         -0.3940   -0.0130    0.3100 c1        1 2HO     -0.111000
      3 C5          0.9920   -0.0140    0.2860 c2        1 2HO     -0.096000
      4 C6          1.6630   -0.0050   -0.9260 c1        1 2HO     -0.153000
      5 C7          0.9500    0.0050   -2.1140 c1        1 2HO      0.079000
      6 F10        -1.1260    0.0350   -3.2370 f         1 2HO     -0.085000
      7 C9         -0.4360    0.0060   -2.0900 c2        1 2HO      0.053000
      8 F8          1.5980    0.0270   -3.2850 f         1 2HO     -0.085000
      9 C11        -1.1080   -0.0030   -0.8780 c2        1 2HO     -0.093000
     10 C2         -1.1270   -0.0170    1.6320 c1        1 2HO      0.344000
     11 O3         -2.3410   -0.0170    1.6540 o         1 2HO     -0.360000
     12 H1         -0.3560    0.7730    3.3440 hn        1 2HO      0.228500
     13 H2          0.0320   -0.7500    3.1390 hn        1 2HO      0.228500
     14 H3          1.4950   -0.0210    1.1230 ha        1 2HO      0.145000
     15 H4          2.6390   -0.0060   -0.9440 ha        1 2HO      0.159000
     16 H5         -2.0840   -0.0030   -0.8610 ha        1 2HO      0.178000
@<TRIPOS>BOND
     1    1   10 1   
     2    1   12 1   
     3    1   13 1   
     4    2    3 1   
     5    2    9 1   
     6    3    4 1   
     7    3   14 1   
     8    4   15 1   
     9    5    7 1   
    10    6    7 1   
    11    7    9 1   
    12    9   16 1   
    13   10   11 1   
@<TRIPOS>SUBSTRUCTURE
     1 2HO         1 TEMP              0 ****  ****    0 ROOT
