@<TRIPOS>MOLECULE
2HO
   16    16     1     0     0
SMALL
bcc


@<TRIPOS>ATOM
      1 N1         -2.9940    1.2080    0.2800 n         1 2HO     -0.671000
      2 C4         -0.9530   -0.1060   -0.1250 ca        1 2HO     -0.131600
      3 C5         -0.4560   -1.4030    0.0590 ca        1 2HO     -0.068000
      4 C6          0.9120   -1.6270    0.1570 ca        1 2HO     -0.152000
      5 C7          1.8090   -0.5490    0.0610 ca        1 2HO      0.115900
      6 C9          1.3060    0.7650   -0.1410 ca        1 2HO      0.083900
      7 F8          3.1400   -0.7560    0.1560 f         1 2HO     -0.119900
      8 C11        -0.0800    0.9760   -0.2330 ca        1 2HO     -0.120000
      9 C2         -2.4320    0.0650   -0.2310 c         1 2HO      0.670700
     10 O3         -3.1530   -0.8070   -0.7570 o         1 2HO     -0.602100
     11 H1         -2.4520    1.8770    0.7600 hn        1 2HO      0.315500
     12 H2         -3.9770    1.3230    0.2400 hn        1 2HO      0.315500
     13 H3         -1.1640   -2.2480    0.1130 ha        1 2HO      0.168000
     14 H4          1.3070   -2.6430    0.3040 ha        1 2HO      0.161000
     15 H5         -0.4450    1.9990   -0.4090 ha        1 2HO      0.156000
     16 F10         2.1600    1.8090   -0.2450 f         1 2HO     -0.122900
@<TRIPOS>BOND
     1    1    9 1   
     2    1   11 1   
     3    1   12 1   
     4    2    3 ar  
     5    2    8 ar  
     6    2    9 1   
     7    3    4 ar  
     8    3   13 1   
     9    4    5 ar  
    10    4   14 1   
    11    5    6 ar  
    12    5    7 1   
    13    6    8 ar  
    14    6   16 1   
    15    8   15 1   
    16    9   10 2   
@<TRIPOS>SUBSTRUCTURE
     1 2HO         1 TEMP              0 ****  ****    0 ROOT
