@<TRIPOS>MOLECULE
2HO
   17    17     1     0     0
SMALL
bcc


@<TRIPOS>ATOM
      1 N1          0.7510    1.1030   -0.7000 nz        1 2HO     -0.763400
      2 C4          2.5040   -0.7230   -1.0410 c3        1 2HO     -0.056300
      3 C5          3.6740    0.1910   -1.3540 c2        1 2HO     -0.165300
      4 C6          3.4860    0.8520   -2.4780 c1        1 2HO     -0.036800
      5 C7          2.6800    0.7170   -3.5380 ce        1 2HO      0.107400
      6 C9          2.0650   -0.6580   -3.5360 ce        1 2HO      0.203500
      7 F8          2.2940    1.6290   -4.4280 f         1 2HO     -0.087500
      8 C11         1.8730   -1.2310   -2.3100 c2        1 2HO     -0.287200
      9 C2          1.4870   -0.0910   -0.1230 c         1 2HO      0.550100
     10 O3          1.1970   -0.3830    1.0210 o         1 2HO     -0.369100
     11 H1          0.0450    0.7770   -1.3690 hn        1 2HO      0.473800
     12 H2          1.4140    1.7150   -1.1900 hn        1 2HO      0.473800
     13 H3          2.9340   -1.6170   -0.4850 hc        1 2HO      0.169700
     14 H4          4.5960    0.1180   -0.7630 ha        1 2HO      0.211000
     15 H5          1.3030   -2.1700   -2.2160 ha        1 2HO      0.194000
     16 F10         1.5970   -1.1720   -4.6760 f         1 2HO     -0.092500
     17 H13         0.2800    1.6330    0.0450 hn        1 2HO      0.473800
@<TRIPOS>BOND
     1    1    9 1   
     2    1   11 1   
     3    1   12 1   
     4    1   17 1   
     5    2    3 1   
     6    2    8 1   
     7    2    9 1   
     8    2   13 1   
     9    3    4 2   
    10    3   14 1   
    11    4    5 2   
    12    5    6 1   
    13    5    7 1   
    14    6    8 2   
    15    6   16 1   
    16    8   15 1   
    17    9   10 2   
@<TRIPOS>SUBSTRUCTURE
     1 2HO         1 TEMP              0 ****  ****    0 ROOT
