@<TRIPOS>MOLECULE
2HO
   17    17     1     0     0
SMALL
bcc


@<TRIPOS>ATOM
      1 N1          0.8530    1.1860   -0.2570 n4        1 2HO     -0.760400
      2 C4          2.5060   -0.5700   -1.1210 c3        1 2HO     -0.049300
      3 C5          3.3600    0.6290   -1.4680 c2        1 2HO     -0.223300
      4 C6          3.1180    1.0700   -2.6840 c1        1 2HO     -0.036800
      5 C7          2.4940    0.5860   -3.7670 ce        1 2HO      0.139400
      6 C9          2.3210   -0.9030   -3.6270 ce        1 2HO      0.200500
      7 F8          1.9460    1.2400   -4.7870 f         1 2HO     -0.081500
      8 C11         2.1990   -1.3820   -2.3530 c2        1 2HO     -0.248200
      9 C2          1.2230   -0.2810   -0.3780 c         1 2HO      0.547100
     10 O3          0.4440   -1.0560    0.1450 o         1 2HO     -0.375100
     11 H1          0.8250    1.6110   -1.1910 hn        1 2HO      0.472800
     12 H2          1.5650    1.6730    0.2980 hn        1 2HO      0.472800
     13 H3          3.1330   -1.2240   -0.4310 hc        1 2HO      0.163700
     14 H4          4.2060    0.8990   -0.8240 ha        1 2HO      0.198000
     15 H5          1.9030   -2.4290   -2.1720 ha        1 2HO      0.198000
     16 F10         2.1460   -1.6500   -4.7210 f         1 2HO     -0.093500
     17 H13        -0.0630    1.2920    0.1960 hn        1 2HO      0.472800
@<TRIPOS>BOND
     1    1    9 1   
     2    1   11 1   
     3    1   12 1   
     4    1   17 1   
     5    2    3 1   
     6    2    8 1   
     7    2    9 1   
     8    2   13 1   
     9    3    4 2   
    10    3   14 1   
    11    4    5 2   
    12    5    6 1   
    13    5    7 1   
    14    6    8 2   
    15    6   16 1   
    16    8   15 1   
    17    9   10 2   
@<TRIPOS>SUBSTRUCTURE
     1 2HO         1 TEMP              0 ****  ****    0 ROOT
