@<TRIPOS>MOLECULE
2HO
   17    17     1     0     0
SMALL
bcc


@<TRIPOS>ATOM
      1 N1          0.7980    1.1420   -0.6840 n4        1 2HO     -0.763400
      2 C4          2.4700   -0.7540   -1.0530 c3        1 2HO     -0.056300
      3 C5          3.6800    0.1100   -1.3530 c2        1 2HO     -0.165300
      4 C6          3.5220    0.7970   -2.4660 c1        1 2HO     -0.035800
      5 C7          2.7110    0.7160   -3.5270 ce        1 2HO      0.106400
      6 C9          2.0330   -0.6290   -3.5460 ce        1 2HO      0.203500
      7 F8          2.3660    1.6590   -4.4020 f         1 2HO     -0.087500
      8 C11         1.8160   -1.2120   -2.3290 c2        1 2HO     -0.287200
      9 C2          1.4840   -0.0890   -0.1240 c         1 2HO      0.550100
     10 O3          1.1850   -0.3820    1.0180 o         1 2HO     -0.369100
     11 H1          0.0770    0.8540   -1.3550 hn        1 2HO      0.473800
     12 H2          1.4860    1.7300   -1.1700 hn        1 2HO      0.473800
     13 H3          2.8580   -1.6760   -0.5110 hc        1 2HO      0.169700
     14 H4          4.5980   -0.0150   -0.7640 ha        1 2HO      0.211000
     15 H5          1.2030   -2.1250   -2.2500 ha        1 2HO      0.194000
     16 F10         1.5410   -1.1020   -4.6940 f         1 2HO     -0.092500
     17 H13         0.3530    1.6820    0.0680 hn        1 2HO      0.473800
@<TRIPOS>BOND
     1    1    9 1   
     2    1   11 1   
     3    1   12 1   
     4    1   17 1   
     5    2    3 1   
     6    2    8 1   
     7    2    9 1   
     8    2   13 1   
     9    3    4 2   
    10    3   14 1   
    11    4    5 2   
    12    5    6 1   
    13    5    7 1   
    14    6    8 2   
    15    6   16 1   
    16    8   15 1   
    17    9   10 2   
@<TRIPOS>SUBSTRUCTURE
     1 2HO         1 TEMP              0 ****  ****    0 ROOT
