@<TRIPOS>MOLECULE
2HP
    5     3     1     0     0
SMALL
bcc


@<TRIPOS>ATOM
      1 P          -0.0000   -0.0000   -0.0000 p3        1 2HP      2.521000
      2 O1          0.5760   -0.8720   -1.0900 o         1 2HP     -1.380000
      3 O2          1.0760    0.9150    0.5340 os        1 2HP     -1.380000
      4 O3         -0.5210   -0.8710    1.1180 o         1 2HP     -1.380000
      5 O4         -1.1310    0.8270   -0.5620 o         1 2HP     -1.380000
@<TRIPOS>BOND
     1    1    2 1   
     2    1    4 1   
     3    1    5 1   
@<TRIPOS>SUBSTRUCTURE
     1 2HP         1 TEMP              0 ****  ****    0 ROOT
