@<TRIPOS>MOLECULE
2HQ
   16    17     1     0     0
SMALL
bcc


@<TRIPOS>ATOM
      1 OAL        -0.0510    0.0170   -0.0020 o         1 2HQ     -0.440100
      2 CAI         1.1680    0.0110    0.0380 c         1 2HQ      0.530700
      3 CAE         2.0930    0.0090    1.1870 ca        1 2HQ     -0.239600
      4 CAF         1.8520    0.0140    2.5460 ca        1 2HQ     -0.009000
      5 CAA         2.9570    0.0100    3.4160 ca        1 2HQ     -0.039600
      6 CLA         2.6900    0.0160    5.0930 cl        1 2HQ     -0.079400
      7 CAB         4.2650    0.0020    2.9250 ca        1 2HQ     -0.053000
      8 CAC         4.5240   -0.0030    1.5510 ca        1 2HQ     -0.179000
      9 CAD         3.4380    0.0010    0.6750 ca        1 2HQ      0.105600
     10 NAH         3.4290   -0.0030   -0.7270 n         1 2HQ     -0.485100
     11 CAJ         2.1010    0.0030   -1.2030 c         1 2HQ      0.603500
     12 OAK         1.7890    0.0020   -2.3920 o         1 2HQ     -0.536500
     13 H1          0.8210    0.0200    2.9360 ha        1 2HQ      0.168000
     14 H2          5.1140   -0.0000    3.6280 ha        1 2HQ      0.155000
     15 H3          5.5590   -0.0090    1.1820 ha        1 2HQ      0.152000
     16 H4          4.2400   -0.0080   -1.2900 hn        1 2HQ      0.347500
@<TRIPOS>BOND
     1    1    2 2   
     2    2    3 1   
     3    2   11 1   
     4    3    4 ar  
     5    3    9 ar  
     6    4    5 ar  
     7    4   13 1   
     8    5    6 1   
     9    5    7 ar  
    10    7    8 ar  
    11    7   14 1   
    12    8    9 ar  
    13    8   15 1   
    14    9   10 1   
    15   10   11 1   
    16   10   16 1   
    17   11   12 2   
@<TRIPOS>SUBSTRUCTURE
     1 2HQ         1 TEMP              0 ****  ****    0 ROOT
