@<TRIPOS>MOLECULE
2HQ
   16    13     1     0     0
SMALL
bcc


@<TRIPOS>ATOM
      1 OAL        -2.8130   -0.0030   -1.2800 o         1 2HQ     -0.434500
      2 CAI        -1.5990   -0.0030   -1.2800 c1        1 2HQ      0.504500
      3 CAE        -0.7240   -0.0030   -0.0780 c1        1 2HQ     -0.219000
      4 CAF        -1.0110   -0.0030    1.2870 c1        1 2HQ      0.048500
      5 CAA         0.0260   -0.0030    2.2180 c1        1 2HQ     -0.028100
      6 CLA        -0.3210   -0.0080    3.9260 cl        1 2HQ     -0.090900
      7 CAB         1.3590   -0.0030    1.7830 c1        1 2HQ     -0.058500
      8 CAC         1.6480   -0.0030    0.4190 c1        1 2HQ     -0.058500
      9 CAD         0.6110   -0.0030   -0.5130 c1        1 2HQ      0.119200
     10 NAH         0.6120   -0.0030   -2.0120 n         1 2HQ     -0.498700
     11 CAJ        -0.7430   -0.0030   -2.4550 c2        1 2HQ      0.593300
     12 OAK        -1.1160    0.0460   -3.6100 o         1 2HQ     -0.526300
     13 H1         -1.9390   -0.0030    1.5910 ha        1 2HQ      0.110500
     14 H2          2.0850   -0.0030    2.4350 ha        1 2HQ      0.096000
     15 H3          2.5760   -0.0030    0.1170 ha        1 2HQ      0.096000
     16 H4          1.3500   -0.0030   -2.5470 hn        1 2HQ      0.347500
@<TRIPOS>BOND
     1    1    2 2   
     2    2   11 2   
     3    3    9 3   
     4    4    5 3   
     5    4   13 1   
     6    5    6 1   
     7    7    8 3   
     8    7   14 1   
     9    8   15 1   
    10    9   10 1   
    11   10   11 1   
    12   10   16 1   
    13   11   12 1   
@<TRIPOS>SUBSTRUCTURE
     1 2HQ         1 TEMP              0 ****  ****    0 ROOT
