@<TRIPOS>MOLECULE
2HQ
   16    17     1     0     0
SMALL
bcc


@<TRIPOS>ATOM
      1 OAL        -1.9810   -2.2240    0.0000 o         1 2HQ     -0.440100
      2 CAI        -1.7040   -1.0360    0.0000 c         1 2HQ      0.530700
      3 CAE        -0.3960   -0.3530    0.0000 ca        1 2HQ     -0.239600
      4 CAF         0.8900   -0.8550    0.0000 ca        1 2HQ     -0.009000
      5 CAA         1.9580    0.0590    0.0010 ca        1 2HQ     -0.039600
      6 CLA         3.5510   -0.5300    0.0010 cl        1 2HQ     -0.079400
      7 CAB         1.7320    1.4380    0.0010 ca        1 2HQ     -0.053000
      8 CAC         0.4350    1.9600    0.0010 ca        1 2HQ     -0.179000
      9 CAD        -0.6350    1.0660    0.0010 ca        1 2HQ      0.105600
     10 NAH        -2.0120    1.3310    0.0010 n         1 2HQ     -0.485100
     11 CAJ        -2.7390    0.1210    0.0000 c         1 2HQ      0.603500
     12 OAK        -3.9660    0.0480    0.0000 o         1 2HQ     -0.536500
     13 H1          1.0710   -1.9420    0.0000 ha        1 2HQ      0.168000
     14 H2          2.5870    2.1340    0.0010 ha        1 2HQ      0.155000
     15 H3          0.2750    3.0470    0.0010 ha        1 2HQ      0.152000
     16 H4         -2.4060    2.2360    0.0010 hn        1 2HQ      0.347500
@<TRIPOS>BOND
     1    1    2 2   
     2    2    3 1   
     3    2   11 1   
     4    3    4 ar  
     5    3    9 ar  
     6    4    5 ar  
     7    4   13 1   
     8    5    6 1   
     9    5    7 ar  
    10    7    8 ar  
    11    7   14 1   
    12    8    9 ar  
    13    8   15 1   
    14    9   10 1   
    15   10   11 1   
    16   10   16 1   
    17   11   12 2   
@<TRIPOS>SUBSTRUCTURE
     1 2HQ         1 TEMP              0 ****  ****    0 ROOT
