@<TRIPOS>MOLECULE
2HR
   46    46     1     0     0
SMALL
bcc


@<TRIPOS>ATOM
      1 C6          7.6210    3.9890    4.7090 c3        1 2HR     -0.090100
      2 C5          6.8760    2.6890    4.5430 c3        1 2HR     -0.080400
      3 C4          5.6440    2.6350    5.4210 c3        1 2HR     -0.080400
      4 C3          4.8990    1.3280    5.2540 c3        1 2HR     -0.069400
      5 C2          3.6660    1.2790    6.1260 c3        1 2HR     -0.069400
      6 C1          2.9020   -0.0050    5.9920 c3        1 2HR     -0.329600
      7 P           1.5240    0.1160    6.9660 p5        1 2HR      1.343600
      8 O           0.7450   -1.1420    6.9200 o         1 2HR     -0.862000
      9 O1          2.2600    0.1250    8.4740 os        1 2HR     -0.597200
     10 C7          1.4470   -0.2070    9.5500 c3        1 2HR      0.199400
     11 C8          1.2800    0.9460   10.5540 c3        1 2HR     -0.078700
     12 C9          0.2040    1.9130   10.1050 c3        1 2HR     -0.099100
     13 C10         2.5850    1.6980   10.7840 c3        1 2HR     -0.033100
     14 C11         3.5710    0.9260   11.5880 ca        1 2HR     -0.053300
     15 C16         3.7690    1.2030   12.9450 ca        1 2HR     -0.129500
     16 C15         4.7120    0.4870   13.6820 ca        1 2HR     -0.142000
     17 C14         5.4670   -0.5120   13.0700 ca        1 2HR     -0.153000
     18 C13         5.2740   -0.7950   11.7170 ca        1 2HR     -0.142000
     19 C12         4.3340   -0.0820   10.9780 ca        1 2HR     -0.129500
     20 O2          0.8810    1.4440    6.8350 o         1 2HR     -0.862000
     21 H61         8.5250    4.0080    4.0530 hc        1 2HR      0.025700
     22 H62         6.9680    4.8530    4.4360 hc        1 2HR      0.025700
     23 H63         7.9500    4.1210    5.7680 hc        1 2HR      0.025700
     24 H51         7.5540    1.8320    4.7990 hc        1 2HR      0.032700
     25 H52         6.5750    2.5620    3.4700 hc        1 2HR      0.032700
     26 H41         5.9420    2.7610    6.4950 hc        1 2HR      0.039200
     27 H42         4.9630    3.4890    5.1660 hc        1 2HR      0.039200
     28 H31         5.5770    0.4730    5.5130 hc        1 2HR      0.027200
     29 H32         4.6030    1.1990    4.1790 hc        1 2HR      0.027200
     30 H21         3.9490    1.4050    7.2060 hc        1 2HR      0.060200
     31 H22         2.9710    2.1270    5.8730 hc        1 2HR      0.060200
     32 H11         2.6140   -0.1820    4.9290 hc        1 2HR      0.062200
     33 H12A        3.5340   -0.8720    6.3000 hc        1 2HR      0.062200
     34 H71         0.4350   -0.5420    9.1870 h1        1 2HR      0.023200
     35 H72         1.9350   -1.0650   10.1000 h1        1 2HR      0.023200
     36 H8          0.9540    0.4840   11.5290 hc        1 2HR      0.020700
     37 H91        -0.7580    1.3690    9.9470 hc        1 2HR      0.039367
     38 H92         0.0410    2.7020   10.8780 hc        1 2HR      0.039367
     39 H93         0.4890    2.4030    9.1410 hc        1 2HR      0.039367
     40 H101        2.3620    2.6700   11.3020 hc        1 2HR      0.054700
     41 H102        3.0300    1.9370    9.7780 hc        1 2HR      0.054700
     42 H16         3.1750    1.9890   13.4330 ha        1 2HR      0.149000
     43 H15         4.8590    0.7120   14.7480 ha        1 2HR      0.116500
     44 H14         6.2100   -1.0750   13.6500 ha        1 2HR      0.112000
     45 H13         5.8650   -1.5850   11.2320 ha        1 2HR      0.116500
     46 H12         4.1600   -0.3010    9.9080 ha        1 2HR      0.149000
@<TRIPOS>BOND
     1    1    2 1   
     2    1   21 1   
     3    1   22 1   
     4    1   23 1   
     5    2    3 1   
     6    2   24 1   
     7    2   25 1   
     8    3    4 1   
     9    3   26 1   
    10    3   27 1   
    11    4    5 1   
    12    4   28 1   
    13    4   29 1   
    14    5    6 1   
    15    5   30 1   
    16    5   31 1   
    17    6    7 1   
    18    6   32 1   
    19    6   33 1   
    20    7    8 1   
    21    7    9 1   
    22    7   20 1   
    23    9   10 1   
    24   10   11 1   
    25   10   34 1   
    26   10   35 1   
    27   11   12 1   
    28   11   13 1   
    29   11   36 1   
    30   12   37 1   
    31   12   38 1   
    32   12   39 1   
    33   13   14 1   
    34   13   40 1   
    35   13   41 1   
    36   14   15 ar  
    37   14   19 ar  
    38   15   16 ar  
    39   15   42 1   
    40   16   17 ar  
    41   16   43 1   
    42   17   18 ar  
    43   17   44 1   
    44   18   19 ar  
    45   18   45 1   
    46   19   46 1   
@<TRIPOS>SUBSTRUCTURE
     1 2HR         1 TEMP              0 ****  ****    0 ROOT
