@<TRIPOS>MOLECULE
2HR
   46    46     1     0     0
SMALL
bcc


@<TRIPOS>ATOM
      1 C6         -0.2490   -1.3370    1.2160 c3        1 2HR     -0.090100
      2 C5          1.1580   -1.1230    0.7200 c3        1 2HR     -0.080400
      3 C4          2.0780   -0.6630    1.8310 c3        1 2HR     -0.080400
      4 C3          3.4900   -0.4480    1.3300 c3        1 2HR     -0.069400
      5 C2          4.4080    0.0050    2.4420 c3        1 2HR     -0.069400
      6 C1          5.8170    0.2350    1.9830 c3        1 2HR     -0.329600
      7 P           6.7320    0.6660    3.3390 p5        1 2HR      1.343600
      8 O           8.1310    0.9570    2.9490 o         1 2HR     -0.862000
      9 O1          6.0440    2.1600    3.6650 os        1 2HR     -0.597200
     10 C7          6.8000    3.0210    4.4500 c3        1 2HR      0.199400
     11 C8          6.1280    3.3560    5.7930 c3        1 2HR     -0.078700
     12 C9          6.3860    2.2740    6.8200 c3        1 2HR     -0.099100
     13 C10         4.6280    3.5770    5.6420 c3        1 2HR     -0.033100
     14 C11         4.2900    4.8600    4.9670 ca        1 2HR     -0.053300
     15 C16         3.8610    5.9690    5.7040 ca        1 2HR     -0.129500
     16 C15         3.5260    7.1590    5.0580 ca        1 2HR     -0.142000
     17 C14         3.6170    7.2520    3.6710 ca        1 2HR     -0.153000
     18 C13         4.0460    6.1500    2.9290 ca        1 2HR     -0.142000
     19 C12         4.3810    4.9600    3.5710 ca        1 2HR     -0.129500
     20 O2          6.4030   -0.1820    4.5080 o         1 2HR     -0.862000
     21 H61        -0.6670   -0.3890    1.6340 hc        1 2HR      0.025700
     22 H62        -0.9110   -1.6760    0.3820 hc        1 2HR      0.025700
     23 H63        -0.2700   -2.1110    2.0200 hc        1 2HR      0.025700
     24 H51         1.1550   -0.3600   -0.1020 hc        1 2HR      0.032700
     25 H52         1.5510   -2.0780    0.2820 hc        1 2HR      0.032700
     26 H41         1.6870    0.2920    2.2710 hc        1 2HR      0.039200
     27 H42         2.0850   -1.4250    2.6540 hc        1 2HR      0.039200
     28 H31         3.4850    0.3180    0.5100 hc        1 2HR      0.027200
     29 H32         3.8800   -1.4010    0.8860 hc        1 2HR      0.027200
     30 H21         4.0280    0.9620    2.8930 hc        1 2HR      0.060200
     31 H22         4.4290   -0.7570    3.2690 hc        1 2HR      0.060200
     32 H11         6.2320   -0.6860    1.5090 hc        1 2HR      0.062200
     33 H12A        5.8520    1.0360    1.2070 hc        1 2HR      0.062200
     34 H71         7.8220    2.5840    4.6360 h1        1 2HR      0.023200
     35 H72         6.9210    3.9910    3.8820 h1        1 2HR      0.023200
     36 H8          6.5970    4.3120    6.1610 hc        1 2HR      0.020700
     37 H91         5.9570    2.5650    7.8100 hc        1 2HR      0.039367
     38 H92         5.9290    1.3050    6.4980 hc        1 2HR      0.039367
     39 H93         7.4840    2.1160    6.9430 hc        1 2HR      0.039367
     40 H101        4.1500    3.5530    6.6580 hc        1 2HR      0.054700
     41 H102        4.2090    2.7200    5.0430 hc        1 2HR      0.054700
     42 H16         3.7890    5.9020    6.7990 ha        1 2HR      0.149000
     43 H15         3.1910    8.0250    5.6460 ha        1 2HR      0.116500
     44 H14         3.3530    8.1890    3.1620 ha        1 2HR      0.112000
     45 H13         4.1230    6.2210    1.8350 ha        1 2HR      0.116500
     46 H12         4.7340    4.0810    3.0000 ha        1 2HR      0.149000
@<TRIPOS>BOND
     1    1    2 1   
     2    1   21 1   
     3    1   22 1   
     4    1   23 1   
     5    2    3 1   
     6    2   24 1   
     7    2   25 1   
     8    3    4 1   
     9    3   26 1   
    10    3   27 1   
    11    4    5 1   
    12    4   28 1   
    13    4   29 1   
    14    5    6 1   
    15    5   30 1   
    16    5   31 1   
    17    6    7 1   
    18    6   32 1   
    19    6   33 1   
    20    7    8 1   
    21    7    9 1   
    22    7   20 1   
    23    9   10 1   
    24   10   11 1   
    25   10   34 1   
    26   10   35 1   
    27   11   12 1   
    28   11   13 1   
    29   11   36 1   
    30   12   37 1   
    31   12   38 1   
    32   12   39 1   
    33   13   14 1   
    34   13   40 1   
    35   13   41 1   
    36   14   15 ar  
    37   14   19 ar  
    38   15   16 ar  
    39   15   42 1   
    40   16   17 ar  
    41   16   43 1   
    42   17   18 ar  
    43   17   44 1   
    44   18   19 ar  
    45   18   45 1   
    46   19   46 1   
@<TRIPOS>SUBSTRUCTURE
     1 2HR         1 TEMP              0 ****  ****    0 ROOT
