@<TRIPOS>MOLECULE
2HR
   46    44     1     0     0
SMALL
bcc


@<TRIPOS>ATOM
      1 C6         -3.3530   -4.4440   -4.0870 c3        1 2HR     -0.208000
      2 C5         -3.8370   -4.5120   -2.6490 c3        1 2HR     -0.156000
      3 C4         -2.6360   -4.5010   -1.7060 c3        1 2HR     -0.166000
      4 C3         -3.0070   -3.7630   -0.4150 c3        1 2HR     -0.148000
      5 C2         -1.7360   -3.2030    0.2370 c3        1 2HR     -0.133000
      6 C1         -1.9870   -1.7690    0.6920 c3        1 2HR     -0.827000
      7 P          -0.5950   -0.7090    0.1610 p5        1 2HR      1.981000
      8 O          -0.6070   -0.5790   -1.3410 o         1 2HR     -0.862000
      9 O1         -0.7450    0.7340    0.8190 os        1 2HR     -0.751000
     10 C7         -0.1060    1.8360    0.1890 c3        1 2HR      0.057000
     11 C8          0.7350    2.5840    1.2060 c3        1 2HR     -0.139000
     12 C9         -0.1670    3.2500    2.2100 c3        1 2HR     -0.194000
     13 C10         1.5710    3.6400    0.4980 c3        1 2HR     -0.125000
     14 C11         3.0340    3.4810    0.8940 c2        1 2HR     -0.047000
     15 C16         3.3700    3.2450    2.2180 c2        1 2HR     -0.121000
     16 C15         4.7040    3.2230    2.6030 c1        1 2HR     -0.133000
     17 C14         5.7000    3.4370    1.6640 c1        1 2HR     -0.145500
     18 C13         5.3650    3.6740    0.3390 c1        1 2HR     -0.145500
     19 C12         4.0310    3.6960   -0.0470 c1        1 2HR     -0.139000
     20 O2          0.7070   -1.3310    0.6010 o         1 2HR     -0.862000
     21 H61        -2.7870   -3.6540   -4.2030 hc        1 2HR      0.067000
     22 H62        -2.8350   -5.2490   -4.2970 hc        1 2HR      0.067000
     23 H63        -4.1240   -4.3850   -4.6900 hc        1 2HR      0.067000
     24 H51        -4.3490   -5.3370   -2.5160 hc        1 2HR      0.065500
     25 H52        -4.4050   -3.7430   -2.4600 hc        1 2HR      0.065500
     26 H41        -1.8880   -4.0450   -2.1380 hc        1 2HR      0.095500
     27 H42        -2.3790   -5.4210   -1.4950 hc        1 2HR      0.095500
     28 H31        -3.4440   -4.3870    0.2030 hc        1 2HR      0.058000
     29 H32        -3.6180   -3.0280   -0.6220 hc        1 2HR      0.058000
     30 H21        -1.4960   -3.7550    1.0130 hc        1 2HR      0.088000
     31 H22        -1.0040   -3.2160   -0.4110 hc        1 2HR      0.088000
     32 H11        -2.8140   -1.4420    0.2940 hc        1 2HR      0.110000
     33 H12A       -2.0630   -1.7440    1.6690 hc        1 2HR      0.110000
     34 H71         0.4690    1.5100   -0.5320 h1        1 2HR      0.056000
     35 H72        -0.7850    2.4400   -0.1820 h1        1 2HR      0.056000
     36 H8          1.3230    1.9570    1.6640 hc        1 2HR      0.122000
     37 H91         0.3680    3.5770    2.9630 hc        1 2HR      0.064333
     38 H92        -0.6270    4.0030    1.7850 hc        1 2HR      0.064333
     39 H93        -0.8280    2.6050    2.5350 hc        1 2HR      0.064333
     40 H101        1.2580    4.5300    0.7560 hc        1 2HR      0.084500
     41 H102        1.4810    3.5310   -0.4700 hc        1 2HR      0.084500
     42 H16         2.6680    3.0940    2.8810 ha        1 2HR      0.160000
     43 H15         4.9400    3.0560    3.5350 ha        1 2HR      0.124000
     44 H14         6.6380    3.3820    1.9260 ha        1 2HR      0.114500
     45 H13         6.0670    3.8250   -0.3230 ha        1 2HR      0.114500
     46 H12         3.7940    3.9080   -0.9710 ha        1 2HR      0.124000
@<TRIPOS>BOND
     1    1    2 1   
     2    1   21 1   
     3    1   22 1   
     4    1   23 1   
     5    2    3 1   
     6    2   24 1   
     7    2   25 1   
     8    3    4 1   
     9    3   26 1   
    10    3   27 1   
    11    4    5 1   
    12    4   28 1   
    13    4   29 1   
    14    5    6 1   
    15    5   30 1   
    16    5   31 1   
    17    6    7 1   
    18    6   32 1   
    19    6   33 1   
    20    7    8 1   
    21    7    9 1   
    22    7   20 1   
    23    9   10 1   
    24   10   11 1   
    25   10   34 1   
    26   10   35 1   
    27   11   12 1   
    28   11   13 1   
    29   11   36 1   
    30   12   37 1   
    31   12   38 1   
    32   12   39 1   
    33   13   14 1   
    34   13   40 1   
    35   13   41 1   
    36   14   15 1   
    37   14   19 1   
    38   15   16 1   
    39   15   42 1   
    40   16   43 1   
    41   17   18 1   
    42   17   44 1   
    43   18   45 1   
    44   19   46 1   
@<TRIPOS>SUBSTRUCTURE
     1 2HR         1 TEMP              0 ****  ****    0 ROOT
