@<TRIPOS>MOLECULE
2HR
   46    46     1     0     0
SMALL
bcc


@<TRIPOS>ATOM
      1 C6         -0.2480   -1.3580    1.2460 c3        1 2HR     -0.090100
      2 C5          1.1680   -1.1710    0.7660 c3        1 2HR     -0.080400
      3 C4          2.0760   -0.6890    1.8770 c3        1 2HR     -0.080400
      4 C3          3.4970   -0.5000    1.3910 c3        1 2HR     -0.069400
      5 C2          4.4030   -0.0250    2.5030 c3        1 2HR     -0.069400
      6 C1          5.8210    0.1800    2.0590 c3        1 2HR     -0.329600
      7 P           6.7200    0.6390    3.4160 p5        1 2HR      1.343600
      8 O           8.1270    0.9060    3.0390 o         1 2HR     -0.862000
      9 O1          6.0420    2.1490    3.6910 os        1 2HR     -0.597200
     10 C7          6.7950    3.0240    4.4630 c3        1 2HR      0.199400
     11 C8          6.1060    3.4020    5.7860 c3        1 2HR     -0.078700
     12 C9          6.3380    2.3460    6.8460 c3        1 2HR     -0.099100
     13 C10         4.6110    3.6320    5.6060 c3        1 2HR     -0.033100
     14 C11         4.2950    4.8990    4.8910 ca        1 2HR     -0.053300
     15 C16         3.8660    6.0320    5.5900 ca        1 2HR     -0.129500
     16 C15         3.5520    7.2070    4.9070 ca        1 2HR     -0.142000
     17 C14         3.6640    7.2600    3.5190 ca        1 2HR     -0.153000
     18 C13         4.0940    6.1340    2.8150 ca        1 2HR     -0.142000
     19 C12         4.4080    4.9600    3.4940 ca        1 2HR     -0.129500
     20 O2          6.3660   -0.1730    4.6030 o         1 2HR     -0.862000
     21 H61        -0.9010   -1.7140    0.4130 hc        1 2HR      0.025700
     22 H62        -0.2870   -2.1100    2.0710 hc        1 2HR      0.025700
     23 H63        -0.6630   -0.3960    1.6330 hc        1 2HR      0.025700
     24 H51         1.5590   -2.1410    0.3590 hc        1 2HR      0.032700
     25 H52         1.1840   -0.4300   -0.0770 hc        1 2HR      0.032700
     26 H41         1.6880    0.2820    2.2850 hc        1 2HR      0.039200
     27 H42         2.0640   -1.4280    2.7200 hc        1 2HR      0.039200
     28 H31         3.5110    0.2430    0.5510 hc        1 2HR      0.027200
     29 H32         3.8850   -1.4690    0.9790 hc        1 2HR      0.027200
     30 H21         4.0250    0.9470    2.9230 hc        1 2HR      0.060200
     31 H22         4.4050   -0.7640    3.3510 hc        1 2HR      0.060200
     32 H11         6.2340   -0.7580    1.6170 hc        1 2HR      0.062200
     33 H12A        5.8750    0.9580    1.2620 hc        1 2HR      0.062200
     34 H71         7.8090    2.5820    4.6770 h1        1 2HR      0.023200
     35 H72         6.9340    3.9760    3.8710 h1        1 2HR      0.023200
     36 H8          6.5790    4.3630    6.1350 hc        1 2HR      0.020700
     37 H91         5.8970    2.6680    7.8210 hc        1 2HR      0.039367
     38 H92         7.4330    2.1820    6.9900 hc        1 2HR      0.039367
     39 H93         5.8760    1.3730    6.5440 hc        1 2HR      0.039367
     40 H101        4.1920    2.7630    5.0250 hc        1 2HR      0.054700
     41 H102        4.1170    3.6410    6.6150 hc        1 2HR      0.054700
     42 H16         3.7770    5.9960    6.6860 ha        1 2HR      0.149000
     43 H15         3.2160    8.0920    5.4650 ha        1 2HR      0.116500
     44 H14         3.4170    8.1860    2.9810 ha        1 2HR      0.112000
     45 H13         4.1880    6.1740    1.7200 ha        1 2HR      0.116500
     46 H12         4.7610    4.0620    2.9530 ha        1 2HR      0.149000
@<TRIPOS>BOND
     1    1    2 1   
     2    1   21 1   
     3    1   22 1   
     4    1   23 1   
     5    2    3 1   
     6    2   24 1   
     7    2   25 1   
     8    3    4 1   
     9    3   26 1   
    10    3   27 1   
    11    4    5 1   
    12    4   28 1   
    13    4   29 1   
    14    5    6 1   
    15    5   30 1   
    16    5   31 1   
    17    6    7 1   
    18    6   32 1   
    19    6   33 1   
    20    7    8 1   
    21    7    9 1   
    22    7   20 1   
    23    9   10 1   
    24   10   11 1   
    25   10   34 1   
    26   10   35 1   
    27   11   12 1   
    28   11   13 1   
    29   11   36 1   
    30   12   37 1   
    31   12   38 1   
    32   12   39 1   
    33   13   14 1   
    34   13   40 1   
    35   13   41 1   
    36   14   15 ar  
    37   14   19 ar  
    38   15   16 ar  
    39   15   42 1   
    40   16   17 ar  
    41   16   43 1   
    42   17   18 ar  
    43   17   44 1   
    44   18   19 ar  
    45   18   45 1   
    46   19   46 1   
@<TRIPOS>SUBSTRUCTURE
     1 2HR         1 TEMP              0 ****  ****    0 ROOT
