@<TRIPOS>MOLECULE
2HS
   46    44     1     0     0
SMALL
bcc


@<TRIPOS>ATOM
      1 C6          0.8510   -6.7890   -3.4100 c3        1 2HS     -0.208000
      2 C5         -0.3690   -5.9140   -3.2290 c3        1 2HS     -0.159000
      3 C4         -0.4700   -5.4820   -1.7830 c3        1 2HS     -0.159000
      4 C3         -1.2770   -4.2070   -1.6930 c3        1 2HS     -0.147000
      5 C2         -1.0270   -3.5460   -0.3560 c3        1 2HS     -0.149000
      6 C1         -1.1970   -2.0490   -0.4940 c3        1 2HS     -0.816000
      7 P          -0.1710   -1.2070    0.7440 p5        1 2HS      1.986000
      8 O           1.2700   -1.2150    0.2930 o         1 2HS     -0.863500
      9 O1         -0.6630    0.2850    0.9080 os        1 2HS     -0.753000
     10 C7          0.2960    1.3140    0.8770 c3        1 2HS      0.058000
     11 C8         -0.2560    2.5390    1.5730 c3        1 2HS     -0.131000
     12 C9         -1.1900    2.1090    2.6840 c3        1 2HS     -0.214000
     13 C10         0.8840    3.3440    2.1550 c3        1 2HS     -0.127000
     14 C11         0.9270    4.7060    1.4980 c2        1 2HS     -0.043000
     15 C16         2.0350    5.0810    0.7530 c2        1 2HS     -0.137000
     16 C15         2.1070    6.3540    0.2110 c1        1 2HS     -0.136000
     17 C14         1.0710    7.2530    0.4130 c1        1 2HS     -0.142500
     18 C13        -0.0360    6.8790    1.1570 c1        1 2HS     -0.142500
     19 C12        -0.1090    5.6050    1.6990 c1        1 2HS     -0.127000
     20 O2         -0.2880   -1.9250    2.0670 o         1 2HS     -0.863500
     21 H61         1.0280   -6.9090   -4.3660 hc        1 2HS      0.064667
     22 H62         1.6240   -6.3630   -2.9850 hc        1 2HS      0.064667
     23 H63         0.6900   -7.6630   -2.9950 hc        1 2HS      0.064667
     24 H51        -0.2910   -5.1240   -3.8000 hc        1 2HS      0.072500
     25 H52        -1.1710   -6.4170   -3.4760 hc        1 2HS      0.072500
     26 H41         0.4270   -5.3260   -1.4260 hc        1 2HS      0.078500
     27 H42        -0.9100   -6.1840   -1.2630 hc        1 2HS      0.078500
     28 H31        -2.2280   -4.4160   -1.7810 hc        1 2HS      0.068500
     29 H32        -1.0090   -3.6000   -2.4120 hc        1 2HS      0.068500
     30 H21        -1.6660   -3.8870    0.3010 hc        1 2HS      0.095000
     31 H22        -0.1160   -3.7440   -0.0590 hc        1 2HS      0.095000
     32 H11        -2.1360   -1.8140   -0.3540 hc        1 2HS      0.104500
     33 H12A       -0.9210   -1.7710   -1.3900 hc        1 2HS      0.104500
     34 H71         1.1090    1.0170    1.3350 h1        1 2HS      0.058000
     35 H72         0.5080    1.5350   -0.0530 h1        1 2HS      0.058000
     36 H8         -0.7460    3.0850    0.9290 hc        1 2HS      0.097000
     37 H91        -1.5310    2.9020    3.1480 hc        1 2HS      0.078000
     38 H92        -1.9400    1.6050    2.3040 hc        1 2HS      0.078000
     39 H93        -0.7040    1.5420    3.3190 hc        1 2HS      0.078000
     40 H101        0.7490    3.4520    3.1180 hc        1 2HS      0.084500
     41 H102        1.7290    2.8780    1.9950 hc        1 2HS      0.084500
     42 H16         2.7630    4.4470    0.6090 ha        1 2HS      0.128000
     43 H15         2.8870    6.6180   -0.3120 ha        1 2HS      0.117000
     44 H14         1.1220    8.1500    0.0310 ha        1 2HS      0.118000
     45 H13        -0.7660    7.5120    1.2990 ha        1 2HS      0.118000
     46 H12        -0.8910    5.3400    2.2200 ha        1 2HS      0.144000
@<TRIPOS>BOND
     1    1    2 1   
     2    1   21 1   
     3    1   22 1   
     4    1   23 1   
     5    2    3 1   
     6    2   24 1   
     7    2   25 1   
     8    3    4 1   
     9    3   26 1   
    10    3   27 1   
    11    4    5 1   
    12    4   28 1   
    13    4   29 1   
    14    5    6 1   
    15    5   30 1   
    16    5   31 1   
    17    6    7 1   
    18    6   32 1   
    19    6   33 1   
    20    7    8 1   
    21    7    9 1   
    22    7   20 1   
    23    9   10 1   
    24   10   11 1   
    25   10   34 1   
    26   10   35 1   
    27   11   12 1   
    28   11   13 1   
    29   11   36 1   
    30   12   37 1   
    31   12   38 1   
    32   12   39 1   
    33   13   14 1   
    34   13   40 1   
    35   13   41 1   
    36   14   15 1   
    37   14   19 1   
    38   15   16 1   
    39   15   42 1   
    40   16   43 1   
    41   17   18 1   
    42   17   44 1   
    43   18   45 1   
    44   19   46 1   
@<TRIPOS>SUBSTRUCTURE
     1 2HS         1 TEMP              0 ****  ****    0 ROOT
