@<TRIPOS>MOLECULE
2HS
   46    46     1     0     0
SMALL
bcc


@<TRIPOS>ATOM
      1 C6          0.5000   -0.5200   -0.7170 c3        1 2HS     -0.090100
      2 C5          1.9650   -0.5380   -0.3630 c3        1 2HS     -0.080400
      3 C4          2.1920   -0.2190    1.0990 c3        1 2HS     -0.079400
      4 C3          3.6640   -0.2360    1.4500 c3        1 2HS     -0.069400
      5 C2          3.8870    0.0770    2.9120 c3        1 2HS     -0.069400
      6 C1          5.3350    0.0740    3.2990 c3        1 2HS     -0.342600
      7 P           5.4170    0.3750    4.9680 p5        1 2HS      1.353600
      8 O           6.8450    0.3960    5.3800 o         1 2HS     -0.860000
      9 O1          4.9340    1.9740    5.0310 os        1 2HS     -0.584200
     10 C7          5.8740    2.9410    4.7000 c3        1 2HS      0.191400
     11 C8          5.9640    4.0480    5.7610 c3        1 2HS     -0.070700
     12 C9          4.5830    4.4340    6.2420 c3        1 2HS     -0.076100
     13 C10         6.8420    3.6420    6.9390 c3        1 2HS     -0.036100
     14 C11         8.2960    3.7400    6.6320 ca        1 2HS     -0.069300
     15 C16         9.0020    2.6140    6.1840 ca        1 2HS     -0.128500
     16 C15        10.3660    2.7120    5.9160 ca        1 2HS     -0.147500
     17 C14        11.0380    3.9220    6.0900 ca        1 2HS     -0.153000
     18 C13        10.3390    5.0440    6.5330 ca        1 2HS     -0.147500
     19 C12         8.9740    4.9530    6.8020 ca        1 2HS     -0.128500
     20 O2          4.3840   -0.3870    5.6990 o         1 2HS     -0.860000
     21 H61        -0.0590   -1.2740   -0.1110 hc        1 2HS      0.025367
     22 H62         0.0590    0.4860   -0.5150 hc        1 2HS      0.025367
     23 H63         0.3550   -0.7590   -1.7980 hc        1 2HS      0.025367
     24 H51         2.3960   -1.5480   -0.5950 hc        1 2HS      0.032700
     25 H52         2.5140    0.2070   -0.9970 hc        1 2HS      0.032700
     26 H41         1.7630    0.7910    1.3340 hc        1 2HS      0.039200
     27 H42         1.6460   -0.9640    1.7360 hc        1 2HS      0.039200
     28 H31         4.2100    0.5110    0.8170 hc        1 2HS      0.026700
     29 H32         4.0950   -1.2450    1.2140 hc        1 2HS      0.026700
     30 H21         3.3500   -0.6690    3.5610 hc        1 2HS      0.060700
     31 H22         3.4610    1.0870    3.1610 hc        1 2HS      0.060700
     32 H11         5.8990    0.8460    2.7240 hc        1 2HS      0.059700
     33 H12A        5.8050   -0.9080    3.0590 hc        1 2HS      0.059700
     34 H71         5.5530    3.4330    3.7320 h1        1 2HS      0.017700
     35 H72         6.8910    2.4750    4.5610 h1        1 2HS      0.017700
     36 H8          6.4380    4.9430    5.2650 hc        1 2HS      0.022700
     37 H91         4.6360    5.2730    6.9760 hc        1 2HS      0.028700
     38 H92         3.9540    4.7510    5.3760 hc        1 2HS      0.028700
     39 H93         4.0910    3.5530    6.7240 hc        1 2HS      0.028700
     40 H101        6.6090    4.3070    7.8150 hc        1 2HS      0.055200
     41 H102        6.5900    2.5890    7.2390 hc        1 2HS      0.055200
     42 H16         8.4620    1.6530    6.0330 ha        1 2HS      0.170500
     43 H15        10.9130    1.8260    5.5620 ha        1 2HS      0.115500
     44 H14        12.1140    3.9930    5.8780 ha        1 2HS      0.108000
     45 H13        10.8620    6.0000    6.6700 ha        1 2HS      0.115500
     46 H12         8.4240    5.8400    7.1500 ha        1 2HS      0.170500
@<TRIPOS>BOND
     1    1    2 1   
     2    1   21 1   
     3    1   22 1   
     4    1   23 1   
     5    2    3 1   
     6    2   24 1   
     7    2   25 1   
     8    3    4 1   
     9    3   26 1   
    10    3   27 1   
    11    4    5 1   
    12    4   28 1   
    13    4   29 1   
    14    5    6 1   
    15    5   30 1   
    16    5   31 1   
    17    6    7 1   
    18    6   32 1   
    19    6   33 1   
    20    7    8 1   
    21    7    9 1   
    22    7   20 1   
    23    9   10 1   
    24   10   11 1   
    25   10   34 1   
    26   10   35 1   
    27   11   12 1   
    28   11   13 1   
    29   11   36 1   
    30   12   37 1   
    31   12   38 1   
    32   12   39 1   
    33   13   14 1   
    34   13   40 1   
    35   13   41 1   
    36   14   15 ar  
    37   14   19 ar  
    38   15   16 ar  
    39   15   42 1   
    40   16   17 ar  
    41   16   43 1   
    42   17   18 ar  
    43   17   44 1   
    44   18   19 ar  
    45   18   45 1   
    46   19   46 1   
@<TRIPOS>SUBSTRUCTURE
     1 2HS         1 TEMP              0 ****  ****    0 ROOT
