@<TRIPOS>MOLECULE
2HS
   46    46     1     0     0
SMALL
bcc


@<TRIPOS>ATOM
      1 C6          4.0640    6.6690    6.9660 c3        1 2HS     -0.090100
      2 C5          4.3690    5.2240    7.2680 c3        1 2HS     -0.080400
      3 C4          3.5160    4.2880    6.4380 c3        1 2HS     -0.079400
      4 C3          3.8240    2.8380    6.7440 c3        1 2HS     -0.069400
      5 C2          2.9750    1.9060    5.9100 c3        1 2HS     -0.069400
      6 C1          3.2470    0.4580    6.1870 c3        1 2HS     -0.342600
      7 P           2.2740   -0.4540    5.1370 p5        1 2HS      1.353600
      8 O           2.5080   -1.8970    5.4000 o         1 2HS     -0.860000
      9 O1          0.7530   -0.1500    5.7620 os        1 2HS     -0.584200
     10 C7          0.3750   -0.8530    6.8980 c3        1 2HS      0.191400
     11 C8         -1.0020   -1.5140    6.7390 c3        1 2HS     -0.070700
     12 C9         -1.9630   -0.5740    6.0460 c3        1 2HS     -0.076100
     13 C10        -0.9180   -2.8370    5.9850 c3        1 2HS     -0.036100
     14 C11        -0.4200   -3.9520    6.8370 ca        1 2HS     -0.069300
     15 C16         0.9430   -4.2830    6.8410 ca        1 2HS     -0.128500
     16 C15         1.3980   -5.3400    7.6290 ca        1 2HS     -0.147500
     17 C14         0.5070   -6.0730    8.4140 ca        1 2HS     -0.153000
     18 C13        -0.8480   -5.7450    8.4140 ca        1 2HS     -0.147500
     19 C12        -1.3080   -4.6890    7.6290 ca        1 2HS     -0.128500
     20 O2          2.2710    0.1220    3.7760 o         1 2HS     -0.860000
     21 H61         4.7040    7.3420    7.5870 hc        1 2HS      0.025367
     22 H62         4.2560    6.8950    5.8890 hc        1 2HS      0.025367
     23 H63         2.9940    6.8990    7.1850 hc        1 2HS      0.025367
     24 H51         4.1940    5.0220    8.3570 hc        1 2HS      0.032700
     25 H52         5.4530    5.0190    7.0650 hc        1 2HS      0.032700
     26 H41         2.4310    4.4920    6.6380 hc        1 2HS      0.039200
     27 H42         3.6920    4.4860    5.3480 hc        1 2HS      0.039200
     28 H31         3.6450    2.6380    7.8330 hc        1 2HS      0.026700
     29 H32         4.9090    2.6350    6.5450 hc        1 2HS      0.026700
     30 H21         1.8850    2.0990    6.1010 hc        1 2HS      0.060700
     31 H22         3.1480    2.0910    4.8130 hc        1 2HS      0.060700
     32 H11         4.3240    0.2210    6.0210 hc        1 2HS      0.059700
     33 H12A        3.0270    0.2120    7.2530 hc        1 2HS      0.059700
     34 H71         1.1400   -1.6420    7.1490 h1        1 2HS      0.017700
     35 H72         0.2960   -0.1230    7.7590 h1        1 2HS      0.017700
     36 H8         -1.3880   -1.7270    7.7760 hc        1 2HS      0.022700
     37 H91        -2.9810   -1.0270    5.9720 hc        1 2HS      0.028700
     38 H92        -2.0350    0.3830    6.6160 hc        1 2HS      0.028700
     39 H93        -1.5890   -0.3390    5.0200 hc        1 2HS      0.028700
     40 H101       -0.2440   -2.7110    5.0960 hc        1 2HS      0.055200
     41 H102       -1.9400   -3.1030    5.5990 hc        1 2HS      0.055200
     42 H16         1.6540   -3.6890    6.2240 ha        1 2HS      0.170500
     43 H15         2.4680   -5.5930    7.6300 ha        1 2HS      0.115500
     44 H14         0.8720   -6.9050    9.0320 ha        1 2HS      0.108000
     45 H13        -1.5530   -6.3170    9.0320 ha        1 2HS      0.115500
     46 H12        -2.3770   -4.4300    7.6320 ha        1 2HS      0.170500
@<TRIPOS>BOND
     1    1    2 1   
     2    1   21 1   
     3    1   22 1   
     4    1   23 1   
     5    2    3 1   
     6    2   24 1   
     7    2   25 1   
     8    3    4 1   
     9    3   26 1   
    10    3   27 1   
    11    4    5 1   
    12    4   28 1   
    13    4   29 1   
    14    5    6 1   
    15    5   30 1   
    16    5   31 1   
    17    6    7 1   
    18    6   32 1   
    19    6   33 1   
    20    7    8 1   
    21    7    9 1   
    22    7   20 1   
    23    9   10 1   
    24   10   11 1   
    25   10   34 1   
    26   10   35 1   
    27   11   12 1   
    28   11   13 1   
    29   11   36 1   
    30   12   37 1   
    31   12   38 1   
    32   12   39 1   
    33   13   14 1   
    34   13   40 1   
    35   13   41 1   
    36   14   15 ar  
    37   14   19 ar  
    38   15   16 ar  
    39   15   42 1   
    40   16   17 ar  
    41   16   43 1   
    42   17   18 ar  
    43   17   44 1   
    44   18   19 ar  
    45   18   45 1   
    46   19   46 1   
@<TRIPOS>SUBSTRUCTURE
     1 2HS         1 TEMP              0 ****  ****    0 ROOT
