@<TRIPOS>MOLECULE
2HS
   46    46     1     0     0
SMALL
bcc


@<TRIPOS>ATOM
      1 C6          0.4880   -0.5210   -0.7030 c3        1 2HS     -0.090100
      2 C5          1.9550   -0.5330   -0.3570 c3        1 2HS     -0.080400
      3 C4          2.1870   -0.2210    1.1060 c3        1 2HS     -0.079400
      4 C3          3.6610   -0.2330    1.4490 c3        1 2HS     -0.069400
      5 C2          3.8900    0.0740    2.9120 c3        1 2HS     -0.069400
      6 C1          5.3400    0.0760    3.2920 c3        1 2HS     -0.342600
      7 P           5.4300    0.3700    4.9610 p5        1 2HS      1.353600
      8 O           6.8590    0.3960    5.3660 o         1 2HS     -0.860000
      9 O1          4.9390    1.9660    5.0340 os        1 2HS     -0.584200
     10 C7          5.8730    2.9390    4.7020 c3        1 2HS      0.191400
     11 C8          5.9630    4.0420    5.7670 c3        1 2HS     -0.070700
     12 C9          4.5820    4.4200    6.2560 c3        1 2HS     -0.076100
     13 C10         6.8480    3.6350    6.9410 c3        1 2HS     -0.036100
     14 C11         8.3000    3.7410    6.6270 ca        1 2HS     -0.069300
     15 C16         9.0090    2.6200    6.1710 ca        1 2HS     -0.128500
     16 C15        10.3720    2.7260    5.8970 ca        1 2HS     -0.147500
     17 C14        11.0390    3.9380    6.0740 ca        1 2HS     -0.153000
     18 C13        10.3370    5.0550    6.5250 ca        1 2HS     -0.147500
     19 C12         8.9730    4.9570    6.8000 ca        1 2HS     -0.128500
     20 O2          4.4030   -0.4000    5.6940 o         1 2HS     -0.860000
     21 H61        -0.0640   -1.2810   -0.0990 hc        1 2HS      0.025367
     22 H62         0.0430    0.4810   -0.4930 hc        1 2HS      0.025367
     23 H63         0.3390   -0.7550   -1.7850 hc        1 2HS      0.025367
     24 H51         2.4970    0.2180   -0.9900 hc        1 2HS      0.032700
     25 H52         2.3900   -1.5400   -0.5970 hc        1 2HS      0.032700
     26 H41         1.6490   -0.9720    1.7410 hc        1 2HS      0.039200
     27 H42         1.7540    0.7850    1.3480 hc        1 2HS      0.039200
     28 H31         4.2010    0.5210    0.8170 hc        1 2HS      0.026700
     29 H32         4.0960   -1.2380    1.2060 hc        1 2HS      0.026700
     30 H21         3.3600   -0.6770    3.5590 hc        1 2HS      0.061200
     31 H22         3.4610    1.0810    3.1680 hc        1 2HS      0.061200
     32 H11         5.8140   -0.9030    3.0440 hc        1 2HS      0.059700
     33 H12A        5.8980    0.8540    2.7170 hc        1 2HS      0.059700
     34 H71         5.5450    3.4330    3.7390 h1        1 2HS      0.017700
     35 H72         6.8910    2.4780    4.5570 h1        1 2HS      0.017700
     36 H8          6.4300    4.9410    5.2730 hc        1 2HS      0.022700
     37 H91         4.0970    3.5350    6.7370 hc        1 2HS      0.028700
     38 H92         4.6350    5.2560    6.9940 hc        1 2HS      0.028700
     39 H93         3.9480    4.7380    5.3950 hc        1 2HS      0.028700
     40 H101        6.6020    2.5800    7.2360 hc        1 2HS      0.055200
     41 H102        6.6160    4.2960    7.8190 hc        1 2HS      0.055200
     42 H16         8.4730    1.6570    6.0180 ha        1 2HS      0.170500
     43 H15        10.9210    1.8430    5.5370 ha        1 2HS      0.115500
     44 H14        12.1130    4.0140    5.8570 ha        1 2HS      0.108000
     45 H13        10.8560    6.0130    6.6640 ha        1 2HS      0.115500
     46 H12         8.4210    5.8390    7.1540 ha        1 2HS      0.170500
@<TRIPOS>BOND
     1    1    2 1   
     2    1   21 1   
     3    1   22 1   
     4    1   23 1   
     5    2    3 1   
     6    2   24 1   
     7    2   25 1   
     8    3    4 1   
     9    3   26 1   
    10    3   27 1   
    11    4    5 1   
    12    4   28 1   
    13    4   29 1   
    14    5    6 1   
    15    5   30 1   
    16    5   31 1   
    17    6    7 1   
    18    6   32 1   
    19    6   33 1   
    20    7    8 1   
    21    7    9 1   
    22    7   20 1   
    23    9   10 1   
    24   10   11 1   
    25   10   34 1   
    26   10   35 1   
    27   11   12 1   
    28   11   13 1   
    29   11   36 1   
    30   12   37 1   
    31   12   38 1   
    32   12   39 1   
    33   13   14 1   
    34   13   40 1   
    35   13   41 1   
    36   14   15 ar  
    37   14   19 ar  
    38   15   16 ar  
    39   15   42 1   
    40   16   17 ar  
    41   16   43 1   
    42   17   18 ar  
    43   17   44 1   
    44   18   19 ar  
    45   18   45 1   
    46   19   46 1   
@<TRIPOS>SUBSTRUCTURE
     1 2HS         1 TEMP              0 ****  ****    0 ROOT
