@<TRIPOS>MOLECULE
2HT
   16    16     1     0     0
SMALL
bcc


@<TRIPOS>ATOM
      1 C24        -0.0070   -0.0070   -0.0150 ca        1 2HT     -0.079300
      2 C26         2.0940   -0.0160    1.1960 ca        1 2HT     -0.131000
      3 C28         0.0060    0.0090    2.4100 ca        1 2HT     -0.016000
      4 N30        -1.2820    0.0340    4.6510 n1        1 2HT     -0.365800
      5 C29        -0.7030    0.0230    3.6420 cg        1 2HT      0.233800
      6 C27         1.4080   -0.0020    2.4090 ca        1 2HT     -0.096000
      7 C25         1.3930   -0.0190   -0.0090 ca        1 2HT     -0.109000
      8 C31        -0.7000    0.0060    1.1990 ca        1 2HT     -0.093000
      9 C23        -0.7490    0.0060   -1.2970 c3        1 2HT     -0.056800
     10 H26         3.1940   -0.0260    1.1910 ha        1 2HT      0.139000
     11 H27         1.9610    0.0000    3.3600 ha        1 2HT      0.145000
     12 H25         1.9420   -0.0320   -0.9630 ha        1 2HT      0.137000
     13 H31        -1.8000    0.0140    1.2050 ha        1 2HT      0.145000
     14 H23        -0.1880   -0.5490   -2.0890 hc        1 2HT      0.048700
     15 H23A       -0.8920    1.0610   -1.6440 hc        1 2HT      0.048700
     16 H23B       -1.7570   -0.4640   -1.1830 hc        1 2HT      0.048700
@<TRIPOS>BOND
     1    1    7 ar  
     2    1    8 ar  
     3    1    9 1   
     4    2    6 ar  
     5    2    7 ar  
     6    2   10 1   
     7    3    5 1   
     8    3    6 ar  
     9    3    8 ar  
    10    4    5 3   
    11    6   11 1   
    12    7   12 1   
    13    8   13 1   
    14    9   14 1   
    15    9   15 1   
    16    9   16 1   
@<TRIPOS>SUBSTRUCTURE
     1 2HT         1 TEMP              0 ****  ****    0 ROOT
