@<TRIPOS>MOLECULE
2HT
   16    13     1     0     0
SMALL
bcc


@<TRIPOS>ATOM
      1 C24        -0.2470   -0.0100   -0.8980 c1        1 2HT     -0.072000
      2 C26         1.8320   -0.0100    0.3030 c1        1 2HT     -0.120000
      3 C28        -0.2470   -0.0100    1.5030 c1        1 2HT     -0.012000
      4 N30        -1.5850   -0.0380    3.7940 n1        1 2HT     -0.040000
      5 C29        -1.0040   -0.0170    2.8130 c1        1 2HT     -0.096000
      6 C27         1.1390   -0.0100    1.5030 c1        1 2HT     -0.096000
      7 C25         1.1390   -0.0100   -0.8980 c1        1 2HT     -0.120000
      8 C31        -0.9400   -0.0100    0.3030 c2        1 2HT     -0.093000
      9 C23        -1.0040    0.0040   -2.2080 c3        1 2HT     -0.182000
     10 H26         2.7400    0.3360    0.3930 ha        1 2HT      0.138000
     11 H27         1.5540    0.0970    2.3800 ha        1 2HT      0.145000
     12 H25         1.4710   -0.0250   -1.8160 ha        1 2HT      0.138000
     13 H31        -1.8920   -0.2100    0.3800 ha        1 2HT      0.145000
     14 H23        -1.8940   -0.3920   -2.2620 hc        1 2HT      0.088000
     15 H23A       -0.3660   -0.5450   -2.7030 hc        1 2HT      0.088000
     16 H23B       -0.6960    0.8500   -2.5860 hc        1 2HT      0.088000
@<TRIPOS>BOND
     1    1    8 1   
     2    1    9 1   
     3    2    7 1   
     4    2   10 1   
     5    3    6 1   
     6    3    8 1   
     7    4    5 1   
     8    6   11 1   
     9    7   12 1   
    10    8   13 1   
    11    9   14 1   
    12    9   15 1   
    13    9   16 1   
@<TRIPOS>SUBSTRUCTURE
     1 2HT         1 TEMP              0 ****  ****    0 ROOT
