@<TRIPOS>MOLECULE
2HT
   16    16     1     0     0
SMALL
bcc


@<TRIPOS>ATOM
      1 C24         1.4730    0.4930   -0.0080 ca        1 2HT     -0.079300
      2 C26         0.7550   -1.8230    0.0040 ca        1 2HT     -0.131000
      3 C28        -0.8900   -0.0550    0.0000 ca        1 2HT     -0.016000
      4 N30        -3.3610    0.7060    0.0020 n1        1 2HT     -0.365800
      5 C29        -2.2490    0.3630    0.0010 cg        1 2HT      0.233800
      6 C27        -0.5790   -1.4230    0.0060 ca        1 2HT     -0.096000
      7 C25         1.7760   -0.8740   -0.0040 ca        1 2HT     -0.109000
      8 C31         0.1340    0.9000   -0.0070 ca        1 2HT     -0.093000
      9 C23         2.5580    1.5010   -0.0000 c3        1 2HT     -0.056800
     10 H26         1.0030   -2.8950    0.0070 ha        1 2HT      0.139000
     11 H27        -1.3850   -2.1720    0.0110 ha        1 2HT      0.145000
     12 H25         2.8270   -1.1980   -0.0070 ha        1 2HT      0.137000
     13 H31        -0.1140    1.9730   -0.0130 ha        1 2HT      0.145000
     14 H23         2.8440    1.7450    1.0540 hc        1 2HT      0.048700
     15 H23A        3.4650    1.1160   -0.5280 hc        1 2HT      0.048700
     16 H23B        2.2320    2.4460   -0.5010 hc        1 2HT      0.048700
@<TRIPOS>BOND
     1    1    7 ar  
     2    1    8 ar  
     3    1    9 1   
     4    2    6 ar  
     5    2    7 ar  
     6    2   10 1   
     7    3    5 1   
     8    3    6 ar  
     9    3    8 ar  
    10    4    5 3   
    11    6   11 1   
    12    7   12 1   
    13    8   13 1   
    14    9   14 1   
    15    9   15 1   
    16    9   16 1   
@<TRIPOS>SUBSTRUCTURE
     1 2HT         1 TEMP              0 ****  ****    0 ROOT
