@<TRIPOS>MOLECULE
2HT
   16    16     1     0     0
SMALL
bcc


@<TRIPOS>ATOM
      1 C24        -0.0060   -0.0070   -0.0160 ca        1 2HT     -0.079300
      2 C26         2.0940   -0.0180    1.1960 ca        1 2HT     -0.131000
      3 C28         0.0060    0.0110    2.4100 ca        1 2HT     -0.016000
      4 N30        -1.2830    0.0390    4.6500 n1        1 2HT     -0.365800
      5 C29        -0.7030    0.0270    3.6420 cg        1 2HT      0.233800
      6 C27         1.4080   -0.0020    2.4090 ca        1 2HT     -0.096000
      7 C25         1.3940   -0.0210   -0.0090 ca        1 2HT     -0.109000
      8 C31        -0.6990    0.0080    1.1990 ca        1 2HT     -0.093000
      9 C23        -0.7490    0.0050   -1.2970 c3        1 2HT     -0.056800
     10 H26         3.1940   -0.0290    1.1920 ha        1 2HT      0.139000
     11 H27         1.9600    0.0000    3.3610 ha        1 2HT      0.145000
     12 H25         1.9430   -0.0360   -0.9630 ha        1 2HT      0.137000
     13 H31        -1.8000    0.0170    1.2040 ha        1 2HT      0.145000
     14 H23        -0.1790   -0.5330   -2.0940 hc        1 2HT      0.048700
     15 H23A       -0.9090    1.0610   -1.6340 hc        1 2HT      0.048700
     16 H23B       -1.7490   -0.4820   -1.1870 hc        1 2HT      0.048700
@<TRIPOS>BOND
     1    1    7 ar  
     2    1    8 ar  
     3    1    9 1   
     4    2    6 ar  
     5    2    7 ar  
     6    2   10 1   
     7    3    5 1   
     8    3    6 ar  
     9    3    8 ar  
    10    4    5 3   
    11    6   11 1   
    12    7   12 1   
    13    8   13 1   
    14    9   14 1   
    15    9   15 1   
    16    9   16 1   
@<TRIPOS>SUBSTRUCTURE
     1 2HT         1 TEMP              0 ****  ****    0 ROOT
