@<TRIPOS>MOLECULE
2HT
   16    16     1     0     0
SMALL
bcc


@<TRIPOS>ATOM
      1 C24         0.0420    0.0150   -0.0300 ca        1 2HT     -0.079300
      2 C26         2.1480   -0.0020    1.1730 ca        1 2HT     -0.131000
      3 C28         0.0650   -0.0580    2.3940 ca        1 2HT     -0.016000
      4 N30        -1.2140   -0.1400    4.6390 n1        1 2HT     -0.365800
      5 C29        -0.6380   -0.1030    3.6290 cg        1 2HT      0.233800
      6 C27         1.4670   -0.0440    2.3880 ca        1 2HT     -0.096000
      7 C25         1.4420    0.0280   -0.0290 ca        1 2HT     -0.109000
      8 C31        -0.6450   -0.0290    1.1870 ca        1 2HT     -0.093000
      9 C23        -0.7070    0.0620   -1.3070 c3        1 2HT     -0.056800
     10 H26         3.2480    0.0090    1.1630 ha        1 2HT      0.139000
     11 H27         2.0240   -0.0680    3.3360 ha        1 2HT      0.145000
     12 H25         1.9870    0.0600   -0.9850 ha        1 2HT      0.137000
     13 H31        -1.7460   -0.0410    1.1960 ha        1 2HT      0.145000
     14 H23        -0.9120    1.1260   -1.5890 hc        1 2HT      0.048700
     15 H23A       -0.1210   -0.4120   -2.1320 hc        1 2HT      0.048700
     16 H23B       -1.6860   -0.4700   -1.2170 hc        1 2HT      0.048700
@<TRIPOS>BOND
     1    1    7 ar  
     2    1    8 ar  
     3    1    9 1   
     4    2    6 ar  
     5    2    7 ar  
     6    2   10 1   
     7    3    5 1   
     8    3    6 ar  
     9    3    8 ar  
    10    4    5 3   
    11    6   11 1   
    12    7   12 1   
    13    8   13 1   
    14    9   14 1   
    15    9   15 1   
    16    9   16 1   
@<TRIPOS>SUBSTRUCTURE
     1 2HT         1 TEMP              0 ****  ****    0 ROOT
