@<TRIPOS>MOLECULE
2HU
   18    19     1     0     0
SMALL
bcc


@<TRIPOS>ATOM
      1 O1          0.0070    0.0090   -0.0350 o         1 2HU     -0.217500
      2 N2          1.2090    0.0130   -0.0010 no        1 2HU      0.317200
      3 O3          1.8140    0.0250    1.0390 o         1 2HU     -0.217500
      4 C4          1.9680    0.0020   -1.2750 ca        1 2HU     -0.211200
      5 C5          1.2480   -0.0130   -2.4970 ca        1 2HU     -0.059000
      6 C6          1.9120   -0.0230   -3.7080 ca        1 2HU     -0.154000
      7 C7          3.3180   -0.0180   -3.6960 ca        1 2HU     -0.013200
      8 N8          4.2420   -0.0260   -4.7350 na        1 2HU     -0.186400
      9 C9          5.5300   -0.0160   -4.1840 cc        1 2HU     -0.104100
     10 C10         5.4560   -0.0020   -2.7960 cd        1 2HU     -0.167200
     11 C11         4.0530   -0.0030   -2.4450 ca        1 2HU     -0.116800
     12 C12         3.3670    0.0070   -1.2360 ca        1 2HU     -0.005000
     13 H5          0.1440   -0.0160   -2.4730 ha        1 2HU      0.169000
     14 H6          1.3530   -0.0350   -4.6540 ha        1 2HU      0.147000
     15 HN8         4.0240   -0.0370   -5.6960 hn        1 2HU      0.305700
     16 H9          6.4070   -0.0200   -4.8350 h4        1 2HU      0.173000
     17 H10         6.2860    0.0080   -2.0950 ha        1 2HU      0.167000
     18 H12         3.9110    0.0190   -0.2770 ha        1 2HU      0.173000
@<TRIPOS>BOND
     1    1    2 1   
     2    2    3 1   
     3    2    4 1   
     4    4    5 ar  
     5    4   12 ar  
     6    5    6 ar  
     7    5   13 1   
     8    6    7 ar  
     9    6   14 1   
    10    7    8 1   
    11    7   11 ar  
    12    8    9 1   
    13    8   15 1   
    14    9   10 2   
    15    9   16 1   
    16   10   11 1   
    17   10   17 1   
    18   11   12 ar  
    19   12   18 1   
@<TRIPOS>SUBSTRUCTURE
     1 2HU         1 TEMP              0 ****  ****    0 ROOT
