@<TRIPOS>MOLECULE
2HU
   18    12     1     0     0
SMALL
bcc


@<TRIPOS>ATOM
      1 O1         -2.1420    1.0020    3.0240 o         1 2HU     -0.313700
      2 N2         -1.9310   -0.0520    2.4390 n2        1 2HU      0.517700
      3 O3         -2.3990   -1.2260    2.9560 os        1 2HU     -0.367000
      4 C4         -1.1950   -0.0540    1.2260 c2        1 2HU     -0.166000
      5 C5         -1.8680   -0.1080    0.0120 c2        1 2HU     -0.059000
      6 C6         -1.1550   -0.0820   -1.1780 c1        1 2HU     -0.154000
      7 C7          0.2480   -0.0010   -1.1560 c1        1 2HU      0.032000
      8 N8          1.1890    0.0440   -2.1690 n1        1 2HU     -0.209000
      9 C9          2.4270    0.1250   -1.5940 c1        1 2HU     -0.077000
     10 C10         2.2620    0.1300   -0.2240 c1        1 2HU     -0.179000
     11 C11         0.9130    0.0520    0.0420 c1        1 2HU     -0.105000
     12 C12         0.1900    0.0250    1.2480 c1        1 2HU     -0.005000
     13 H5         -2.8420   -0.1620   -0.0030 ha        1 2HU      0.169000
     14 H6         -1.6280   -0.1200   -2.0310 ha        1 2HU      0.147000
     15 HN8         1.0140    0.0240   -3.0640 DU        1 2HU      0.198667
     16 H9          3.2780    0.1590   -2.0700 DU        1 2HU      0.198667
     17 H10         2.9760    0.1800    0.4400 DU        1 2HU      0.198667
     18 H12         0.6630    0.0650    2.1020 ha        1 2HU      0.173000
@<TRIPOS>BOND
     1    1    2 2   
     2    2    4 1   
     3    4    5 1   
     4    4   12 1   
     5    5    6 1   
     6    5   13 1   
     7    6   14 1   
     8    7   11 1   
     9    8    9 1   
    10    9   10 1   
    11   10   11 1   
    12   12   18 1   
@<TRIPOS>SUBSTRUCTURE
     1 2HU         1 TEMP              0 ****  ****    0 ROOT
