@<TRIPOS>MOLECULE
2HU
   18    19     1     0     0
SMALL
bcc


@<TRIPOS>ATOM
      1 O1          3.3520   -0.7050    0.0010 o         1 2HU     -0.217500
      2 N2          2.5720    0.2110    0.0020 no        1 2HU      0.317200
      3 O3          2.9400    1.3570    0.0030 o         1 2HU     -0.217500
      4 C4          1.1170   -0.0780    0.0010 ca        1 2HU     -0.211200
      5 C5          0.6920   -1.4310   -0.0000 ca        1 2HU     -0.059000
      6 C6         -0.6530   -1.7490   -0.0010 ca        1 2HU     -0.154000
      7 C7         -1.5850   -0.6960   -0.0000 ca        1 2HU     -0.013200
      8 N8         -2.9750   -0.7060   -0.0010 na        1 2HU     -0.186400
      9 C9         -3.4280    0.6210   -0.0000 cc        1 2HU     -0.104100
     10 C10        -2.3470    1.4950    0.0010 cd        1 2HU     -0.167200
     11 C11        -1.1480    0.6870    0.0010 ca        1 2HU     -0.116800
     12 C12         0.2100    0.9870    0.0020 ca        1 2HU     -0.005000
     13 H5          1.4490   -2.2350   -0.0010 ha        1 2HU      0.169000
     14 H6         -0.9820   -2.7970   -0.0020 ha        1 2HU      0.147000
     15 HN8        -3.5430   -1.5110   -0.0020 hn        1 2HU      0.305700
     16 H9         -4.4990    0.8370   -0.0000 h4        1 2HU      0.173000
     17 H10        -2.3820    2.5810    0.0020 ha        1 2HU      0.167000
     18 H12         0.5580    2.0340    0.0030 ha        1 2HU      0.173000
@<TRIPOS>BOND
     1    1    2 1   
     2    2    3 1   
     3    2    4 1   
     4    4    5 ar  
     5    4   12 ar  
     6    5    6 ar  
     7    5   13 1   
     8    6    7 ar  
     9    6   14 1   
    10    7    8 1   
    11    7   11 ar  
    12    8    9 1   
    13    8   15 1   
    14    9   10 2   
    15    9   16 1   
    16   10   11 1   
    17   10   17 1   
    18   11   12 ar  
    19   12   18 1   
@<TRIPOS>SUBSTRUCTURE
     1 2HU         1 TEMP              0 ****  ****    0 ROOT
