@<TRIPOS>MOLECULE
2HV
   44    38     1     0     0
SMALL
bcc


@<TRIPOS>ATOM
      1 O1         -0.4140    3.3800   -0.0400 o         1 2HV     -0.364000
      2 C5          0.1590    2.3580    0.2750 c1        1 2HV      0.383000
      3 C3          1.0520    2.3350    1.5340 c2        1 2HV     -0.120000
      4 N1          1.9960    1.1560    1.9730 n2        1 2HV     -0.152000
      5 C4          1.2190    3.4220    2.4720 c1        1 2HV     -0.461000
      6 S           2.2470    2.9880    3.5170 ss        1 2HV      0.647000
      7 C2          2.7030    1.5580    3.1550 c1        1 2HV     -0.177000
      8 N           3.7540    0.8080    3.8150 n2        1 2HV     -0.300000
      9 C1          3.7090    0.6090    5.2470 c1        1 2HV      0.304000
     10 O           2.7940    1.0680    5.8940 o         1 2HV     -0.347000
     11 C           4.8650   -0.1210    5.9590 c2        1 2HV     -0.238000
     12 N2          0.1470    1.2400   -0.6040 n2        1 2HV     -0.302000
     13 C6         -0.5410    1.3290   -1.8570 c1        1 2HV      0.089000
     14 C11        -1.1780    0.2090   -2.3810 c1        1 2HV     -0.031000
     15 C10        -1.8080    0.2850   -3.6160 c1        1 2HV     -0.139000
     16 C9         -1.8020    1.4760   -4.3250 c1        1 2HV     -0.131000
     17 C8         -1.1660    2.5920   -3.8010 c1        1 2HV     -0.131000
     18 C7         -0.5360    2.5180   -2.5670 c1        1 2HV     -0.148000
     19 N3         -1.3420   -0.9600   -1.5710 n2        1 2HV     -0.238000
     20 C16        -2.8780   -1.3270   -1.4820 c3        1 2HV     -0.060000
     21 C15        -3.1400   -2.6200   -0.7390 c3        1 2HV     -0.172500
     22 C14        -2.0510   -3.3770   -0.6780 c3        1 2HV     -0.155000
     23 C13        -1.1680   -3.5360   -1.6620 c3        1 2HV     -0.172500
     24 C12        -0.9170   -2.2390   -2.3990 c3        1 2HV     -0.060000
     25 H4          0.7560    4.2820    2.4440 DU        1 2HV      0.206000
     26 H3          4.4820    0.5300    3.3390 hn        1 2HV      0.253000
     27 H1          5.5220    0.5390    6.2790 ha        1 2HV      0.114667
     28 H2          4.5110   -0.6290    6.7230 ha        1 2HV      0.114667
     29 H           5.3010   -0.7390    5.3280 ha        1 2HV      0.114667
     30 H5          0.4670    0.4440   -0.3220 hn        1 2HV      0.266000
     31 H9         -2.2550   -0.5000   -3.9860 ha        1 2HV      0.131000
     32 H8         -2.2480    1.5300   -5.2000 ha        1 2HV      0.132500
     33 H7         -1.1620    3.4320   -4.3020 ha        1 2HV      0.132500
     34 H6         -0.0870    3.3070   -2.1970 ha        1 2HV      0.169000
     35 H18        -3.2330   -1.4080   -2.3860 h1        1 2HV      0.085500
     36 H19        -3.3470   -0.6020   -1.0230 h1        1 2HV      0.085500
     37 H16        -3.8490   -3.1170   -1.2020 hc        1 2HV      0.085000
     38 H17        -3.4350   -2.4120    0.1670 hc        1 2HV      0.085000
     39 H14        -1.5420   -3.0520    0.0900 hc        1 2HV      0.079000
     40 H15        -2.3630   -4.2760   -0.4490 hc        1 2HV      0.079000
     41 H12        -1.5090   -4.1990   -2.2930 hc        1 2HV      0.085000
     42 H13        -0.3260   -3.8560   -1.2870 hc        1 2HV      0.085000
     43 H11         0.0350   -2.1750   -2.6060 h1        1 2HV      0.085500
     44 H10        -1.4200   -2.2510   -3.2360 h1        1 2HV      0.085500
@<TRIPOS>BOND
     1    1    2 1   
     2    2    3 1   
     3    3    4 1   
     4    3    5 1   
     5    4    7 1   
     6    5    6 1   
     7    6    7 1   
     8    8    9 1   
     9    8   26 1   
    10    9   10 1   
    11   11   27 1   
    12   11   28 1   
    13   11   29 1   
    14   12   13 1   
    15   12   30 1   
    16   13   18 1   
    17   14   15 1   
    18   15   31 1   
    19   16   17 1   
    20   16   32 1   
    21   17   33 1   
    22   18   34 1   
    23   19   20 1   
    24   19   24 1   
    25   20   21 1   
    26   20   35 1   
    27   20   36 1   
    28   21   22 1   
    29   21   37 1   
    30   21   38 1   
    31   22   23 1   
    32   22   39 1   
    33   22   40 1   
    34   23   24 1   
    35   23   41 1   
    36   23   42 1   
    37   24   43 1   
    38   24   44 1   
@<TRIPOS>SUBSTRUCTURE
     1 2HV         1 TEMP              0 ****  ****    0 ROOT
