@<TRIPOS>MOLECULE
2HV
   44    46     1     0     0
SMALL
bcc


@<TRIPOS>ATOM
      1 O1         -0.1740   -0.3610    0.2000 o         1 2HV     -0.603100
      2 C5          1.0550   -0.2170    0.0400 c         1 2HV      0.600600
      3 C3          1.9340   -0.1330    1.2450 cc        1 2HV      0.297800
      4 N1          3.3140   -0.0100    1.1900 nc        1 2HV     -0.676000
      5 C4          1.3960   -0.1800    2.5310 cd        1 2HV     -0.257400
      6 S           2.5750   -0.0720    3.6850 ss        1 2HV      0.062700
      7 C2          3.7990    0.0350    2.4530 cd        1 2HV      0.480300
      8 N           5.1580    0.1570    2.7420 ns        1 2HV     -0.533400
      9 C1          5.6580    0.2010    4.0390 c         1 2HV      0.660100
     10 O           4.8900    0.1340    5.0180 o         1 2HV     -0.586100
     11 C           7.1510    0.3320    4.1880 c3        1 2HV     -0.170100
     12 N2          1.6630   -0.1430   -1.2020 ns        1 2HV     -0.444100
     13 C6          1.0050   -0.1540   -2.4430 ca        1 2HV      0.092600
     14 C11         1.6660    0.3640   -3.6060 ca        1 2HV      0.036600
     15 C10         1.0020    0.3170   -4.8450 ca        1 2HV     -0.132000
     16 C9         -0.2750   -0.2170   -4.9630 ca        1 2HV     -0.153000
     17 C8         -0.9160   -0.7220   -3.8350 ca        1 2HV     -0.108000
     18 C7         -0.2900   -0.6950   -2.5950 ca        1 2HV     -0.156000
     19 N3          2.9900    0.9120   -3.4800 nh        1 2HV     -0.630000
     20 C16         3.9750    0.1840   -4.2740 c3        1 2HV      0.173800
     21 C15         5.3880    0.7410   -4.1170 c3        1 2HV     -0.078900
     22 C14         5.4250    2.2270   -4.4000 c3        1 2HV     -0.079400
     23 C13         4.4090    2.9550   -3.5460 c3        1 2HV     -0.078900
     24 C12         3.0150    2.3530   -3.7120 c3        1 2HV      0.173800
     25 H4          0.3250   -0.2770    2.7250 h4        1 2HV      0.206000
     26 H3          5.7900    0.2110    1.9740 hn        1 2HV      0.339500
     27 H1          7.3980    0.3550    5.2780 hc        1 2HV      0.075367
     28 H2          7.5110    1.2770    3.7130 hc        1 2HV      0.075367
     29 H           7.6700   -0.5370    3.7160 hc        1 2HV      0.075367
     30 H5          2.6400    0.0620   -1.2290 hn        1 2HV      0.354500
     31 H9          1.5030    0.7150   -5.7420 ha        1 2HV      0.131000
     32 H8         -0.7740   -0.2390   -5.9430 ha        1 2HV      0.132000
     33 H7         -1.9280   -1.1470   -3.9200 ha        1 2HV      0.134000
     34 H6         -0.8260   -1.1010   -1.7200 ha        1 2HV      0.171000
     35 H18         3.9590   -0.8870   -3.9260 h1        1 2HV      0.035700
     36 H19         3.7100    0.1900   -5.3730 h1        1 2HV      0.035700
     37 H16         5.7580    0.5470   -3.0760 hc        1 2HV      0.046700
     38 H17         6.0620    0.1950   -4.8260 hc        1 2HV      0.046700
     39 H14         5.2030    2.4080   -5.4850 hc        1 2HV      0.039700
     40 H15         6.4510    2.6280   -4.1960 hc        1 2HV      0.039700
     41 H12         4.3630    4.0350   -3.8380 hc        1 2HV      0.046700
     42 H13         4.7170    2.9040   -2.4690 hc        1 2HV      0.046700
     43 H11         2.3180    2.8250   -2.9650 h1        1 2HV      0.035700
     44 H10         2.6350    2.6100   -4.7450 h1        1 2HV      0.035700
@<TRIPOS>BOND
     1    1    2 2   
     2    2    3 1   
     3    2   12 1   
     4    3    4 1   
     5    3    5 2   
     6    4    7 2   
     7    5    6 1   
     8    5   25 1   
     9    6    7 1   
    10    7    8 1   
    11    8    9 1   
    12    8   26 1   
    13    9   10 2   
    14    9   11 1   
    15   11   27 1   
    16   11   28 1   
    17   11   29 1   
    18   12   13 1   
    19   12   30 1   
    20   13   14 ar  
    21   13   18 ar  
    22   14   15 ar  
    23   14   19 1   
    24   15   16 ar  
    25   15   31 1   
    26   16   17 ar  
    27   16   32 1   
    28   17   18 ar  
    29   17   33 1   
    30   18   34 1   
    31   19   20 1   
    32   19   24 1   
    33   20   21 1   
    34   20   35 1   
    35   20   36 1   
    36   21   22 1   
    37   21   37 1   
    38   21   38 1   
    39   22   23 1   
    40   22   39 1   
    41   22   40 1   
    42   23   24 1   
    43   23   41 1   
    44   23   42 1   
    45   24   43 1   
    46   24   44 1   
@<TRIPOS>SUBSTRUCTURE
     1 2HV         1 TEMP              0 ****  ****    0 ROOT
