@<TRIPOS>MOLECULE
2HV
   44    46     1     0     0
SMALL
bcc


@<TRIPOS>ATOM
      1 O1         -0.0140   -3.1380    0.3000 o         1 2HV     -0.603100
      2 C5          0.1400   -1.9240    0.0560 c         1 2HV      0.600600
      3 C3          1.5220   -1.3540    0.0760 cc        1 2HV      0.297800
      4 N1          1.8170   -0.0320   -0.2180 nc        1 2HV     -0.676000
      5 C4          2.6220   -2.1490    0.3980 cd        1 2HV     -0.257400
      6 S           4.0290   -1.2840    0.3430 ss        1 2HV      0.062700
      7 C2          3.1550    0.1500   -0.1120 cd        1 2HV      0.480300
      8 N           3.7760    1.3760   -0.3460 n         1 2HV     -0.533400
      9 C1          5.1510    1.5640   -0.2390 c         1 2HV      0.660100
     10 O           5.8970    0.6190    0.0810 o         1 2HV     -0.586100
     11 C           5.6720    2.9470   -0.5270 c3        1 2HV     -0.170100
     12 N2         -0.9020   -1.0660   -0.2480 n         1 2HV     -0.444100
     13 C6         -2.2660   -1.4000   -0.2680 ca        1 2HV      0.092600
     14 C11        -3.2560   -0.3690   -0.1550 ca        1 2HV      0.036600
     15 C10        -4.6160   -0.7220   -0.2070 ca        1 2HV     -0.132000
     16 C9         -5.0180   -2.0430   -0.3640 ca        1 2HV     -0.153000
     17 C8         -4.0570   -3.0440   -0.4750 ca        1 2HV     -0.108000
     18 C7         -2.7040   -2.7330   -0.4320 ca        1 2HV     -0.155000
     19 N3         -2.8370    0.9980    0.0030 nh        1 2HV     -0.630000
     20 C16        -3.2840    1.8500   -1.0950 c3        1 2HV      0.173800
     21 C15        -2.8110    3.2960   -0.9500 c3        1 2HV     -0.078900
     22 C14        -3.1990    3.8640    0.3990 c3        1 2HV     -0.079400
     23 C13        -2.7020    2.9700    1.5140 c3        1 2HV     -0.078900
     24 C12        -3.1750    1.5300    1.3190 c3        1 2HV      0.173800
     25 H4          2.5370   -3.2080    0.6490 h4        1 2HV      0.206000
     26 H3          3.1980    2.1450   -0.6040 hn        1 2HV      0.339500
     27 H1          5.2290    3.6880    0.1810 hc        1 2HV      0.075367
     28 H2          6.7830    2.9410   -0.4000 hc        1 2HV      0.075367
     29 H           5.4270    3.2480   -1.5740 hc        1 2HV      0.075367
     30 H5         -0.6910   -0.0930   -0.3400 hn        1 2HV      0.354500
     31 H9         -5.3830    0.0650   -0.1180 ha        1 2HV      0.131000
     32 H8         -6.0880   -2.2920   -0.3980 ha        1 2HV      0.132000
     33 H7         -4.3660   -4.0930   -0.6000 ha        1 2HV      0.134000
     34 H6         -1.9670   -3.5500   -0.5210 ha        1 2HV      0.171000
     35 H18        -2.8630    1.4190   -2.0460 h1        1 2HV      0.035700
     36 H19        -4.4100    1.8520   -1.1880 h1        1 2HV      0.035700
     37 H16        -1.6980    3.3440   -1.0730 hc        1 2HV      0.046700
     38 H17        -3.2730    3.9010   -1.7710 hc        1 2HV      0.046700
     39 H14        -2.7690    4.8920    0.5160 hc        1 2HV      0.039700
     40 H15        -4.3150    3.9570    0.4600 hc        1 2HV      0.039700
     41 H12        -1.5820    2.9990    1.5500 hc        1 2HV      0.046700
     42 H13        -3.0850    3.3350    2.5020 hc        1 2HV      0.046700
     43 H11        -4.2880    1.4900    1.5060 h1        1 2HV      0.035700
     44 H10        -2.6760    0.8720    2.0850 h1        1 2HV      0.035700
@<TRIPOS>BOND
     1    1    2 2   
     2    2    3 1   
     3    2   12 1   
     4    3    4 1   
     5    3    5 2   
     6    4    7 2   
     7    5    6 1   
     8    5   25 1   
     9    6    7 1   
    10    7    8 1   
    11    8    9 1   
    12    8   26 1   
    13    9   10 2   
    14    9   11 1   
    15   11   27 1   
    16   11   28 1   
    17   11   29 1   
    18   12   13 1   
    19   12   30 1   
    20   13   14 ar  
    21   13   18 ar  
    22   14   15 ar  
    23   14   19 1   
    24   15   16 ar  
    25   15   31 1   
    26   16   17 ar  
    27   16   32 1   
    28   17   18 ar  
    29   17   33 1   
    30   18   34 1   
    31   19   20 1   
    32   19   24 1   
    33   20   21 1   
    34   20   35 1   
    35   20   36 1   
    36   21   22 1   
    37   21   37 1   
    38   21   38 1   
    39   22   23 1   
    40   22   39 1   
    41   22   40 1   
    42   23   24 1   
    43   23   41 1   
    44   23   42 1   
    45   24   43 1   
    46   24   44 1   
@<TRIPOS>SUBSTRUCTURE
     1 2HV         1 TEMP              0 ****  ****    0 ROOT
