@<TRIPOS>MOLECULE
2HV
   46    48     1     0     0
SMALL
bcc


@<TRIPOS>ATOM
      1 O1          0.8490    1.3470   -0.8150 o         1 2HV     -0.360100
      2 C5          1.6940    0.5940   -0.3580 c         1 2HV      0.476600
      3 C3          2.3400    0.7750    0.9580 cc        1 2HV      0.254800
      4 N1          3.1820   -0.1410    1.5400 nc        1 2HV     -0.575000
      5 C4          2.1150    1.9420    1.7250 cd        1 2HV     -0.188400
      6 S           2.9380    1.8980    3.1250 ss        1 2HV      0.308700
      7 C2          3.5840    0.3510    2.7440 cd        1 2HV      0.339300
      8 N           4.5020   -0.3820    3.5960 n4        1 2HV     -0.646500
      9 C1          5.9700   -0.3770    3.0880 c         1 2HV      0.566100
     10 O           6.1600    0.1740    2.0250 o         1 2HV     -0.365100
     11 C           6.9160   -1.0640    4.0080 c3        1 2HV     -0.191100
     12 N2          2.1480   -0.5990   -1.1520 n4        1 2HV     -0.499200
     13 C6          1.4610   -0.7560   -2.4390 ca        1 2HV     -0.063400
     14 C11         1.8540    0.0430   -3.5490 ca        1 2HV      0.142600
     15 C10         1.1890   -0.1690   -4.7710 ca        1 2HV     -0.131000
     16 C9          0.1760   -1.1160   -4.8840 ca        1 2HV     -0.050000
     17 C8         -0.2030   -1.8840   -3.7790 ca        1 2HV     -0.102000
     18 C7          0.4310   -1.7070   -2.5540 ca        1 2HV     -0.099000
     19 N3          2.8970    1.0100   -3.3590 nh        1 2HV     -0.672000
     20 C16         4.0850    0.6990   -4.1620 c3        1 2HV      0.159800
     21 C15         5.2090    1.7140   -3.9730 c3        1 2HV     -0.076900
     22 C14         4.7210    3.1240   -4.2200 c3        1 2HV     -0.087400
     23 C13         3.5110    3.4270   -3.3640 c3        1 2HV     -0.076900
     24 C12         2.4160    2.3820   -3.5610 c3        1 2HV      0.159800
     25 H4          1.4560    2.7590    1.3870 h4        1 2HV      0.255000
     26 H3          4.1990   -1.3670    3.6600 hn        1 2HV      0.476300
     27 H1          6.6280   -2.1350    4.1670 hc        1 2HV      0.129700
     28 H2          6.9680   -0.5420    4.9990 hc        1 2HV      0.129700
     29 H           7.9400   -1.0370    3.5400 hc        1 2HV      0.129700
     30 H5          2.0020   -1.4480   -0.5900 hn        1 2HV      0.476300
     31 H9          1.4740    0.4310   -5.6540 ha        1 2HV      0.176000
     32 H8         -0.3340   -1.2620   -5.8530 ha        1 2HV      0.180000
     33 H7         -1.0080   -2.6320   -3.8740 ha        1 2HV      0.179000
     34 H6          0.1180   -2.3190   -1.6930 ha        1 2HV      0.151000
     35 H18         4.4470   -0.3200   -3.8470 h1        1 2HV      0.049200
     36 H19         3.8290    0.6470   -5.2610 h1        1 2HV      0.049200
     37 H16         6.0310    1.4590   -4.6930 hc        1 2HV      0.055200
     38 H17         5.6280    1.6330   -2.9370 hc        1 2HV      0.055200
     39 H14         5.5400    3.8550   -3.9910 hc        1 2HV      0.065200
     40 H15         4.4570    3.2480   -5.3040 hc        1 2HV      0.065200
     41 H12         3.8120    3.4680   -2.2850 hc        1 2HV      0.055200
     42 H13         3.0860    4.4290   -3.6370 hc        1 2HV      0.055200
     43 H11         1.5900    2.5590   -2.8150 h1        1 2HV      0.049200
     44 H10         1.9800    2.5100   -4.5950 h1        1 2HV      0.049200
     45 HN3         4.4740    0.0220    4.5400 hn        1 2HV      0.476300
     46 H22         3.1590   -0.4880   -1.3340 hn        1 2HV      0.476300
@<TRIPOS>BOND
     1    1    2 2   
     2    2    3 1   
     3    2   12 1   
     4    3    4 1   
     5    3    5 2   
     6    4    7 2   
     7    5    6 1   
     8    5   25 1   
     9    6    7 1   
    10    7    8 1   
    11    8    9 1   
    12    8   26 1   
    13    8   45 1   
    14    9   10 2   
    15    9   11 1   
    16   11   27 1   
    17   11   28 1   
    18   11   29 1   
    19   12   13 1   
    20   12   30 1   
    21   12   46 1   
    22   13   14 ar  
    23   13   18 ar  
    24   14   15 ar  
    25   14   19 1   
    26   15   16 ar  
    27   15   31 1   
    28   16   17 ar  
    29   16   32 1   
    30   17   18 ar  
    31   17   33 1   
    32   18   34 1   
    33   19   20 1   
    34   19   24 1   
    35   20   21 1   
    36   20   35 1   
    37   20   36 1   
    38   21   22 1   
    39   21   37 1   
    40   21   38 1   
    41   22   23 1   
    42   22   39 1   
    43   22   40 1   
    44   23   24 1   
    45   23   41 1   
    46   23   42 1   
    47   24   43 1   
    48   24   44 1   
@<TRIPOS>SUBSTRUCTURE
     1 2HV         1 TEMP              0 ****  ****    0 ROOT
