@<TRIPOS>MOLECULE
2HV
   44    46     1     0     0
SMALL
bcc


@<TRIPOS>ATOM
      1 O1         -0.1740   -0.3570    0.1960 o         1 2HV     -0.603100
      2 C5          1.0560   -0.2140    0.0380 c         1 2HV      0.600600
      3 C3          1.9340   -0.1300    1.2440 cc        1 2HV      0.297800
      4 N1          3.3150   -0.0210    1.1900 nc        1 2HV     -0.676000
      5 C4          1.3930   -0.1610    2.5290 cd        1 2HV     -0.257400
      6 S           2.5710   -0.0570    3.6840 ss        1 2HV      0.062700
      7 C2          3.7980    0.0280    2.4540 cd        1 2HV      0.480300
      8 N           5.1580    0.1370    2.7430 n         1 2HV     -0.533400
      9 C1          5.6570    0.1840    4.0410 c         1 2HV      0.660100
     10 O           4.8870    0.1330    5.0190 o         1 2HV     -0.586100
     11 C           7.1510    0.2980    4.1920 c3        1 2HV     -0.170100
     12 N2          1.6640   -0.1410   -1.2040 n         1 2HV     -0.444100
     13 C6          1.0080   -0.1530   -2.4450 ca        1 2HV      0.092600
     14 C11         1.6680    0.3660   -3.6080 ca        1 2HV      0.036600
     15 C10         1.0060    0.3170   -4.8460 ca        1 2HV     -0.132000
     16 C9         -0.2700   -0.2210   -4.9660 ca        1 2HV     -0.153000
     17 C8         -0.9110   -0.7270   -3.8380 ca        1 2HV     -0.108000
     18 C7         -0.2860   -0.6990   -2.5980 ca        1 2HV     -0.155000
     19 N3          2.9900    0.9180   -3.4810 nh        1 2HV     -0.630000
     20 C16         3.9780    0.1940   -4.2740 c3        1 2HV      0.173800
     21 C15         5.3900    0.7560   -4.1150 c3        1 2HV     -0.078900
     22 C14         5.4210    2.2420   -4.3980 c3        1 2HV     -0.079400
     23 C13         4.4020    2.9660   -3.5440 c3        1 2HV     -0.078900
     24 C12         3.0100    2.3600   -3.7120 c3        1 2HV      0.173800
     25 H4          0.3210   -0.2450    2.7220 h4        1 2HV      0.206000
     26 H3          5.7920    0.1770    1.9760 hn        1 2HV      0.339500
     27 H1          7.6600   -0.5820    3.7280 hc        1 2HV      0.075367
     28 H2          7.3970    0.3270    5.2820 hc        1 2HV      0.075367
     29 H           7.5240    1.2340    3.7090 hc        1 2HV      0.075367
     30 H5          2.6420    0.0640   -1.2300 hn        1 2HV      0.354500
     31 H9          1.5050    0.7170   -5.7440 ha        1 2HV      0.131000
     32 H8         -0.7680   -0.2440   -5.9460 ha        1 2HV      0.132000
     33 H7         -1.9210   -1.1550   -3.9230 ha        1 2HV      0.134000
     34 H6         -0.8210   -1.1050   -1.7230 ha        1 2HV      0.171000
     35 H18         3.7140    0.2000   -5.3730 h1        1 2HV      0.035700
     36 H19         3.9660   -0.8770   -3.9270 h1        1 2HV      0.035700
     37 H16         6.0660    0.2130   -4.8250 hc        1 2HV      0.046700
     38 H17         5.7590    0.5620   -3.0750 hc        1 2HV      0.046700
     39 H14         5.1990    2.4230   -5.4830 hc        1 2HV      0.039700
     40 H15         6.4460    2.6470   -4.1920 hc        1 2HV      0.039700
     41 H12         4.3530    4.0470   -3.8350 hc        1 2HV      0.046700
     42 H13         4.7100    2.9160   -2.4670 hc        1 2HV      0.046700
     43 H11         2.3110    2.8290   -2.9640 h1        1 2HV      0.035700
     44 H10         2.6300    2.6160   -4.7450 h1        1 2HV      0.035700
@<TRIPOS>BOND
     1    1    2 2   
     2    2    3 1   
     3    2   12 1   
     4    3    4 1   
     5    3    5 2   
     6    4    7 2   
     7    5    6 1   
     8    5   25 1   
     9    6    7 1   
    10    7    8 1   
    11    8    9 1   
    12    8   26 1   
    13    9   10 2   
    14    9   11 1   
    15   11   27 1   
    16   11   28 1   
    17   11   29 1   
    18   12   13 1   
    19   12   30 1   
    20   13   14 ar  
    21   13   18 ar  
    22   14   15 ar  
    23   14   19 1   
    24   15   16 ar  
    25   15   31 1   
    26   16   17 ar  
    27   16   32 1   
    28   17   18 ar  
    29   17   33 1   
    30   18   34 1   
    31   19   20 1   
    32   19   24 1   
    33   20   21 1   
    34   20   35 1   
    35   20   36 1   
    36   21   22 1   
    37   21   37 1   
    38   21   38 1   
    39   22   23 1   
    40   22   39 1   
    41   22   40 1   
    42   23   24 1   
    43   23   41 1   
    44   23   42 1   
    45   24   43 1   
    46   24   44 1   
@<TRIPOS>SUBSTRUCTURE
     1 2HV         1 TEMP              0 ****  ****    0 ROOT
