@<TRIPOS>MOLECULE
2HW
   45    47     1     0     0
SMALL
bcc


@<TRIPOS>ATOM
      1 O           1.8340    1.9240    0.0830 o         1 2HW     -0.457100
      2 C10         2.1520    0.7520    0.2710 c         1 2HW      0.475600
      3 C11         1.8220   -0.0090    1.5070 ca        1 2HW      0.234500
      4 C14         1.0350    0.5480    2.5580 ca        1 2HW      0.443900
      5 N6          0.4450    1.8980    2.5000 n4        1 2HW     -0.828300
      6 N5          0.7690   -0.1590    3.7050 nb        1 2HW     -0.598000
      7 C13         1.2710   -1.3910    3.8050 ca        1 2HW      0.424900
      8 C12         2.0640   -1.9620    2.7430 ca        1 2HW      0.379900
      9 N4          2.3240   -1.2780    1.6310 nb        1 2HW     -0.629000
     10 N3          2.9510    0.0790   -0.8120 n4        1 2HW     -0.496200
     11 C9          2.1160   -0.3050   -1.9520 ca        1 2HW     -0.206700
     12 C8          1.1430   -1.3270   -1.7750 ca        1 2HW      0.454200
     13 N2          0.3430   -1.7580   -2.7560 nb        1 2HW     -0.600000
     14 C7          0.4770   -1.2000   -3.9750 ca        1 2HW      0.500200
     15 C6          1.4250   -0.1980   -4.2610 ca        1 2HW     -0.260300
     16 C5          2.2830    0.2720   -3.2510 ca        1 2HW      0.176600
     17 N1          3.3160    1.2380   -3.4790 nh        1 2HW     -0.656000
     18 C3          2.8700    2.6190   -3.2540 c3        1 2HW      0.146800
     19 C2          4.0040    3.6270   -3.4110 c3        1 2HW     -0.082400
     20 C1          4.6940    3.4880   -4.7520 c3        1 2HW     -0.111400
     21 C4          3.9860    1.0660   -4.7690 c3        1 2HW      0.151800
     22 C           5.1840    2.0460   -4.9140 c3        1 2HW      0.117500
     23 N           5.8750    1.8500   -6.2340 n4        1 2HW     -0.840600
     24 H18        -0.4140    1.8710    1.9300 hn        1 2HW      0.498800
     25 H17         1.1150    2.5580    2.0770 hn        1 2HW      0.498800
     26 H16         1.0490   -1.9530    4.7450 h4        1 2HW      0.128100
     27 H15         2.4830   -2.9920    2.8250 h4        1 2HW      0.118100
     28 H14         3.4130   -0.7730   -0.4520 hn        1 2HW      0.495300
     29 H13         1.0060   -1.8380   -0.8010 h4        1 2HW      0.051100
     30 H12        -0.2140   -1.5820   -4.7610 h4        1 2HW      0.093100
     31 H11         1.4700    0.2070   -5.2860 ha        1 2HW      0.184000
     32 H7          2.4670    2.6780   -2.2030 h1        1 2HW      0.068700
     33 H8          2.0330    2.8950   -3.9600 h1        1 2HW      0.068700
     34 H5          4.7510    3.5110   -2.5830 hc        1 2HW      0.090200
     35 H6          3.5670    4.6610   -3.3290 hc        1 2HW      0.090200
     36 H4          5.5560    4.2070   -4.7990 hc        1 2HW      0.092200
     37 H3          3.9780    3.7540   -5.5750 hc        1 2HW      0.092200
     38 H10         3.2790    1.2450   -5.6330 h1        1 2HW      0.074200
     39 H9          4.3560    0.0030   -4.8230 h1        1 2HW      0.074200
     40 H           5.9560    1.8170   -4.1170 hx        1 2HW      0.123700
     41 H1          6.6760    2.4930   -6.2950 hn        1 2HW      0.474133
     42 H2          6.2130    0.8850   -6.3230 hn        1 2HW      0.474133
     43 H63         0.1950    2.2290    3.4520 hn        1 2HW      0.498800
     44 H32         3.6810    0.7400   -1.1290 hn        1 2HW      0.495300
     45 HN3         5.2350    2.0540   -7.0110 hn        1 2HW      0.474133
@<TRIPOS>BOND
     1    1    2 2   
     2    2    3 1   
     3    2   10 1   
     4    3    4 ar  
     5    3    9 ar  
     6    4    5 1   
     7    4    6 ar  
     8    5   24 1   
     9    5   25 1   
    10    5   43 1   
    11    6    7 ar  
    12    7    8 ar  
    13    7   26 1   
    14    8    9 ar  
    15    8   27 1   
    16   10   11 1   
    17   10   28 1   
    18   10   44 1   
    19   11   12 ar  
    20   11   16 ar  
    21   12   13 ar  
    22   12   29 1   
    23   13   14 ar  
    24   14   15 ar  
    25   14   30 1   
    26   15   16 ar  
    27   15   31 1   
    28   16   17 1   
    29   17   18 1   
    30   17   21 1   
    31   18   19 1   
    32   18   32 1   
    33   18   33 1   
    34   19   20 1   
    35   19   34 1   
    36   19   35 1   
    37   20   22 1   
    38   20   36 1   
    39   20   37 1   
    40   21   22 1   
    41   21   38 1   
    42   21   39 1   
    43   22   23 1   
    44   22   40 1   
    45   23   41 1   
    46   23   42 1   
    47   23   45 1   
@<TRIPOS>SUBSTRUCTURE
     1 2HW         1 TEMP              0 ****  ****    0 ROOT
