@<TRIPOS>MOLECULE
2HW
   43    45     1     0     0
SMALL
bcc


@<TRIPOS>ATOM
      1 O           0.7710   -1.2980   -0.7020 o         1 2HW     -0.587100
      2 C10         1.4660   -0.2790   -0.5290 c         1 2HW      0.579600
      3 C11         2.4870   -0.2160    0.5700 ca        1 2HW      0.134500
      4 C14         2.1160   -0.6590    1.9050 ca        1 2HW      0.640900
      5 N6          0.8580   -1.0990    2.1870 nv        1 2HW     -0.924500
      6 N5          3.0580   -0.5970    2.9290 nb        1 2HW     -0.692000
      7 C13         4.2650   -0.1420    2.6140 ca        1 2HW      0.391900
      8 C12         4.6200    0.2600    1.2910 ca        1 2HW      0.169900
      9 N4          3.7350    0.2230    0.2860 nb        1 2HW     -0.655000
     10 N3          1.3200    0.8590   -1.3030 ns        1 2HW     -0.456100
     11 C9          0.6120    0.8870   -2.5190 ca        1 2HW     -0.089700
     12 C8         -0.7410    0.4510   -2.5940 ca        1 2HW      0.432200
     13 N2         -1.4880    0.5250   -3.7030 nb        1 2HW     -0.639000
     14 C7         -0.9210    1.0370   -4.8110 ca        1 2HW      0.418200
     15 C6          0.4140    1.4620   -4.8750 ca        1 2HW     -0.266300
     16 C5          1.2170    1.3770   -3.7210 ca        1 2HW      0.121600
     17 N1          2.5670    1.8100   -3.6970 nh        1 2HW     -0.665000
     18 C3          2.9990    2.8180   -4.6490 c3        1 2HW      0.182800
     19 C2          4.3140    3.4700   -4.2070 c3        1 2HW     -0.083400
     20 C1          5.3840    2.4550   -3.8400 c3        1 2HW     -0.099400
     21 C4          3.5610    0.7790   -3.4920 c3        1 2HW      0.186800
     22 C           4.8020    1.4560   -2.8380 c3        1 2HW      0.099500
     23 N           5.7930    0.4210   -2.3970 nz        1 2HW     -0.835600
     24 H18         0.2380   -1.3080    1.4370 hn        1 2HW      0.465800
     25 H17         0.6390   -1.4360    3.0960 hn        1 2HW      0.465800
     26 H16         5.0010   -0.0950    3.4390 h4        1 2HW      0.051100
     27 H15         5.6320    0.6260    1.0690 h4        1 2HW      0.015100
     28 H14         1.8940    1.6490   -1.1100 hn        1 2HW      0.332500
     29 H13        -1.2310    0.0070   -1.7050 h4        1 2HW      0.052100
     30 H12        -1.5750    1.0990   -5.7020 h4        1 2HW      0.042100
     31 H11         0.8170    1.8530   -5.8200 ha        1 2HW      0.152000
     32 H7          2.2000    3.6100   -4.7080 h1        1 2HW      0.064200
     33 H8          3.1360    2.3810   -5.6810 h1        1 2HW      0.064200
     34 H5          4.6910    4.1060   -5.0510 hc        1 2HW      0.077700
     35 H6          4.1230    4.1440   -3.3300 hc        1 2HW      0.077700
     36 H4          5.7270    1.9190   -4.7640 hc        1 2HW      0.065200
     37 H3          6.2660    2.9900   -3.4010 hc        1 2HW      0.065200
     38 H10         3.1560   -0.0330   -2.8280 h1        1 2HW      0.063700
     39 H9          3.8870    0.3040   -4.4650 h1        1 2HW      0.063700
     40 H           4.4830    2.0000   -1.8950 hx        1 2HW      0.131700
     41 H1          6.6230    0.8810   -2.0140 hn        1 2HW      0.460800
     42 H2          5.3640   -0.1690   -1.6740 hn        1 2HW      0.460800
     43 HN3         6.0720   -0.1650   -3.1890 hn        1 2HW      0.460800
@<TRIPOS>BOND
     1    1    2 2   
     2    2    3 1   
     3    2   10 1   
     4    3    4 ar  
     5    3    9 ar  
     6    4    5 1   
     7    4    6 ar  
     8    5   24 1   
     9    5   25 1   
    10    6    7 ar  
    11    7    8 ar  
    12    7   26 1   
    13    8    9 ar  
    14    8   27 1   
    15   10   11 1   
    16   10   28 1   
    17   11   12 ar  
    18   11   16 ar  
    19   12   13 ar  
    20   12   29 1   
    21   13   14 ar  
    22   14   15 ar  
    23   14   30 1   
    24   15   16 ar  
    25   15   31 1   
    26   16   17 1   
    27   17   18 1   
    28   17   21 1   
    29   18   19 1   
    30   18   32 1   
    31   18   33 1   
    32   19   20 1   
    33   19   34 1   
    34   19   35 1   
    35   20   22 1   
    36   20   36 1   
    37   20   37 1   
    38   21   22 1   
    39   21   38 1   
    40   21   39 1   
    41   22   23 1   
    42   22   40 1   
    43   23   41 1   
    44   23   42 1   
    45   23   43 1   
@<TRIPOS>SUBSTRUCTURE
     1 2HW         1 TEMP              0 ****  ****    0 ROOT
