@<TRIPOS>MOLECULE
2HW
   42    44     1     0     0
SMALL
bcc


@<TRIPOS>ATOM
      1 O           2.4220   -2.0190   -0.3010 o         1 2HW     -0.622100
      2 C10         1.9180   -0.8760   -0.3110 c         1 2HW      0.598600
      3 C11         2.8060    0.3400   -0.3170 ca        1 2HW      0.155500
      4 C14         4.0170    0.3470    0.4820 ca        1 2HW      0.603900
      5 N6          4.3040   -0.6680    1.3660 nh        1 2HW     -0.932500
      6 N5          4.8710    1.4380    0.4160 nb        1 2HW     -0.710000
      7 C13         4.5090    2.4440   -0.3800 ca        1 2HW      0.359900
      8 C12         3.3080    2.4290   -1.1450 ca        1 2HW      0.209900
      9 N4          2.4730    1.3840   -1.1100 nb        1 2HW     -0.582000
     10 N3          0.5560   -0.6450   -0.3000 n         1 2HW     -0.431100
     11 C9         -0.4550   -1.6130   -0.2890 ca        1 2HW     -0.028700
     12 C8         -0.2030   -2.9930   -0.5560 ca        1 2HW      0.372200
     13 N2         -1.1460   -3.9430   -0.5590 nb        1 2HW     -0.644000
     14 C7         -2.4140   -3.5770   -0.2970 ca        1 2HW      0.370200
     15 C6         -2.7880   -2.2550   -0.0230 ca        1 2HW     -0.247300
     16 C5         -1.8120   -1.2420   -0.0150 ca        1 2HW      0.075600
     17 N1         -2.1340    0.1320    0.2480 nh        1 2HW     -0.636000
     18 C3         -2.4970    0.3570    1.6440 c3        1 2HW      0.172800
     19 C2         -2.7920    1.8250    1.9420 c3        1 2HW     -0.079400
     20 C1         -3.8290    2.3830    0.9930 c3        1 2HW     -0.080400
     21 C4         -3.1110    0.6660   -0.6960 c3        1 2HW      0.171800
     22 C          -3.3710    2.1800   -0.4590 c3        1 2HW      0.169500
     23 N          -4.3480    2.6770   -1.4130 n3        1 2HW     -0.915800
     24 H18         3.8690   -1.5500    1.2040 hn        1 2HW      0.444300
     25 H17         5.2030   -0.6820    1.7910 hn        1 2HW      0.444300
     26 H16         5.2020    3.3040   -0.4240 h4        1 2HW      0.035100
     27 H15         3.0290    3.2720   -1.7970 h4        1 2HW      0.038100
     28 H14         0.2480    0.3060   -0.3110 hn        1 2HW      0.353500
     29 H13         0.8240   -3.3490   -0.7780 h4        1 2HW      0.062100
     30 H12        -3.1640   -4.3870   -0.3080 h4        1 2HW      0.024100
     31 H11        -3.8410   -2.0160    0.1850 ha        1 2HW      0.146000
     32 H7         -3.3980   -0.2580    1.9370 h1        1 2HW      0.039200
     33 H8         -1.6300    0.0180    2.2770 h1        1 2HW      0.039200
     34 H5         -3.1620    1.9010    2.9970 hc        1 2HW      0.050200
     35 H6         -1.8470    2.4240    1.8680 hc        1 2HW      0.050200
     36 H4         -4.8120    1.8690    1.1550 hc        1 2HW      0.049200
     37 H3         -3.9780    3.4750    1.1980 hc        1 2HW      0.049200
     38 H10        -2.6930    0.5200   -1.7300 h1        1 2HW      0.046700
     39 H9         -4.0950    0.1170   -0.6360 h1        1 2HW      0.046700
     40 H          -2.3770    2.7170   -0.5760 h1        1 2HW      0.022700
     41 H1         -4.5600    3.6350   -1.2200 hn        1 2HW      0.353300
     42 H2         -3.9940    2.5930   -2.3450 hn        1 2HW      0.353300
@<TRIPOS>BOND
     1    1    2 2   
     2    2    3 1   
     3    2   10 1   
     4    3    4 ar  
     5    3    9 ar  
     6    4    5 1   
     7    4    6 ar  
     8    5   24 1   
     9    5   25 1   
    10    6    7 ar  
    11    7    8 ar  
    12    7   26 1   
    13    8    9 ar  
    14    8   27 1   
    15   10   11 1   
    16   10   28 1   
    17   11   12 ar  
    18   11   16 ar  
    19   12   13 ar  
    20   12   29 1   
    21   13   14 ar  
    22   14   15 ar  
    23   14   30 1   
    24   15   16 ar  
    25   15   31 1   
    26   16   17 1   
    27   17   18 1   
    28   17   21 1   
    29   18   19 1   
    30   18   32 1   
    31   18   33 1   
    32   19   20 1   
    33   19   34 1   
    34   19   35 1   
    35   20   22 1   
    36   20   36 1   
    37   20   37 1   
    38   21   22 1   
    39   21   38 1   
    40   21   39 1   
    41   22   23 1   
    42   22   40 1   
    43   23   41 1   
    44   23   42 1   
@<TRIPOS>SUBSTRUCTURE
     1 2HW         1 TEMP              0 ****  ****    0 ROOT
