@<TRIPOS>MOLECULE
2HW
   43    45     1     0     0
SMALL
bcc


@<TRIPOS>ATOM
      1 O           0.7870   -1.3140   -0.7070 o         1 2HW     -0.587100
      2 C10         1.4710   -0.2880   -0.5330 c         1 2HW      0.579600
      3 C11         2.4860   -0.2120    0.5710 ca        1 2HW      0.134500
      4 C14         2.1130   -0.6560    1.9050 ca        1 2HW      0.640900
      5 N6          0.8580   -1.1080    2.1820 nh        1 2HW     -0.924500
      6 N5          3.0490   -0.5820    2.9340 nb        1 2HW     -0.692000
      7 C13         4.2530   -0.1160    2.6240 ca        1 2HW      0.391900
      8 C12         4.6100    0.2870    1.3020 ca        1 2HW      0.169900
      9 N4          3.7310    0.2390    0.2930 nb        1 2HW     -0.655000
     10 N3          1.3170    0.8470   -1.3090 n         1 2HW     -0.456100
     11 C9          0.6150    0.8660   -2.5290 ca        1 2HW     -0.089700
     12 C8         -0.7330    0.4170   -2.6080 ca        1 2HW      0.432200
     13 N2         -1.4760    0.4810   -3.7220 nb        1 2HW     -0.639000
     14 C7         -0.9090    0.9960   -4.8290 ca        1 2HW      0.418200
     15 C6          0.4230    1.4330   -4.8870 ca        1 2HW     -0.266300
     16 C5          1.2210    1.3580   -3.7300 ca        1 2HW      0.121600
     17 N1          2.5670    1.8030   -3.7010 nh        1 2HW     -0.665000
     18 C3          2.9940    2.8130   -4.6520 c3        1 2HW      0.182800
     19 C2          4.3010    3.4780   -4.2060 c3        1 2HW     -0.083400
     20 C1          5.3780    2.4750   -3.8310 c3        1 2HW     -0.099400
     21 C4          3.5690    0.7830   -3.4880 c3        1 2HW      0.186800
     22 C           4.8010    1.4720   -2.8290 c3        1 2HW      0.099500
     23 N           5.8000    0.4490   -2.3820 n4        1 2HW     -0.835600
     24 H18         0.6380   -1.4450    3.0910 hn        1 2HW      0.465800
     25 H17         0.2440   -1.3250    1.4290 hn        1 2HW      0.465800
     26 H16         4.9850   -0.0590    3.4530 h4        1 2HW      0.051100
     27 H15         5.6200    0.6620    1.0840 h4        1 2HW      0.015100
     28 H14         1.8830    1.6430   -1.1160 hn        1 2HW      0.332500
     29 H13        -1.2240   -0.0290   -1.7210 h4        1 2HW      0.052100
     30 H12        -1.5590    1.0490   -5.7230 h4        1 2HW      0.042100
     31 H11         0.8260    1.8250   -5.8320 ha        1 2HW      0.152000
     32 H7          2.1880    3.5980   -4.7180 h1        1 2HW      0.064200
     33 H8          3.1400    2.3740   -5.6830 h1        1 2HW      0.064200
     34 H5          4.0990    4.1530   -3.3320 hc        1 2HW      0.077700
     35 H6          4.6760    4.1160   -5.0500 hc        1 2HW      0.077700
     36 H4          6.2530    3.0190   -3.3890 hc        1 2HW      0.065200
     37 H3          5.7310    1.9400   -4.7530 hc        1 2HW      0.065200
     38 H10         3.9040    0.3080   -4.4580 h1        1 2HW      0.063700
     39 H9          3.1690   -0.0310   -2.8240 h1        1 2HW      0.063700
     40 H           4.4720    2.0160   -1.8900 hx        1 2HW      0.131700
     41 H1          5.3720   -0.1450   -1.6590 hn        1 2HW      0.460800
     42 H2          6.6230    0.9170   -1.9950 hn        1 2HW      0.460800
     43 HN3         6.0870   -0.1370   -3.1700 hn        1 2HW      0.460800
@<TRIPOS>BOND
     1    1    2 2   
     2    2    3 1   
     3    2   10 1   
     4    3    4 ar  
     5    3    9 ar  
     6    4    5 1   
     7    4    6 ar  
     8    5   24 1   
     9    5   25 1   
    10    6    7 ar  
    11    7    8 ar  
    12    7   26 1   
    13    8    9 ar  
    14    8   27 1   
    15   10   11 1   
    16   10   28 1   
    17   11   12 ar  
    18   11   16 ar  
    19   12   13 ar  
    20   12   29 1   
    21   13   14 ar  
    22   14   15 ar  
    23   14   30 1   
    24   15   16 ar  
    25   15   31 1   
    26   16   17 1   
    27   17   18 1   
    28   17   21 1   
    29   18   19 1   
    30   18   32 1   
    31   18   33 1   
    32   19   20 1   
    33   19   34 1   
    34   19   35 1   
    35   20   22 1   
    36   20   36 1   
    37   20   37 1   
    38   21   22 1   
    39   21   38 1   
    40   21   39 1   
    41   22   23 1   
    42   22   40 1   
    43   23   41 1   
    44   23   42 1   
    45   23   43 1   
@<TRIPOS>SUBSTRUCTURE
     1 2HW         1 TEMP              0 ****  ****    0 ROOT
