@<TRIPOS>MOLECULE
2HW
   42    38     1     0     0
SMALL
bcc


@<TRIPOS>ATOM
      1 O          -2.7690    0.5490    2.0120 o         1 2HW     -0.383000
      2 C10        -1.5760    0.3310    2.1180 c1        1 2HW      0.382000
      3 C11        -0.8540    0.6640    3.4230 c2        1 2HW     -0.197000
      4 C14        -1.5380    1.3200    4.4420 c2        1 2HW      0.148000
      5 N6         -2.7470    2.0010    4.1550 n3        1 2HW     -0.330000
      6 N5         -0.9720    1.4490    5.6540 n1        1 2HW     -0.184000
      7 C13         0.2500    0.9470    5.8810 c1        1 2HW     -0.126500
      8 C12         0.9320    0.2940    4.8650 c1        1 2HW     -0.126500
      9 N4          0.3690    0.1630    3.6530 n1        1 2HW     -0.056000
     10 N3         -0.8750   -0.3440    1.0640 n2        1 2HW     -0.285000
     11 C9         -1.5790   -0.7590   -0.1080 c2        1 2HW      0.044000
     12 C8         -2.8850   -1.2090   -0.0050 c2        1 2HW     -0.093000
     13 N2         -3.5200   -1.7230   -1.1000 n1        1 2HW     -0.118000
     14 C7         -2.8690   -1.7940   -2.2970 c1        1 2HW     -0.126500
     15 C6         -1.5590   -1.3440   -2.4040 c1        1 2HW     -0.126500
     16 C5         -0.9220   -0.8300   -1.3120 c1        1 2HW     -0.006000
     17 N1          0.3860   -0.2350   -1.4550 n2        1 2HW     -0.238000
     18 C3          0.2860    0.9800   -2.2750 c3        1 2HW     -0.064000
     19 C2          1.6470    1.5840   -2.5900 c3        1 2HW     -0.158000
     20 C1          2.5800    0.5980   -3.1560 c3        1 2HW     -0.159000
     21 C4          1.3130   -1.2210   -2.0120 c3        1 2HW     -0.065000
     22 C           2.6780   -0.6230   -2.3270 c3        1 2HW     -0.028000
     23 N           3.4730   -1.6140   -3.0420 n3        1 2HW     -0.348000
     24 H18        -2.9100    2.8290    4.5280 hn        1 2HW      0.239500
     25 H17        -3.3560    1.6310    3.5730 hn        1 2HW      0.239500
     26 H16         0.6620    1.0420    6.7640 ha        1 2HW      0.163500
     27 H15         1.8260   -0.0730    5.0320 ha        1 2HW      0.163500
     28 H14         0.0290   -0.4120    1.0950 hn        1 2HW      0.267000
     29 H13        -3.3530   -1.1590    0.8520 h4        1 2HW      0.199000
     30 H12        -3.3260   -2.1630   -3.0820 ha        1 2HW      0.163500
     31 H11        -1.0950   -1.3950   -3.2590 ha        1 2HW      0.163500
     32 H7         -0.1640    0.7570   -3.1160 h1        1 2HW      0.078500
     33 H8         -0.2510    1.6420   -1.7950 h1        1 2HW      0.078500
     34 H5          1.5290    2.3130   -3.2330 hc        1 2HW      0.089500
     35 H6          2.0290    1.9450   -1.7690 hc        1 2HW      0.089500
     36 H4          3.4670    1.0050   -3.2260 hc        1 2HW      0.088500
     37 H3          2.2730    0.3480   -4.0560 hc        1 2HW      0.088500
     38 H10         0.9300   -1.5840   -2.8350 h1        1 2HW      0.086000
     39 H9          1.4270   -1.9480   -1.3670 h1        1 2HW      0.086000
     40 H           3.1270   -0.4010   -1.4900 h1        1 2HW      0.062000
     41 H1          3.6450   -2.3220   -2.4910 hn        1 2HW      0.148500
     42 H2          4.2630   -1.2360   -3.3090 hn        1 2HW      0.148500
@<TRIPOS>BOND
     1    1    2 1   
     2    2    3 1   
     3    3    4 1   
     4    3    9 1   
     5    4    5 1   
     6    4    6 1   
     7    5   24 1   
     8    5   25 1   
     9    7    8 1   
    10    7   26 1   
    11    8   27 1   
    12   10   11 1   
    13   10   28 1   
    14   11   12 1   
    15   11   16 1   
    16   12   13 1   
    17   12   29 1   
    18   14   15 1   
    19   14   30 1   
    20   15   31 1   
    21   17   18 1   
    22   17   21 1   
    23   18   19 1   
    24   18   32 1   
    25   18   33 1   
    26   19   20 1   
    27   19   34 1   
    28   19   35 1   
    29   20   22 1   
    30   20   36 1   
    31   20   37 1   
    32   21   22 1   
    33   21   38 1   
    34   21   39 1   
    35   22   23 1   
    36   22   40 1   
    37   23   41 1   
    38   23   42 1   
@<TRIPOS>SUBSTRUCTURE
     1 2HW         1 TEMP              0 ****  ****    0 ROOT
