@<TRIPOS>MOLECULE
2HX
   55    50     1     0     0
SMALL
bcc


@<TRIPOS>ATOM
      1 C1         -2.3540    2.5800   -2.5090 c3        1 2HX     -0.107000
      2 C2         -0.8540    2.4260   -2.5050 c3        1 2HX     -0.058000
      3 N3         -0.2890    2.4050   -1.1190 n3        1 2HX     -0.246000
      4 C4         -0.7430    3.5670   -0.2920 c3        1 2HX     -0.057000
      5 C5         -2.2330    3.7250   -0.2930 c3        1 2HX     -0.063000
      6 C6         -2.8080    3.7500   -1.6800 c3        1 2HX      0.036000
      7 C7          1.1870    2.3880   -1.1810 c2        1 2HX      0.019000
      8 C8          1.8530    3.4830   -1.5810 c1        1 2HX     -0.196000
      9 C9          3.2640    3.4640   -1.6560 c1        1 2HX     -0.085000
     10 N10         3.9470    2.3410   -1.3240 n1        1 2HX     -0.125000
     11 C11         3.2730    1.2280   -0.9180 c1        1 2HX     -0.079000
     12 C12         1.8810    1.2440   -0.8430 c2        1 2HX      0.023000
     13 N13         1.1660    0.0770   -0.3960 n         1 2HX     -0.292000
     14 C14        -2.8510    2.7740   -3.9850 c3        1 2HX     -0.209000
     15 C15         1.8380   -1.2410   -0.3710 c2        1 2HX      0.361000
     16 C16         1.0690   -2.4790    0.0760 c2        1 2HX     -0.079000
     17 O17         2.9710   -1.3400   -0.7190 o         1 2HX     -0.353000
     18 C18        -0.1970   -2.7200   -0.4390 c2        1 2HX     -0.090000
     19 C19        -1.0210   -3.6460    0.1650 c1        1 2HX     -0.143000
     20 C20        -0.5880   -4.3290    1.2750 c1        1 2HX      0.091000
     21 C21         0.6920   -4.0850    1.7930 c1        1 2HX     -0.005000
     22 N22         1.5050   -3.1700    1.1960 n2        1 2HX     -0.090000
     23 C23         1.2290   -4.9470    2.9620 c1        1 2HX     -0.117000
     24 F24        -1.3470   -5.2730    1.8050 f         1 2HX     -0.081000
     25 N25        -2.5770    4.9830    0.3860 n3        1 2HX     -0.349000
     26 C26         0.8870   -4.6330    4.2520 c1        1 2HX      0.146000
     27 C27         1.3600   -5.4100    5.3060 c1        1 2HX     -0.184000
     28 C28         2.1660   -6.4880    5.0520 c1        1 2HX     -0.125500
     29 C29         2.5080   -6.8010    3.7580 c1        1 2HX     -0.125500
     30 C30         2.0370   -6.0280    2.7090 c1        1 2HX      0.149000
     31 F31         2.3730   -6.3200    1.4790 f         1 2HX     -0.091000
     32 F32         0.1060   -3.6000    4.4940 f         1 2HX     -0.092000
     33 O33        -4.2510    3.7330   -1.5860 oh        1 2HX     -0.330000
     34 H1         -2.7510    1.7690   -2.1490 hc        1 2HX      0.117000
     35 H2         -0.4450    3.2030   -3.0150 h1        1 2HX      0.084500
     36 H3         -0.6320    1.6380   -2.9340 h1        1 2HX      0.084500
     37 H4         -0.3410    4.3800   -0.6430 h1        1 2HX      0.085000
     38 H5         -0.4510    3.4410    0.6010 h1        1 2HX      0.085000
     39 H6         -2.6510    2.9450    0.2230 h1        1 2HX      0.083000
     40 H7         -2.5240    4.5920   -2.1300 h1        1 2HX      0.087000
     41 H8          1.3780    4.2660   -1.8120 ha        1 2HX      0.145000
     42 H9          3.7590    4.2800   -1.9530 ha        1 2HX      0.161000
     43 H10         3.7610    0.4310   -0.6810 ha        1 2HX      0.195000
     44 H11         0.2580    0.1350   -0.2120 hn        1 2HX      0.268000
     45 H12        -2.6050    3.7240   -4.3120 hc        1 2HX      0.081333
     46 H13        -3.8170    2.6610   -4.0160 hc        1 2HX      0.081333
     47 H14        -2.4030    2.0720   -4.5930 hc        1 2HX      0.081333
     48 H15        -0.5080   -2.2270   -1.2370 ha        1 2HX      0.178000
     49 H16        -1.9640   -3.8250   -0.2190 ha        1 2HX      0.164000
     50 H17        -1.9910    5.1350    1.0530 hn        1 2HX      0.149500
     51 H18        -3.4080    4.9260    0.7260 hn        1 2HX      0.149500
     52 H20         1.1250   -5.1930    6.1960 ha        1 2HX      0.158000
     53 H21         2.5030   -7.0430    5.8010 ha        1 2HX      0.153000
     54 H22         3.0690   -7.5530    3.5810 ha        1 2HX      0.153000
     55 H23        -4.5640    4.5840   -1.5870 ho        1 2HX      0.204000
@<TRIPOS>BOND
     1    1    2 1   
     2    1    6 1   
     3    1   14 1   
     4    1   34 1   
     5    2    3 1   
     6    2   35 1   
     7    2   36 1   
     8    3    4 1   
     9    3    7 1   
    10    4    5 1   
    11    4   37 1   
    12    4   38 1   
    13    5    6 1   
    14    5   25 1   
    15    5   39 1   
    16    6   33 1   
    17    6   40 1   
    18    7    8 1   
    19    7   12 1   
    20    8   41 1   
    21    9   10 1   
    22    9   42 1   
    23   11   12 1   
    24   11   43 1   
    25   12   13 1   
    26   13   15 1   
    27   13   44 1   
    28   14   45 1   
    29   14   46 1   
    30   14   47 1   
    31   15   16 1   
    32   15   17 1   
    33   16   18 1   
    34   16   22 1   
    35   18   19 1   
    36   18   48 1   
    37   19   49 1   
    38   20   21 1   
    39   21   22 1   
    40   23   30 1   
    41   25   50 1   
    42   25   51 1   
    43   26   27 1   
    44   26   32 1   
    45   27   52 1   
    46   28   29 1   
    47   28   53 1   
    48   29   54 1   
    49   30   31 1   
    50   33   55 1   
@<TRIPOS>SUBSTRUCTURE
     1 2HX         1 TEMP              0 ****  ****    0 ROOT
