@<TRIPOS>MOLECULE
2HX
   57    60     1     0     0
SMALL
bcc


@<TRIPOS>ATOM
      1 C1          0.8810    0.6670   -1.1710 c3        1 2HX     -0.093700
      2 C2          1.8280    0.1520   -0.0800 c3        1 2HX      0.146800
      3 N3          1.4240    0.5570    1.2710 nh        1 2HX     -0.643000
      4 C4          1.2810    2.0050    1.4020 c3        1 2HX      0.149800
      5 C5          0.2560    2.5370    0.3730 c3        1 2HX      0.109500
      6 C6          0.7330    2.1860   -1.0620 c3        1 2HX      0.133100
      7 C7          2.2710   -0.0040    2.2860 ca        1 2HX      0.149600
      8 C8          3.5300    0.5290    2.6150 ca        1 2HX     -0.267300
      9 C9          4.2850   -0.0530    3.6500 ca        1 2HX      0.474200
     10 N10         3.8630   -1.1100    4.3670 nb        1 2HX     -0.609000
     11 C11         2.6700   -1.6430    4.0660 ca        1 2HX      0.457200
     12 C12         1.8360   -1.1430    3.0270 ca        1 2HX     -0.165700
     13 N13         0.5620   -1.8020    2.7630 n4        1 2HX     -0.525200
     14 C14         1.4350    0.2750   -2.5250 c3        1 2HX     -0.110100
     15 C15         0.7310   -3.0490    1.8950 c         1 2HX      0.490600
     16 C16         0.7580   -4.3540    2.5760 ca        1 2HX      0.263800
     17 O17         0.8070   -2.8350    0.6930 o         1 2HX     -0.449100
     18 C18         1.0120   -5.4920    1.7850 ca        1 2HX     -0.095300
     19 C19         1.0450   -6.7380    2.4120 ca        1 2HX     -0.150000
     20 C20         0.8240   -6.8120    3.7980 ca        1 2HX      0.137600
     21 C21         0.5550   -5.5930    4.5340 cp        1 2HX      0.479800
     22 N22         0.5260   -4.4060    3.9190 nb        1 2HX     -0.657000
     23 C23         0.3290   -5.6500    5.9870 cp        1 2HX     -0.275500
     24 F24         0.8650   -7.9920    4.4290 f         1 2HX     -0.063900
     25 N25         0.0410    4.0150    0.5120 n4        1 2HX     -0.834600
     26 C26        -0.7280   -6.4140    6.5330 ca        1 2HX      0.182900
     27 C27        -0.9120   -6.4900    7.9260 ca        1 2HX     -0.167500
     28 C28        -0.0510   -5.8010    8.7740 ca        1 2HX     -0.043000
     29 C29         0.9850   -5.0230    8.2640 ca        1 2HX     -0.167500
     30 C30         1.1690   -4.9380    6.8740 ca        1 2HX      0.182900
     31 F31         2.1720   -4.1690    6.3830 f         1 2HX     -0.130900
     32 F32        -1.5730   -7.0780    5.7130 f         1 2HX     -0.130900
     33 O33        -0.2650    2.7190   -1.9140 oh        1 2HX     -0.627800
     34 H1         -0.1350    0.1980   -1.0440 hc        1 2HX      0.086700
     35 H2          2.8770    0.5010   -0.3120 h1        1 2HX      0.080200
     36 H3          1.8230   -0.9760   -0.1100 h1        1 2HX      0.080200
     37 H4          0.9170    2.2230    2.4460 h1        1 2HX      0.067700
     38 H5          2.2610    2.5460    1.2480 h1        1 2HX      0.067700
     39 H6         -0.7560    2.0550    0.5390 hx        1 2HX      0.132700
     40 H7          1.7180    2.6880   -1.2830 h1        1 2HX      0.068700
     41 H8          3.9440    1.3910    2.0690 ha        1 2HX      0.169000
     42 H9          5.2850    0.3470    3.9220 h4        1 2HX      0.074100
     43 H10         2.3710   -2.5130    4.6940 h4        1 2HX      0.081100
     44 H11         0.1340   -2.0600    3.6650 hn        1 2HX      0.475800
     45 H12         2.3920    0.8090   -2.7400 hc        1 2HX      0.066033
     46 H13         1.6300   -0.8260   -2.5540 hc        1 2HX      0.066033
     47 H14         0.7010    0.5120   -3.3340 hc        1 2HX      0.066033
     48 H15         1.1810   -5.4010    0.6990 ha        1 2HX      0.186000
     49 H16         1.2460   -7.6570    1.8340 ha        1 2HX      0.200000
     50 H17        -0.3950    4.2320    1.4120 hn        1 2HX      0.472467
     51 H18        -0.5790    4.3200   -0.2570 hn        1 2HX      0.472467
     52 H20        -1.7370   -7.1010    8.3280 ha        1 2HX      0.176500
     53 H21        -0.1910   -5.8720    9.8670 ha        1 2HX      0.172000
     54 H22         1.6660   -4.4780    8.9360 ha        1 2HX      0.176500
     55 H23        -0.1610    2.3270   -2.7940 ho        1 2HX      0.465000
     56 H132       -0.0670   -1.1530    2.2720 hn        1 2HX      0.475800
     57 H253        0.9290    4.5180    0.4340 hn        1 2HX      0.472467
@<TRIPOS>BOND
     1    1    2 1   
     2    1    6 1   
     3    1   14 1   
     4    1   34 1   
     5    2    3 1   
     6    2   35 1   
     7    2   36 1   
     8    3    4 1   
     9    3    7 1   
    10    4    5 1   
    11    4   37 1   
    12    4   38 1   
    13    5    6 1   
    14    5   25 1   
    15    5   39 1   
    16    6   33 1   
    17    6   40 1   
    18    7    8 ar  
    19    7   12 ar  
    20    8    9 ar  
    21    8   41 1   
    22    9   10 ar  
    23    9   42 1   
    24   10   11 ar  
    25   11   12 ar  
    26   11   43 1   
    27   12   13 1   
    28   13   15 1   
    29   13   44 1   
    30   13   56 1   
    31   14   45 1   
    32   14   46 1   
    33   14   47 1   
    34   15   16 1   
    35   15   17 2   
    36   16   18 ar  
    37   16   22 ar  
    38   18   19 ar  
    39   18   48 1   
    40   19   20 ar  
    41   19   49 1   
    42   20   21 ar  
    43   20   24 1   
    44   21   22 ar  
    45   21   23 1   
    46   23   26 ar  
    47   23   30 ar  
    48   25   50 1   
    49   25   51 1   
    50   25   57 1   
    51   26   27 ar  
    52   26   32 1   
    53   27   28 ar  
    54   27   52 1   
    55   28   29 ar  
    56   28   53 1   
    57   29   30 ar  
    58   29   54 1   
    59   30   31 1   
    60   33   55 1   
@<TRIPOS>SUBSTRUCTURE
     1 2HX         1 TEMP              0 ****  ****    0 ROOT
