@<TRIPOS>MOLECULE
2HX
   55    58     1     0     0
SMALL
bcc


@<TRIPOS>ATOM
      1 C1         -3.0890    2.3620    1.6450 c3        1 2HX     -0.064700
      2 C2         -3.7780    1.0130    1.4040 c3        1 2HX      0.178800
      3 N3         -2.9960    0.1520    0.5290 nh        1 2HX     -0.638000
      4 C4         -2.7270    0.7660   -0.7620 c3        1 2HX      0.145800
      5 C5         -1.9750    2.1180   -0.6160 c3        1 2HX      0.124500
      6 C6         -2.7920    3.0550    0.3090 c3        1 2HX      0.157100
      7 C7         -3.4490   -1.1980    0.4460 ca        1 2HX      0.102600
      8 C8         -4.8060   -1.5520    0.5820 ca        1 2HX     -0.262300
      9 C9         -5.1800   -2.9010    0.5390 ca        1 2HX      0.382200
     10 N10        -4.3040   -3.9070    0.3610 nb        1 2HX     -0.651000
     11 C11        -3.0090   -3.5920    0.2360 ca        1 2HX      0.389200
     12 C12        -2.5000   -2.2600    0.2800 ca        1 2HX     -0.053700
     13 N13        -1.1240   -1.9950    0.2070 n         1 2HX     -0.439100
     14 C14        -3.9740    3.2310    2.5100 c3        1 2HX     -0.090100
     15 C15        -0.1930   -2.7890   -0.4350 c         1 2HX      0.576600
     16 C16         1.2420   -2.3090   -0.4500 ca        1 2HX      0.338800
     17 O17        -0.4680   -3.8840   -0.9610 o         1 2HX     -0.592100
     18 C18         2.2380   -3.3070   -0.5300 ca        1 2HX     -0.155300
     19 C19         3.5720   -2.9180   -0.5670 ca        1 2HX     -0.143000
     20 C20         3.8800   -1.5440   -0.5280 ca        1 2HX      0.060600
     21 C21         2.8090   -0.5980   -0.4580 cp        1 2HX      0.431800
     22 N22         1.5170   -0.9870   -0.4170 nb        1 2HX     -0.619000
     23 C23         3.0980    0.8460   -0.4100 cp        1 2HX     -0.226500
     24 F24         5.1650   -1.1380   -0.5560 f         1 2HX     -0.114900
     25 N25        -1.6840    2.7460   -1.8890 n3        1 2HX     -0.914800
     26 C26         2.9260    1.5660    0.7920 ca        1 2HX      0.181400
     27 C27         3.1920    2.9470    0.8470 ca        1 2HX     -0.183000
     28 C28         3.6190    3.6110   -0.2980 ca        1 2HX     -0.066000
     29 C29         3.7850    2.9290   -1.4990 ca        1 2HX     -0.183000
     30 C30         3.5200    1.5480   -1.5600 ca        1 2HX      0.181400
     31 F31         3.6740    0.8990   -2.7370 f         1 2HX     -0.126400
     32 F32         2.5080    0.9290    1.9100 f         1 2HX     -0.126400
     33 O33        -2.0590    4.2280    0.6280 oh        1 2HX     -0.602800
     34 H1         -2.1110    2.1960    2.1750 hc        1 2HX      0.077700
     35 H2         -3.9020    0.4870    2.3920 h1        1 2HX      0.041700
     36 H3         -4.8080    1.2120    0.9840 h1        1 2HX      0.041700
     37 H4         -2.0930    0.0600   -1.3660 h1        1 2HX      0.039700
     38 H5         -3.6840    0.9440   -1.3360 h1        1 2HX      0.039700
     39 H6         -0.9840    1.9260   -0.1060 h1        1 2HX      0.086700
     40 H7         -3.7570    3.3460   -0.1950 h1        1 2HX      0.031700
     41 H8         -5.5780   -0.7820    0.7200 ha        1 2HX      0.145000
     42 H9         -6.2390   -3.1960    0.6470 h4        1 2HX      0.024100
     43 H10        -2.3240   -4.4500    0.0820 h4        1 2HX      0.057100
     44 H11        -0.8310   -1.1030    0.5510 hn        1 2HX      0.353500
     45 H12        -4.1400    2.7480    3.5030 hc        1 2HX      0.042033
     46 H13        -3.4840    4.2230    2.6670 hc        1 2HX      0.042033
     47 H14        -4.9660    3.3990    2.0260 hc        1 2HX      0.042033
     48 H15         1.9460   -4.3680   -0.5750 ha        1 2HX      0.178000
     49 H16         4.3820   -3.6600   -0.6260 ha        1 2HX      0.165000
     50 H17        -1.0200    2.2030   -2.4030 hn        1 2HX      0.354800
     51 H18        -2.5160    2.8560   -2.4360 hn        1 2HX      0.354800
     52 H20         3.0520    3.4860    1.7950 ha        1 2HX      0.159000
     53 H21         3.8240    4.6920   -0.2540 ha        1 2HX      0.148000
     54 H22         4.1180    3.4540   -2.4060 ha        1 2HX      0.159000
     55 H23        -1.7560    4.6150   -0.2030 ho        1 2HX      0.419000
@<TRIPOS>BOND
     1    1    2 1   
     2    1    6 1   
     3    1   14 1   
     4    1   34 1   
     5    2    3 1   
     6    2   35 1   
     7    2   36 1   
     8    3    4 1   
     9    3    7 1   
    10    4    5 1   
    11    4   37 1   
    12    4   38 1   
    13    5    6 1   
    14    5   25 1   
    15    5   39 1   
    16    6   33 1   
    17    6   40 1   
    18    7    8 ar  
    19    7   12 ar  
    20    8    9 ar  
    21    8   41 1   
    22    9   10 ar  
    23    9   42 1   
    24   10   11 ar  
    25   11   12 ar  
    26   11   43 1   
    27   12   13 1   
    28   13   15 1   
    29   13   44 1   
    30   14   45 1   
    31   14   46 1   
    32   14   47 1   
    33   15   16 1   
    34   15   17 2   
    35   16   18 ar  
    36   16   22 ar  
    37   18   19 ar  
    38   18   48 1   
    39   19   20 ar  
    40   19   49 1   
    41   20   21 ar  
    42   20   24 1   
    43   21   22 ar  
    44   21   23 1   
    45   23   26 ar  
    46   23   30 ar  
    47   25   50 1   
    48   25   51 1   
    49   26   27 ar  
    50   26   32 1   
    51   27   28 ar  
    52   27   52 1   
    53   28   29 ar  
    54   28   53 1   
    55   29   30 ar  
    56   29   54 1   
    57   30   31 1   
    58   33   55 1   
@<TRIPOS>SUBSTRUCTURE
     1 2HX         1 TEMP              0 ****  ****    0 ROOT
