@<TRIPOS>MOLECULE
2HX
   56    59     1     0     0
SMALL
bcc


@<TRIPOS>ATOM
      1 C1         -0.0600    0.4290    0.2570 c3        1 2HX     -0.093700
      2 C2          1.4360    0.6120   -0.0650 c3        1 2HX      0.188800
      3 N3          2.2740   -0.0820    0.8960 nh        1 2HX     -0.665000
      4 C4          2.0450    0.3720    2.2510 c3        1 2HX      0.171800
      5 C5          0.6030   -0.0550    2.6280 c3        1 2HX      0.067500
      6 C6         -0.3680    0.7500    1.7250 c3        1 2HX      0.131100
      7 C7          3.6210   -0.3580    0.5500 ca        1 2HX      0.154600
      8 C8          4.3640    0.4720   -0.3120 ca        1 2HX     -0.276300
      9 C9          5.6860    0.1230   -0.6280 ca        1 2HX      0.431200
     10 N10         6.3040   -0.9690   -0.1430 nb        1 2HX     -0.645000
     11 C11         5.6030   -1.7740    0.6700 ca        1 2HX      0.434200
     12 C12         4.2510   -1.5440    1.0440 ca        1 2HX     -0.098700
     13 N13         3.5690   -2.4990    1.8320 n         1 2HX     -0.460100
     14 C14        -0.8810    1.3160   -0.6530 c3        1 2HX     -0.104100
     15 C15         3.4840   -2.4470    3.2040 c         1 2HX      0.573600
     16 C16         2.6510   -3.5240    3.8590 ca        1 2HX      0.331800
     17 O17         4.0390   -1.5770    3.9020 o         1 2HX     -0.593100
     18 C18         3.3140   -4.6110    4.4610 ca        1 2HX     -0.158300
     19 C19         2.5520   -5.5700    5.1190 ca        1 2HX     -0.121000
     20 C20         1.1510   -5.4180    5.1490 ca        1 2HX      0.072600
     21 C21         0.5580   -4.2890    4.4980 cp        1 2HX      0.424800
     22 N22         1.3110   -3.3530    3.8750 nb        1 2HX     -0.671000
     23 C23        -0.9060   -4.1330    4.5040 cp        1 2HX     -0.222500
     24 F24         0.3890   -6.3260    5.7860 f         1 2HX     -0.099900
     25 N25         0.3230    0.1370    4.0810 n4        1 2HX     -0.823600
     26 C26        -1.7420   -5.1140    3.9210 ca        1 2HX      0.164400
     27 C27        -3.1440   -4.9920    3.9800 ca        1 2HX     -0.170500
     28 C28        -3.7170   -3.8940    4.6090 ca        1 2HX     -0.061000
     29 C29        -2.9210   -2.8980    5.1680 ca        1 2HX     -0.170500
     30 C30        -1.5220   -3.0120    5.1020 ca        1 2HX      0.164400
     31 F31        -0.7600   -2.0170    5.6290 f         1 2HX     -0.143400
     32 F32        -1.2000   -6.1840    3.2990 f         1 2HX     -0.143400
     33 O33        -1.6910    0.4430    2.1200 oh        1 2HX     -0.614800
     34 H1         -0.3370   -0.6480    0.0700 hc        1 2HX      0.073700
     35 H2          1.6370    0.1850   -1.0870 h1        1 2HX      0.064200
     36 H3          1.6650    1.7180   -0.0960 h1        1 2HX      0.064200
     37 H4          2.1200    1.4970    2.3380 h1        1 2HX      0.075700
     38 H5          2.8030   -0.0760    2.9520 h1        1 2HX      0.075700
     39 H6          0.4560   -1.1620    2.4290 hx        1 2HX      0.138700
     40 H7         -0.2470    1.8560    1.9150 h1        1 2HX      0.086700
     41 H8          3.9260    1.3860   -0.7380 ha        1 2HX      0.153000
     42 H9          6.2910    0.7580   -1.3030 h4        1 2HX      0.044100
     43 H10         6.1480   -2.6630    1.0460 h4        1 2HX      0.044100
     44 H11         3.0110   -3.1560    1.3340 hn        1 2HX      0.339500
     45 H12        -0.5970    2.3890   -0.5290 hc        1 2HX      0.057700
     46 H13        -1.9690    1.2100   -0.4180 hc        1 2HX      0.057700
     47 H14        -0.7170    1.0270   -1.7190 hc        1 2HX      0.057700
     48 H15         4.4120   -4.6870    4.4200 ha        1 2HX      0.177000
     49 H16         3.0210   -6.4350    5.6140 ha        1 2HX      0.182000
     50 H17        -0.6890    0.0330    4.2370 hn        1 2HX      0.465800
     51 H18         0.8190   -0.5820    4.6250 hn        1 2HX      0.465800
     52 H20        -3.7700   -5.7790    3.5300 ha        1 2HX      0.168000
     53 H21        -4.8160   -3.8100    4.6690 ha        1 2HX      0.164000
     54 H22        -3.3750   -2.0310    5.6710 ha        1 2HX      0.168000
     55 H23        -2.0790   -0.1650    1.4760 ho        1 2HX      0.436000
     56 H253        0.6200    1.0650    4.3890 hn        1 2HX      0.465800
@<TRIPOS>BOND
     1    1    2 1   
     2    1    6 1   
     3    1   14 1   
     4    1   34 1   
     5    2    3 1   
     6    2   35 1   
     7    2   36 1   
     8    3    4 1   
     9    3    7 1   
    10    4    5 1   
    11    4   37 1   
    12    4   38 1   
    13    5    6 1   
    14    5   25 1   
    15    5   39 1   
    16    6   33 1   
    17    6   40 1   
    18    7    8 ar  
    19    7   12 ar  
    20    8    9 ar  
    21    8   41 1   
    22    9   10 ar  
    23    9   42 1   
    24   10   11 ar  
    25   11   12 ar  
    26   11   43 1   
    27   12   13 1   
    28   13   15 1   
    29   13   44 1   
    30   14   45 1   
    31   14   46 1   
    32   14   47 1   
    33   15   16 1   
    34   15   17 2   
    35   16   18 ar  
    36   16   22 ar  
    37   18   19 ar  
    38   18   48 1   
    39   19   20 ar  
    40   19   49 1   
    41   20   21 ar  
    42   20   24 1   
    43   21   22 ar  
    44   21   23 1   
    45   23   26 ar  
    46   23   30 ar  
    47   25   50 1   
    48   25   51 1   
    49   25   56 1   
    50   26   27 ar  
    51   26   32 1   
    52   27   28 ar  
    53   27   52 1   
    54   28   29 ar  
    55   28   53 1   
    56   29   30 ar  
    57   29   54 1   
    58   30   31 1   
    59   33   55 1   
@<TRIPOS>SUBSTRUCTURE
     1 2HX         1 TEMP              0 ****  ****    0 ROOT
