@<TRIPOS>MOLECULE
2HX
   56    59     1     0     0
SMALL
bcc


@<TRIPOS>ATOM
      1 C1         -0.0340    0.4310    0.2480 c3        1 2HX     -0.093700
      2 C2          1.4650    0.5940   -0.0750 c3        1 2HX      0.188800
      3 N3          2.2950   -0.1060    0.8890 nh        1 2HX     -0.665000
      4 C4          2.0710    0.3560    2.2420 c3        1 2HX      0.171800
      5 C5          0.6240   -0.0520    2.6210 c3        1 2HX      0.067500
      6 C6         -0.3370    0.7620    1.7150 c3        1 2HX      0.131100
      7 C7          3.6380   -0.4010    0.5440 ca        1 2HX      0.154600
      8 C8          4.3910    0.4160   -0.3210 ca        1 2HX     -0.276300
      9 C9          5.7090    0.0500   -0.6360 ca        1 2HX      0.431200
     10 N10         6.3130   -1.0480   -0.1460 nb        1 2HX     -0.645000
     11 C11         5.6030   -1.8410    0.6700 ca        1 2HX      0.434200
     12 C12         4.2530   -1.5920    1.0430 ca        1 2HX     -0.098700
     13 N13         3.5600   -2.5350    1.8350 ns        1 2HX     -0.460100
     14 C14        -0.8430    1.3240   -0.6660 c3        1 2HX     -0.104100
     15 C15         3.4750   -2.4760    3.2070 c         1 2HX      0.573600
     16 C16         2.6290   -3.5410    3.8670 ca        1 2HX      0.331800
     17 O17         4.0410   -1.6110    3.9010 o         1 2HX     -0.593100
     18 C18         3.2800   -4.6330    4.4730 ca        1 2HX     -0.158300
     19 C19         2.5050   -5.5790    5.1340 ca        1 2HX     -0.121000
     20 C20         1.1060   -5.4100    5.1640 ca        1 2HX      0.072600
     21 C21         0.5280   -4.2760    4.5100 cp        1 2HX      0.424800
     22 N22         1.2920   -3.3520    3.8820 nb        1 2HX     -0.671000
     23 C23        -0.9350   -4.1010    4.5160 cp        1 2HX     -0.222500
     24 F24         0.3330   -6.3060    5.8050 f         1 2HX     -0.099900
     25 N25         0.3470    0.1500    4.0730 nz        1 2HX     -0.823600
     26 C26        -1.7830   -5.0740    3.9370 ca        1 2HX      0.164400
     27 C27        -3.1830   -4.9350    3.9950 ca        1 2HX     -0.170500
     28 C28        -3.7430   -3.8270    4.6210 ca        1 2HX     -0.061000
     29 C29        -2.9330   -2.8390    5.1750 ca        1 2HX     -0.170500
     30 C30        -1.5360   -2.9710    5.1090 ca        1 2HX      0.164400
     31 F31        -0.7610   -1.9830    5.6320 f         1 2HX     -0.143400
     32 F32        -1.2550   -6.1530    3.3180 f         1 2HX     -0.143400
     33 O33        -1.6640    0.4730    2.1100 oh        1 2HX     -0.614800
     34 H1         -0.3230   -0.6430    0.0650 hc        1 2HX      0.073700
     35 H2          1.6610    0.1600   -1.0950 h1        1 2HX      0.064200
     36 H3          1.7080    1.6970   -0.1100 h1        1 2HX      0.064200
     37 H4          2.1600    1.4810    2.3250 h1        1 2HX      0.075700
     38 H5          2.8240   -0.0980    2.9440 h1        1 2HX      0.075700
     39 H6          0.4640   -1.1580    2.4260 hx        1 2HX      0.138700
     40 H7         -0.2030    1.8670    1.9000 h1        1 2HX      0.086700
     41 H8          3.9640    1.3340   -0.7520 ha        1 2HX      0.153000
     42 H9          6.3210    0.6750   -1.3140 h4        1 2HX      0.044100
     43 H10         6.1360   -2.7340    1.0500 h4        1 2HX      0.044100
     44 H11         2.9940   -3.1880    1.3400 hn        1 2HX      0.339500
     45 H12        -0.6820    1.0290   -1.7310 hc        1 2HX      0.057700
     46 H13        -1.9320    1.2330   -0.4300 hc        1 2HX      0.057700
     47 H14        -0.5460    2.3940   -0.5460 hc        1 2HX      0.057700
     48 H15         4.3760   -4.7230    4.4310 ha        1 2HX      0.177000
     49 H16         2.9630   -6.4490    5.6330 ha        1 2HX      0.182000
     50 H17        -0.6670    0.0580    4.2290 hn        1 2HX      0.465800
     51 H18         0.8340   -0.5730    4.6190 hn        1 2HX      0.465800
     52 H20        -3.8200   -5.7150    3.5480 ha        1 2HX      0.168000
     53 H21        -4.8400   -3.7290    4.6800 ha        1 2HX      0.164000
     54 H22        -3.3760   -1.9650    5.6750 ha        1 2HX      0.168000
     55 H23        -2.0590   -0.1330    1.4690 ho        1 2HX      0.436000
     56 H253        0.6550    1.0750    4.3770 hn        1 2HX      0.465800
@<TRIPOS>BOND
     1    1    2 1   
     2    1    6 1   
     3    1   14 1   
     4    1   34 1   
     5    2    3 1   
     6    2   35 1   
     7    2   36 1   
     8    3    4 1   
     9    3    7 1   
    10    4    5 1   
    11    4   37 1   
    12    4   38 1   
    13    5    6 1   
    14    5   25 1   
    15    5   39 1   
    16    6   33 1   
    17    6   40 1   
    18    7    8 ar  
    19    7   12 ar  
    20    8    9 ar  
    21    8   41 1   
    22    9   10 ar  
    23    9   42 1   
    24   10   11 ar  
    25   11   12 ar  
    26   11   43 1   
    27   12   13 1   
    28   13   15 1   
    29   13   44 1   
    30   14   45 1   
    31   14   46 1   
    32   14   47 1   
    33   15   16 1   
    34   15   17 2   
    35   16   18 ar  
    36   16   22 ar  
    37   18   19 ar  
    38   18   48 1   
    39   19   20 ar  
    40   19   49 1   
    41   20   21 ar  
    42   20   24 1   
    43   21   22 ar  
    44   21   23 1   
    45   23   26 ar  
    46   23   30 ar  
    47   25   50 1   
    48   25   51 1   
    49   25   56 1   
    50   26   27 ar  
    51   26   32 1   
    52   27   28 ar  
    53   27   52 1   
    54   28   29 ar  
    55   28   53 1   
    56   29   30 ar  
    57   29   54 1   
    58   30   31 1   
    59   33   55 1   
@<TRIPOS>SUBSTRUCTURE
     1 2HX         1 TEMP              0 ****  ****    0 ROOT
