@<TRIPOS>MOLECULE
2HY
   50    52     1     0     0
SMALL
bcc


@<TRIPOS>ATOM
      1 C1          0.6840    0.4760   -1.4520 c         1 2HY      0.796500
      2 F1          6.2600    1.8530   -1.3760 f         1 2HY     -0.233967
      3 N1          1.0680    0.0300   -0.1460 n         1 2HY     -0.306200
      4 O1          1.4720    1.1440   -2.1530 o         1 2HY     -0.630500
      5 C2         -1.6120   -0.3560   -1.0520 c3        1 2HY      0.203200
      6 F2          5.9930   -0.2920   -1.5480 f         1 2HY     -0.233967
      7 N2         -0.5630    0.0840   -1.9500 n         1 2HY     -0.524900
      8 O2         -1.7190   -2.6180    1.9020 o         1 2HY     -0.559000
      9 C3         -1.0430   -1.0780    0.1450 ce        1 2HY     -0.284400
     10 F3          7.1110    0.5320    0.1160 f         1 2HY     -0.233967
     11 N3         -5.9470    4.6240    0.9620 n1        1 2HY     -0.356800
     12 O3         -3.0350   -2.3810    0.1200 os        1 2HY     -0.446900
     13 C4          0.2480   -0.8570    0.5620 c2        1 2HY      0.165400
     14 C5          2.3070    0.4800    0.3910 ca        1 2HY      0.038600
     15 C6          3.4950    0.3730   -0.3590 ca        1 2HY     -0.059000
     16 C7          4.6940    0.8340    0.1850 ca        1 2HY     -0.159300
     17 C8          4.7390    1.3990    1.4600 ca        1 2HY     -0.079000
     18 C9          3.5620    1.5090    2.1990 ca        1 2HY     -0.128000
     19 C10         2.3520    1.0620    1.6770 ca        1 2HY     -0.110000
     20 C11         5.9760    0.7330   -0.6350 c3        1 2HY      0.689200
     21 C13        -2.5370    0.7600   -0.6000 ca        1 2HY     -0.099300
     22 C14        -3.9090    0.4990   -0.5160 ca        1 2HY     -0.122500
     23 C15        -4.7950    1.4940   -0.1100 ca        1 2HY     -0.091000
     24 C16        -4.3100    2.7690    0.2140 ca        1 2HY     -0.012000
     25 C17        -2.9360    3.0350    0.1320 ca        1 2HY     -0.091000
     26 C18        -2.0580    2.0320   -0.2720 ca        1 2HY     -0.122500
     27 C19        -5.2100    3.7890    0.6250 cg        1 2HY      0.230800
     28 C20        -1.8950   -2.0550    0.8140 c         1 2HY      0.669300
     29 C21        -3.8660   -3.3950    0.7120 c3        1 2HY      0.137400
     30 C22        -5.0060   -3.6300   -0.2720 c3        1 2HY      0.126400
     31 C23         0.7950   -1.5800    1.7500 c3        1 2HY     -0.090900
     32 O33        -4.6300   -4.7240   -1.0900 oh        1 2HY     -0.596800
     33 H2         -2.2340   -1.0980   -1.6510 h1        1 2HY      0.100700
     34 HN2        -0.8570    0.5750   -2.7680 hn        1 2HY      0.334500
     35 H6          3.4810   -0.0470   -1.3810 ha        1 2HY      0.178000
     36 H8          5.6970    1.7520    1.8740 ha        1 2HY      0.157000
     37 H9          3.5880    1.9580    3.2040 ha        1 2HY      0.149000
     38 H10         1.4320    1.1570    2.2760 ha        1 2HY      0.148000
     39 H14        -4.2870   -0.5090   -0.7560 ha        1 2HY      0.146500
     40 H15        -5.8720    1.2810   -0.0440 ha        1 2HY      0.148000
     41 H17        -2.5510    4.0350    0.3870 ha        1 2HY      0.148000
     42 H18        -0.9810    2.2560   -0.3270 ha        1 2HY      0.146500
     43 H21        -3.2600   -4.3250    0.8690 h1        1 2HY      0.070200
     44 H21A       -4.2510   -3.0160    1.6930 h1        1 2HY      0.070200
     45 H22        -5.9400   -3.8860    0.2970 h1        1 2HY      0.036200
     46 H22A       -5.1860   -2.7140   -0.8960 h1        1 2HY      0.036200
     47 H23         1.8910   -1.4280    1.9000 hc        1 2HY      0.080033
     48 H23A        0.2490   -1.2410    2.6680 hc        1 2HY      0.080033
     49 H23B        0.6010   -2.6780    1.6310 hc        1 2HY      0.080033
     50 HO33       -5.2950   -4.7950   -1.7850 ho        1 2HY      0.405000
@<TRIPOS>BOND
     1    1    3 1   
     2    1    4 2   
     3    1    7 1   
     4    2   20 1   
     5    3   13 1   
     6    3   14 1   
     7    5    7 1   
     8    5    9 1   
     9    5   21 1   
    10    5   33 1   
    11    6   20 1   
    12    7   34 1   
    13    8   28 2   
    14    9   13 2   
    15    9   28 1   
    16   10   20 1   
    17   11   27 3   
    18   12   28 1   
    19   12   29 1   
    20   13   31 1   
    21   14   15 ar  
    22   14   19 ar  
    23   15   16 ar  
    24   15   35 1   
    25   16   17 ar  
    26   16   20 1   
    27   17   18 ar  
    28   17   36 1   
    29   18   19 ar  
    30   18   37 1   
    31   19   38 1   
    32   21   22 ar  
    33   21   26 ar  
    34   22   23 ar  
    35   22   39 1   
    36   23   24 ar  
    37   23   40 1   
    38   24   25 ar  
    39   24   27 1   
    40   25   26 ar  
    41   25   41 1   
    42   26   42 1   
    43   29   30 1   
    44   29   43 1   
    45   29   44 1   
    46   30   32 1   
    47   30   45 1   
    48   30   46 1   
    49   31   47 1   
    50   31   48 1   
    51   31   49 1   
    52   32   50 1   
@<TRIPOS>SUBSTRUCTURE
     1 2HY         1 TEMP              0 ****  ****    0 ROOT
