@<TRIPOS>MOLECULE
2HY
   50    47     1     0     0
SMALL
bcc


@<TRIPOS>ATOM
      1 C1         -1.4990   -0.4720   -1.1560 c1        1 2HY      0.386000
      2 F1          2.6130   -2.9020   -4.7800 f         1 2HY     -0.162333
      3 N1         -0.0540   -0.4820   -1.1060 n2        1 2HY     -0.244000
      4 O1         -2.0780   -0.6410   -2.2280 o         1 2HY     -0.353000
      5 C2         -1.6650   -0.0170    1.1980 c3        1 2HY      0.114000
      6 F2          0.9360   -2.2570   -6.0150 f         1 2HY     -0.162333
      7 N2         -2.1860   -0.6320    0.0340 n3        1 2HY     -0.333000
      8 O2          0.6610   -0.2240    3.6310 o         1 2HY     -0.370000
      9 C3         -0.3180   -0.3360    1.4470 c2        1 2HY     -0.264000
     10 F3          2.9030   -1.3680   -6.2900 f         1 2HY     -0.162333
     11 N3         -1.5740    6.8170   -0.3360 n1        1 2HY     -0.030000
     12 O3         -0.0440   -2.3000    3.0670 os        1 2HY     -0.283000
     13 C4          0.5930   -0.5000    0.2300 c2        1 2HY      0.169000
     14 C5          0.7160   -0.1430   -2.2840 c2        1 2HY      0.045000
     15 C6          1.0060   -1.1320   -3.2400 c2        1 2HY     -0.059000
     16 C7          1.7190   -0.8010   -4.3930 c1        1 2HY     -0.152000
     17 C8          2.1440    0.5120   -4.5990 c1        1 2HY     -0.103000
     18 C9          1.8560    1.4980   -3.6490 c1        1 2HY     -0.103000
     19 C10         1.1390    1.1670   -2.4880 c1        1 2HY     -0.110000
     20 C11         2.0530   -1.8610   -5.3980 c3        1 2HY      0.468000
     21 C13        -1.6000    1.4460    0.8070 c2        1 2HY     -0.094000
     22 C14        -0.6420    2.2760    1.3810 c2        1 2HY     -0.128000
     23 C15        -0.6600    3.6540    1.1190 c1        1 2HY     -0.090000
     24 C16        -1.6360    4.1920    0.2840 c1        1 2HY     -0.007000
     25 C17        -2.5930    3.3640   -0.2900 c1        1 2HY     -0.092000
     26 C18        -2.5760    1.9850   -0.0290 c1        1 2HY     -0.117000
     27 C19        -1.6010    5.6940   -0.0700 c1        1 2HY     -0.100000
     28 C20         0.1020   -0.9250    2.8200 c2        1 2HY      0.368000
     29 C21        -0.6030   -2.6060    4.3490 c3        1 2HY     -0.011000
     30 C22         0.1110   -3.8180    4.9400 c3        1 2HY     -0.050000
     31 C23         2.1180   -0.2390    0.3610 c3        1 2HY     -0.213000
     32 O33        -0.3150   -4.0100    6.2800 oh        1 2HY     -0.327000
     33 H2         -2.2550   -0.0050    1.9780 h1        1 2HY      0.139000
     34 HN2        -3.0600   -0.9450    0.0260 hn        1 2HY      0.249000
     35 H6          0.7070   -2.0590   -3.0970 ha        1 2HY      0.178000
     36 H8          2.6460    0.7430   -5.4120 ha        1 2HY      0.153000
     37 H9          2.1530    2.4150   -3.7930 ha        1 2HY      0.153000
     38 H10         0.9390    1.8520   -1.8270 ha        1 2HY      0.149000
     39 H14         0.0380    1.9010    1.9620 ha        1 2HY      0.140000
     40 H15         0.0050    4.2290    1.5180 ha        1 2HY      0.149000
     41 H17        -3.2700    3.7370   -0.8690 ha        1 2HY      0.149000
     42 H18        -3.2410    1.4100   -0.4280 ha        1 2HY      0.155000
     43 H21        -0.4880   -1.8230    4.9580 h1        1 2HY      0.116500
     44 H21A       -1.5530   -2.8040    4.2500 h1        1 2HY      0.116500
     45 H22        -0.1030   -4.6130    4.4120 h1        1 2HY      0.079000
     46 H22A        1.0690   -3.6660    4.9240 h1        1 2HY      0.079000
     47 H23         2.3370   -0.0170    1.3120 hc        1 2HY      0.119000
     48 H23A        2.3710    0.5090   -0.2150 hc        1 2HY      0.119000
     49 H23B        2.6140   -1.0460    0.0890 hc        1 2HY      0.119000
     50 HO33        0.0660   -4.7560    6.6130 ho        1 2HY      0.207000
@<TRIPOS>BOND
     1    1    4 1   
     2    1    7 1   
     3    2   20 1   
     4    3   13 1   
     5    3   14 1   
     6    5    7 1   
     7    5    9 1   
     8    5   21 1   
     9    5   33 1   
    10    6   20 1   
    11    7   34 1   
    12    8   28 1   
    13    9   13 1   
    14    9   28 1   
    15   10   20 1   
    16   11   27 1   
    17   12   28 1   
    18   12   29 1   
    19   13   31 1   
    20   14   15 1   
    21   14   19 1   
    22   15   16 1   
    23   15   35 1   
    24   16   20 1   
    25   17   18 1   
    26   17   36 1   
    27   18   37 1   
    28   19   38 1   
    29   21   22 1   
    30   21   26 1   
    31   22   23 1   
    32   22   39 1   
    33   23   40 1   
    34   24   25 1   
    35   24   27 1   
    36   25   41 1   
    37   26   42 1   
    38   29   30 1   
    39   29   43 1   
    40   29   44 1   
    41   30   32 1   
    42   30   45 1   
    43   30   46 1   
    44   31   47 1   
    45   31   48 1   
    46   31   49 1   
    47   32   50 1   
@<TRIPOS>SUBSTRUCTURE
     1 2HY         1 TEMP              0 ****  ****    0 ROOT
