@<TRIPOS>MOLECULE
2HY
   50    52     1     0     0
SMALL
bcc


@<TRIPOS>ATOM
      1 C1          0.2260   -0.6780    0.4240 c         1 2HY      0.796500
      2 F1          1.2720   -1.7240   -5.1270 f         1 2HY     -0.233967
      3 N1          1.5900   -0.2560    0.3090 n         1 2HY     -0.306200
      4 O1         -0.4350   -0.9790   -0.5920 o         1 2HY     -0.630500
      5 C2          0.2740   -0.1410    2.8390 c3        1 2HY      0.203200
      6 F2          2.2860   -3.1650   -3.8610 f         1 2HY     -0.233967
      7 N2         -0.3230   -0.8160    1.7030 n         1 2HY     -0.524900
      8 O2          3.7650    0.3330    4.0370 o         1 2HY     -0.559000
      9 C3          1.7720   -0.0390    2.6940 ce        1 2HY     -0.284400
     10 F3          3.4260   -1.9290   -5.2290 f         1 2HY     -0.233967
     11 N3         -2.4410    6.0470    4.2530 n1        1 2HY     -0.356800
     12 O3          1.8640   -0.2030    5.0670 os        1 2HY     -0.446900
     13 C4          2.3720   -0.0860    1.4580 c2        1 2HY      0.165400
     14 C5          2.1330   -0.0520   -0.9910 ca        1 2HY      0.038600
     15 C6          2.0060   -1.0440   -1.9860 ca        1 2HY     -0.059000
     16 C7          2.5350   -0.8130   -3.2550 ca        1 2HY     -0.159300
     17 C8          3.1890    0.3820   -3.5600 ca        1 2HY     -0.079000
     18 C9          3.3090    1.3630   -2.5780 ca        1 2HY     -0.128000
     19 C10         2.7850    1.1600   -1.3040 ca        1 2HY     -0.110000
     20 C11         2.3830   -1.8800   -4.3350 c3        1 2HY      0.689200
     21 C13        -0.3200    1.2300    3.1150 ca        1 2HY     -0.099300
     22 C14        -0.5440    1.6070    4.4440 ca        1 2HY     -0.122500
     23 C15        -1.0900    2.8520    4.7440 ca        1 2HY     -0.091000
     24 C16        -1.4210    3.7360    3.7070 ca        1 2HY     -0.012000
     25 C17        -1.1980    3.3630    2.3740 ca        1 2HY     -0.091000
     26 C18        -0.6480    2.1160    2.0850 ca        1 2HY     -0.122500
     27 C19        -1.9820    5.0060    4.0070 cg        1 2HY      0.230800
     28 C20         2.5650    0.0570    3.9140 c         1 2HY      0.669300
     29 C21         2.6270   -0.1880    6.2870 c3        1 2HY      0.137400
     30 C22         1.6550   -0.5790    7.3940 c3        1 2HY      0.126400
     31 C23         3.8570    0.0170    1.3320 c3        1 2HY     -0.090900
     32 O33         1.7840   -1.9770    7.5870 oh        1 2HY     -0.596800
     33 H2          0.0480   -0.8010    3.7380 h1        1 2HY      0.100700
     34 HN2        -1.3150   -0.9200    1.7200 hn        1 2HY      0.334500
     35 H6          1.4710   -1.9870   -1.7760 ha        1 2HY      0.178000
     36 H8          3.6040    0.5420   -4.5670 ha        1 2HY      0.157000
     37 H9          3.8190    2.3110   -2.8110 ha        1 2HY      0.149000
     38 H10         2.8900    1.9480   -0.5400 ha        1 2HY      0.148000
     39 H14        -0.2690    0.9160    5.2600 ha        1 2HY      0.146500
     40 H15        -1.2620    3.1430    5.7910 ha        1 2HY      0.148000
     41 H17        -1.4550    4.0550    1.5570 ha        1 2HY      0.148000
     42 H18        -0.4750    1.8400    1.0330 ha        1 2HY      0.146500
     43 H21         3.0280    0.8450    6.4460 h1        1 2HY      0.070200
     44 H21A        3.4720   -0.9200    6.2040 h1        1 2HY      0.070200
     45 H22         0.6020   -0.3150    7.1070 h1        1 2HY      0.036200
     46 H22A        1.9340   -0.0390    8.3390 h1        1 2HY      0.036200
     47 H23         4.1820    1.0400    1.6530 hc        1 2HY      0.080033
     48 H23A        4.3340   -0.7210    2.0300 hc        1 2HY      0.080033
     49 H23B        4.2330   -0.1800    0.2990 hc        1 2HY      0.080033
     50 HO33        1.0880   -2.2390    8.2000 ho        1 2HY      0.405000
@<TRIPOS>BOND
     1    1    3 1   
     2    1    4 2   
     3    1    7 1   
     4    2   20 1   
     5    3   13 1   
     6    3   14 1   
     7    5    7 1   
     8    5    9 1   
     9    5   21 1   
    10    5   33 1   
    11    6   20 1   
    12    7   34 1   
    13    8   28 2   
    14    9   13 2   
    15    9   28 1   
    16   10   20 1   
    17   11   27 3   
    18   12   28 1   
    19   12   29 1   
    20   13   31 1   
    21   14   15 ar  
    22   14   19 ar  
    23   15   16 ar  
    24   15   35 1   
    25   16   17 ar  
    26   16   20 1   
    27   17   18 ar  
    28   17   36 1   
    29   18   19 ar  
    30   18   37 1   
    31   19   38 1   
    32   21   22 ar  
    33   21   26 ar  
    34   22   23 ar  
    35   22   39 1   
    36   23   24 ar  
    37   23   40 1   
    38   24   25 ar  
    39   24   27 1   
    40   25   26 ar  
    41   25   41 1   
    42   26   42 1   
    43   29   30 1   
    44   29   43 1   
    45   29   44 1   
    46   30   32 1   
    47   30   45 1   
    48   30   46 1   
    49   31   47 1   
    50   31   48 1   
    51   31   49 1   
    52   32   50 1   
@<TRIPOS>SUBSTRUCTURE
     1 2HY         1 TEMP              0 ****  ****    0 ROOT
