@<TRIPOS>MOLECULE
2HZ
   30    31     1     0     0
SMALL
bcc


@<TRIPOS>ATOM
      1 C1          0.0620    0.1760   -0.1200 cp        1 2HZ     -0.090000
      2 C2          1.4460   -0.0390   -0.0640 ca        1 2HZ     -0.135000
      3 C3          2.1380    0.2220    1.1160 ca        1 2HZ     -0.139000
      4 C5          1.4740    0.7020    2.2420 ca        1 2HZ     -0.096000
      5 C6          0.0890    0.9300    2.2010 ca        1 2HZ     -0.001800
      6 C7         -0.6050    0.6630    1.0110 ca        1 2HZ     -0.128000
      7 C9         -0.6470    1.4580    3.3360 ce        1 2HZ     -0.196200
      8 C10        -0.3620    1.3260    4.6360 cf        1 2HZ     -0.135200
      9 C11         0.7660    0.5670    5.2970 c         1 2HZ      0.894800
     10 O12         0.4750   -0.5210    5.8660 o         1 2HZ     -0.828800
     11 O14         1.9240    1.0780    5.2900 o         1 2HZ     -0.828800
     12 C19        -0.6840   -0.1180   -1.3410 cp        1 2HZ      0.000000
     13 C20        -1.9580   -0.7040   -1.2700 ca        1 2HZ     -0.087000
     14 C22        -2.6760   -0.9880   -2.4300 ca        1 2HZ     -0.143000
     15 C24        -2.1450   -0.6980   -3.6830 ca        1 2HZ     -0.090000
     16 C26        -0.8690   -0.1140   -3.7570 ca        1 2HZ     -0.177200
     17 N27        -0.2910    0.1990   -5.0870 no        1 2HZ      0.312200
     18 O28        -0.9350   -0.0380   -6.0770 o         1 2HZ     -0.223000
     19 O29         0.8080    0.6820   -5.1560 o         1 2HZ     -0.223000
     20 C30        -0.1370    0.1790   -2.5970 ca        1 2HZ     -0.072000
     21 H1          1.9790   -0.4250   -0.9440 ha        1 2HZ      0.116000
     22 H2          3.2230    0.0420    1.1620 ha        1 2HZ      0.127000
     23 H3          2.0260    0.8970    3.1860 ha        1 2HZ      0.211000
     24 H4         -1.6900    0.8440    0.9670 ha        1 2HZ      0.119000
     25 H5         -1.5540    2.0210    3.0430 ha        1 2HZ      0.087000
     26 H6         -1.0350    1.7950    5.3750 ha        1 2HZ      0.100000
     27 H8         -2.3850   -0.9460   -0.2830 ha        1 2HZ      0.155000
     28 H9         -3.6730   -1.4490   -2.3580 ha        1 2HZ      0.139000
     29 H10        -2.7110   -0.9230   -4.6020 ha        1 2HZ      0.159000
     30 H11         0.8620    0.6450   -2.6670 ha        1 2HZ      0.173000
@<TRIPOS>BOND
     1    1    2 ar  
     2    1    6 ar  
     3    1   12 1   
     4    2    3 ar  
     5    2   21 1   
     6    3    4 ar  
     7    3   22 1   
     8    4    5 ar  
     9    4   23 1   
    10    5    6 ar  
    11    5    7 1   
    12    6   24 1   
    13    7    8 2   
    14    7   25 1   
    15    8    9 1   
    16    8   26 1   
    17    9   10 1   
    18    9   11 1   
    19   12   13 ar  
    20   12   20 ar  
    21   13   14 ar  
    22   13   27 1   
    23   14   15 ar  
    24   14   28 1   
    25   15   16 ar  
    26   15   29 1   
    27   16   17 1   
    28   16   20 ar  
    29   17   18 1   
    30   17   19 1   
    31   20   30 1   
@<TRIPOS>SUBSTRUCTURE
     1 2HZ         1 TEMP              0 ****  ****    0 ROOT
