@<TRIPOS>MOLECULE
2IA
   34    28     1     0     0
SMALL
bcc


@<TRIPOS>ATOM
      1 I          -3.3660   -1.1020    0.6610 i         1 2IA      0.020000
      2 P           3.6100    0.4330    4.4410 p3        1 2IA      2.523000
      3 N1         -2.1030    1.4940   -4.5520 n1        1 2IA     -0.277000
      4 C2         -2.8070    1.6320   -3.3860 c1        1 2IA     -0.019000
      5 N3         -2.3140    1.1050   -2.2200 n1        1 2IA     -0.184000
      6 C4         -1.1390    0.4500   -2.2150 c1        1 2IA     -0.086000
      7 C5         -0.4360    0.3090   -3.3680 c1        1 2IA     -0.086000
      8 C6         -0.9340    0.8430   -4.5540 c1        1 2IA      0.178000
      9 N6         -0.5200    0.6040   -5.9450 n3        1 2IA     -0.329000
     10 N7          0.7040   -0.3890   -3.0820 n1        1 2IA     -0.172500
     11 C8          0.6970   -0.6770   -1.7460 c1        1 2IA      0.008000
     12 N9         -0.4400   -0.1590   -1.2120 n1        1 2IA     -0.172500
     13 C1'        -0.7350    0.0420    0.1460 c2        1 2IA      0.170000
     14 O2P         4.6040   -0.5650    3.7460 o         1 2IA     -1.246000
     15 C2'        -1.2010   -1.0880    0.6960 c3        1 2IA     -0.277000
     16 O3P         4.3100    1.6940    4.7380 o         1 2IA     -1.246000
     17 C3'        -0.6840   -1.0580    2.1640 c3        1 2IA      0.052000
     18 O3'        -1.6780   -0.8110    3.0010 oh        1 2IA     -0.382000
     19 C4'         0.3930    0.1130    2.2170 c3        1 2IA     -0.062000
     20 O4'         0.6230    0.4240    0.9680 os        1 2IA     -0.283000
     21 C5'         1.6710   -0.3740    2.8830 c3        1 2IA      0.079000
     22 O5'         2.3710    0.7310    3.4540 o         1 2IA     -0.713000
     23 H2         -3.6310    2.0940   -3.3830 ha        1 2IA      0.167000
     24 HN6        -0.9530    1.0230   -6.6290 hn        1 2IA      0.205500
     25 HN6A        0.1690    0.0870   -6.1140 hn        1 2IA      0.205500
     26 H8          1.4080   -1.0930   -1.2550 DU        1 2IA      0.260000
     27 H1'        -1.3810    0.7450    0.2420 h4        1 2IA      0.131000
     28 H2'        -0.8240   -1.9180    0.1990 h1        1 2IA      0.121000
     29 H3'        -0.2570   -1.9170    2.3860 h1        1 2IA      0.159000
     30 HO3'       -1.9260   -1.5940    3.4240 ho        1 2IA      0.307000
     31 H5'         2.2230   -0.7970    2.2300 h1        1 2IA      0.036500
     32 H5'A        1.4420   -1.0330    3.6030 h1        1 2IA      0.036500
     33 O1P         3.0940   -0.1780    5.7390 o         1 2IA     -1.246000
     34 H1          0.0100    0.9280    2.7220 h1        1 2IA      0.120000
@<TRIPOS>BOND
     1    1   15 1   
     2    2   14 1   
     3    2   16 1   
     4    2   33 1   
     5    3    8 1   
     6    4    5 1   
     7    4   23 1   
     8    6    7 1   
     9    8    9 1   
    10    9   24 1   
    11    9   25 1   
    12   10   11 1   
    13   11   12 1   
    14   13   15 1   
    15   13   20 1   
    16   13   27 1   
    17   15   17 1   
    18   15   28 1   
    19   17   18 1   
    20   17   19 1   
    21   17   29 1   
    22   18   30 1   
    23   19   20 1   
    24   19   21 1   
    25   19   34 1   
    26   21   22 1   
    27   21   31 1   
    28   21   32 1   
@<TRIPOS>SUBSTRUCTURE
     1 2IA         1 TEMP              0 ****  ****    0 ROOT
