@<TRIPOS>MOLECULE
2IA
   34    36     1     0     0
SMALL
bcc


@<TRIPOS>ATOM
      1 I          -0.7360   -3.5120    0.6150 i         1 2IA     -0.304900
      2 P           3.9910    0.5160   -1.1240 p5        1 2IA      1.348900
      3 N1         -4.5250    2.8260    0.0710 nb        1 2IA     -0.801000
      4 C2         -4.3970    1.7300    0.8710 ca        1 2IA      0.628900
      5 N3         -3.3610    0.8790    1.0290 nb        1 2IA     -0.717000
      6 C4         -2.2810    1.2010    0.2530 ca        1 2IA      0.422800
      7 C5         -2.2760    2.3420   -0.6650 ca        1 2IA     -0.188200
      8 C6         -3.4580    3.1360   -0.7340 ca        1 2IA      0.675200
      9 N6         -3.5430    4.1790   -1.6640 nh        1 2IA     -0.923500
     10 N7         -1.0340    2.4260   -1.3080 nc        1 2IA     -0.605100
     11 C8         -0.3030    1.4050   -0.8260 cd        1 2IA      0.469700
     12 N9         -1.0170    0.6090    0.1140 na        1 2IA     -0.284000
     13 C1'        -0.5600   -0.5360    0.8930 c3        1 2IA      0.262800
     14 O2P         2.6350    1.0790   -1.5090 o         1 2IA     -0.922167
     15 C2'         0.0360   -1.6630    0.0100 c3        1 2IA      0.082200
     16 O3P         5.1950    1.3640   -1.3570 o         1 2IA     -0.922167
     17 C3'         1.5450   -1.4260    0.1080 c3        1 2IA      0.116100
     18 O3'         2.2960   -2.6100    0.1410 oh        1 2IA     -0.644800
     19 C4'         1.7510   -0.5790    1.3830 c3        1 2IA      0.061100
     20 O4'         0.4410   -0.1620    1.8350 os        1 2IA     -0.429600
     21 C5'         2.6100    0.6900    1.1510 c3        1 2IA      0.223400
     22 O5'         3.8290    0.4180    0.6000 os        1 2IA     -0.568200
     23 H2         -5.2880    1.5100    1.4940 h5        1 2IA      0.022100
     24 HN6        -4.1760    4.9110   -1.4320 hn        1 2IA      0.401300
     25 HN6A       -2.6540    4.4940   -1.9870 hn        1 2IA      0.401300
     26 H8          0.7820    1.1930   -1.1200 h5        1 2IA      0.218800
     27 H1'        -1.4390   -0.8850    1.5130 h2        1 2IA      0.093700
     28 H2'        -0.2830   -1.5940   -1.0550 h1        1 2IA      0.091700
     29 H3'         1.8780   -0.7950   -0.7920 h1        1 2IA      0.160700
     30 HO3'        3.1290   -2.3970   -0.3450 ho        1 2IA      0.494000
     31 H5'         2.0190    1.4100    0.5180 h1        1 2IA      0.000200
     32 H5'A        2.7640    1.1530    2.1710 h1        1 2IA      0.000200
     33 O1P         4.0400   -0.9680   -1.3960 o         1 2IA     -0.922167
     34 H1          2.1740   -1.2020    2.2130 h1        1 2IA      0.055700
@<TRIPOS>BOND
     1    1   15 1   
     2    2   14 1   
     3    2   16 1   
     4    2   22 1   
     5    2   33 1   
     6    3    4 ar  
     7    3    8 ar  
     8    4    5 ar  
     9    4   23 1   
    10    5    6 ar  
    11    6    7 ar  
    12    6   12 1   
    13    7    8 ar  
    14    7   10 1   
    15    8    9 1   
    16    9   24 1   
    17    9   25 1   
    18   10   11 2   
    19   11   12 1   
    20   11   26 1   
    21   12   13 1   
    22   13   15 1   
    23   13   20 1   
    24   13   27 1   
    25   15   17 1   
    26   15   28 1   
    27   17   18 1   
    28   17   19 1   
    29   17   29 1   
    30   18   30 1   
    31   19   20 1   
    32   19   21 1   
    33   19   34 1   
    34   21   22 1   
    35   21   31 1   
    36   21   32 1   
@<TRIPOS>SUBSTRUCTURE
     1 2IA         1 TEMP              0 ****  ****    0 ROOT
