@<TRIPOS>MOLECULE
2IB
   15    13     1     0     0
SMALL
bcc


@<TRIPOS>ATOM
      1 C          -2.1800    0.0020   -0.0650 c3        1 2IB     -0.191000
      2 C1         -0.6680    0.0020   -0.0650 c2        1 2IB     -0.030000
      3 C2          0.0250    0.0020    1.1350 c2        1 2IB     -0.264000
      4 C3          1.4110    0.0020    1.1350 c1        1 2IB     -0.095000
      5 C4          2.1040    0.0020   -0.0650 c1        1 2IB     -0.124000
      6 C5          1.4110    0.0020   -1.2660 c1        1 2IB     -0.124000
      7 C6          0.0250    0.0020   -1.2660 c1        1 2IB     -0.136000
      8 I2         -1.0280   -0.0300    2.9600 i         1 2IB      0.136000
      9 H1         -2.5060    0.0470   -0.9850 hc        1 2IB      0.092667
     10 H2         -2.5060    0.7760    0.4330 hc        1 2IB      0.092667
     11 H3A        -2.5060   -0.8160    0.3550 hc        1 2IB      0.092667
     12 H3          1.8990    0.0020    1.9800 ha        1 2IB      0.143000
     13 H4          3.0800    0.0020   -0.0650 ha        1 2IB      0.135500
     14 H5          1.8990    0.0020   -2.1110 ha        1 2IB      0.135500
     15 H6         -0.4630    0.0020   -2.1110 ha        1 2IB      0.136000
@<TRIPOS>BOND
     1    1    2 1   
     2    1    9 1   
     3    1   10 1   
     4    1   11 1   
     5    2    3 1   
     6    2    7 1   
     7    3    4 1   
     8    3    8 1   
     9    4   12 1   
    10    5    6 1   
    11    5   13 1   
    12    6   14 1   
    13    7   15 1   
@<TRIPOS>SUBSTRUCTURE
     1 2IB         1 TEMP              0 ****  ****    0 ROOT
