@<TRIPOS>MOLECULE
2IB
   15    15     1     0     0
SMALL
bcc


@<TRIPOS>ATOM
      1 C           0.7840    2.3160    0.0040 c3        1 2IB     -0.065800
      2 C1          1.4340    0.9840    0.0020 ca        1 2IB     -0.037300
      3 C2          0.6920   -0.2020   -0.0670 ca        1 2IB      0.021900
      4 C3          1.3420   -1.4380   -0.0660 ca        1 2IB     -0.095000
      5 C4          2.7320   -1.5040    0.0030 ca        1 2IB     -0.139000
      6 C5          3.4790   -0.3280    0.0710 ca        1 2IB     -0.109000
      7 C6          2.8330    0.9050    0.0710 ca        1 2IB     -0.136000
      8 I2         -1.3310   -0.2000   -0.1690 i         1 2IB     -0.149900
      9 H1          0.1870    2.4620   -0.9320 hc        1 2IB      0.053367
     10 H2          0.0960    2.4150    0.8810 hc        1 2IB      0.053367
     11 H3A         1.5440    3.1340    0.0640 hc        1 2IB      0.053367
     12 H3          0.7600   -2.3720   -0.1200 ha        1 2IB      0.143000
     13 H4          3.2370   -2.4810    0.0030 ha        1 2IB      0.137000
     14 H5          4.5770   -0.3730    0.1260 ha        1 2IB      0.134000
     15 H6          3.4240    1.8320    0.1250 ha        1 2IB      0.136000
@<TRIPOS>BOND
     1    1    2 1   
     2    1    9 1   
     3    1   10 1   
     4    1   11 1   
     5    2    3 ar  
     6    2    7 ar  
     7    3    4 ar  
     8    3    8 1   
     9    4    5 ar  
    10    4   12 1   
    11    5    6 ar  
    12    5   13 1   
    13    6    7 ar  
    14    6   14 1   
    15    7   15 1   
@<TRIPOS>SUBSTRUCTURE
     1 2IB         1 TEMP              0 ****  ****    0 ROOT
