@<TRIPOS>MOLECULE
2IC
   56    50     1     0     0
SMALL
bcc


@<TRIPOS>ATOM
      1 C2          3.0440   -0.8920   -5.4370 c1        1 2IC     -0.040000
      2 C3          4.0700    0.0380   -5.5090 c2        1 2IC     -0.139000
      3 C8          2.5450   -0.1820   -3.1960 c1        1 2IC      0.100000
      4 C9          2.2800   -1.0000   -4.2710 c1        1 2IC     -0.144000
      5 C12         2.0330   -0.6530   -1.0310 c1        1 2IC      0.385000
      6 C14         0.2760    0.2840   -0.7670 c3        1 2IC      0.029000
      7 C15         0.2130    1.0080   -0.4820 c3        1 2IC     -0.083000
      8 N18        -0.9740    0.9730    0.6700 n3        1 2IC     -0.245000
      9 C19        -1.7630    0.3430    0.2690 c3        1 2IC     -0.076000
     10 C22        -1.1830   -0.4020   -0.5280 c3        1 2IC     -0.081000
     11 C24        -1.0120   -1.8590    0.1110 c2        1 2IC     -0.032000
     12 C27        -1.4430   -3.3950    1.9040 c1        1 2IC     -0.088000
     13 C30        -0.5220   -4.1940   -0.1650 c1        1 2IC     -0.095000
     14 C32        -0.5420   -2.9040   -0.6700 c2        1 2IC     -0.134000
     15 C34        -0.9260   -5.8280    1.6770 c1        1 2IC     -0.086000
     16 CL1         2.7680   -1.9640   -6.7460 cl        1 2IC     -0.010000
     17 C5          4.3380    0.8640   -4.4220 c1        1 2IC     -0.040000
     18 C6          3.5820    0.7570   -3.2700 c1        1 2IC     -0.137000
     19 N11         1.7170   -0.2740   -1.9740 n2        1 2IC     -0.300000
     20 N13         1.1320   -0.3530   -0.1860 n3        1 2IC     -0.272000
     21 C25        -1.4630   -2.1060    1.4000 c1        1 2IC     -0.104000
     22 C29        -0.9720   -4.4410    1.1210 c1        1 2IC     -0.019000
     23 N35        -0.8920   -6.8800    2.1010 n1        1 2IC     -0.054000
     24 C36        -1.5110    2.3640    0.8830 c3        1 2IC      0.019000
     25 C39        -1.8580    2.5570    2.3870 c2        1 2IC     -0.423000
     26 S40        -2.7900    1.6450    3.2300 ss        1 2IC      0.361000
     27 C41        -2.9730    2.3230    4.6390 c1        1 2IC     -0.365000
     28 C43        -2.2080    3.5530    4.6450 c1        1 2IC     -0.128000
     29 C44        -1.4940    3.7110    3.2130 c1        1 2IC     -0.075000
     30 C46        -2.0430    4.4790    5.8170 c1        1 2IC      0.374000
     31 O47        -2.9660    5.2840    6.1200 o         1 2IC     -0.561500
     32 O48        -1.0070    4.4080    6.5340 o         1 2IC     -0.561500
     33 C50         0.4920    0.2980   -1.7910 c2        1 2IC      0.311000
     34 O51        -0.2630    0.6790   -2.6810 o         1 2IC     -0.296000
     35 C52         1.2080   -0.5630    1.2380 c3        1 2IC     -0.088000
     36 O56         2.9820   -1.4080   -0.8370 o         1 2IC     -0.327000
     37 CL57        5.5300    2.1290   -4.5640 cl        1 2IC     -0.009000
     38 H3          4.5390    0.1780   -6.3520 ha        1 2IC      0.160000
     39 H9          1.5580   -1.6530   -4.2190 ha        1 2IC      0.177000
     40 H151        1.0790    1.2850   -0.0710 h1        1 2IC      0.097500
     41 H152       -0.0310    1.6300   -1.1950 h1        1 2IC      0.097500
     42 H191       -2.4210    0.8870   -0.1940 h1        1 2IC      0.112000
     43 H192       -2.1930   -0.1840    0.9840 h1        1 2IC      0.112000
     44 H22        -1.6970   -0.4540   -1.3990 hc        1 2IC      0.119000
     45 H27        -1.7610   -3.5710    2.8140 ha        1 2IC      0.147000
     46 H30        -0.1320   -4.9180   -0.6920 ha        1 2IC      0.141000
     47 H32        -0.2300   -2.7340   -1.5580 ha        1 2IC      0.139000
     48 H6          3.7490    1.3370   -2.5400 ha        1 2IC      0.183000
     49 H25        -1.8370   -1.3770    1.9360 ha        1 2IC      0.152000
     50 H361       -2.3240    2.4880    0.3400 h1        1 2IC      0.072000
     51 H362       -0.8370    3.0200    0.6170 h1        1 2IC      0.072000
     52 H41        -3.5080    1.9750    5.3790 DU        1 2IC      0.175000
     53 H44        -0.9050    4.4350    2.9500 DU        1 2IC      0.175000
     54 H521        2.0080   -0.1170    1.5910 h1        1 2IC      0.101333
     55 H522        1.2610   -1.5310    1.4260 h1        1 2IC      0.101333
     56 H523        0.4230   -0.1950    1.6600 h1        1 2IC      0.101333
@<TRIPOS>BOND
     1    1    2 1   
     2    1    4 1   
     3    2   17 1   
     4    2   38 1   
     5    3   18 1   
     6    3   19 1   
     7    4   39 1   
     8    5   20 1   
     9    5   36 1   
    10    6    7 1   
    11    6   10 1   
    12    6   20 1   
    13    6   33 1   
    14    7    8 1   
    15    7   40 1   
    16    7   41 1   
    17    8    9 1   
    18    8   24 1   
    19    9   10 1   
    20    9   42 1   
    21    9   43 1   
    22   10   11 1   
    23   10   44 1   
    24   11   14 1   
    25   11   21 1   
    26   12   22 1   
    27   12   45 1   
    28   13   14 1   
    29   13   46 1   
    30   14   47 1   
    31   15   23 1   
    32   17   37 1   
    33   18   48 1   
    34   19   33 1   
    35   20   35 1   
    36   21   49 1   
    37   24   25 1   
    38   24   50 1   
    39   24   51 1   
    40   25   26 1   
    41   25   29 1   
    42   26   27 1   
    43   27   28 1   
    44   28   29 1   
    45   30   31 1   
    46   30   32 1   
    47   33   34 1   
    48   35   54 1   
    49   35   55 1   
    50   35   56 1   
@<TRIPOS>SUBSTRUCTURE
     1 2IC         1 TEMP              0 ****  ****    0 ROOT
