@<TRIPOS>MOLECULE
2IC
   56    60     1     0     0
SMALL
bcc


@<TRIPOS>ATOM
      1 C2         -5.1770    3.2530   -2.2720 ca        1 2IC      0.039900
      2 C3         -5.7990    4.5000   -2.1870 ca        1 2IC     -0.136000
      3 C8         -3.1210    4.1600   -1.3570 ca        1 2IC      0.093600
      4 C9         -3.8550    3.0670   -1.8690 ca        1 2IC     -0.134500
      5 C12        -0.7930    5.0230   -0.9340 c         1 2IC      0.801500
      6 C14         0.2990    3.0680   -0.1760 c3        1 2IC      0.001400
      7 C15         0.5520    2.7070    1.3270 c3        1 2IC      0.151800
      8 N18         1.1350    1.3710    1.3970 n3        1 2IC     -0.713600
      9 C19         1.4200    0.9120    0.0370 c3        1 2IC      0.162800
     10 C22         1.2730    2.1110   -0.9260 c3        1 2IC     -0.025400
     11 C24         0.8950    1.7540   -2.3200 ca        1 2IC     -0.053300
     12 C27         1.2620    2.0880   -4.7000 ca        1 2IC     -0.093500
     13 C30        -0.3530    0.4480   -3.9410 ca        1 2IC     -0.093500
     14 C32        -0.0620    0.7770   -2.6190 ca        1 2IC     -0.125000
     15 C34         0.0250    0.7600   -6.3390 cg        1 2IC      0.241800
     16 CL1        -6.0500    1.9290   -2.8880 cl        1 2IC     -0.089900
     17 C5         -5.0650    5.5740   -1.6790 ca        1 2IC      0.039900
     18 C6         -3.7430    5.4240   -1.2600 ca        1 2IC     -0.134500
     19 N11        -1.7840    3.9830   -0.9470 n         1 2IC     -0.420600
     20 N13         0.4700    4.4760   -0.5620 n         1 2IC     -0.428800
     21 C25         1.5490    2.4080   -3.3770 ca        1 2IC     -0.125000
     22 C29         0.3120    1.0990   -4.9890 ca        1 2IC     -0.024000
     23 N35        -0.2080    0.4810   -7.4440 n1        1 2IC     -0.377800
     24 C36         0.3480    0.4110    2.1730 c3        1 2IC      0.250100
     25 C39         0.1380    0.8250    3.5760 cc        1 2IC     -0.155400
     26 S40         1.2790    0.5580    4.8010 ss        1 2IC     -0.135800
     27 C41         0.3190    1.2710    5.9880 cc        1 2IC     -0.110100
     28 C43        -0.8720    1.7290    5.4830 cd        1 2IC     -0.145600
     29 C44        -0.9790    1.4600    4.0750 cd        1 2IC     -0.104000
     30 C46        -1.9520    2.4490    6.2590 c         1 2IC      0.925200
     31 O47        -2.9290    2.9110    5.6050 o         1 2IC     -0.827800
     32 O48        -1.8150    2.5550    7.5100 o         1 2IC     -0.827800
     33 C50        -1.1970    2.7720   -0.5000 c         1 2IC      0.712500
     34 O51        -1.7730    1.6910   -0.3700 o         1 2IC     -0.564500
     35 C52         1.4130    5.3170    0.1140 c3        1 2IC      0.069300
     36 CL57       -5.8030    7.1030   -1.5650 cl        1 2IC     -0.089900
     37 H3         -6.8440    4.6320   -2.5070 ha        1 2IC      0.159000
     38 H9         -3.4000    2.0640   -1.9320 ha        1 2IC      0.178000
     39 H151        1.3060    3.4150    1.7710 h1        1 2IC      0.082200
     40 H152       -0.4000    2.7910    1.9210 h1        1 2IC      0.082200
     41 H191        0.7480    0.0660   -0.2790 h1        1 2IC      0.050700
     42 H192        2.4790    0.5380    0.0190 h1        1 2IC      0.050700
     43 H22         2.2750    2.6330   -0.9610 hc        1 2IC      0.075700
     44 H27         1.7800    2.6110   -5.5180 ha        1 2IC      0.144000
     45 H30        -1.1070   -0.3230   -4.1600 ha        1 2IC      0.144000
     46 H32        -0.6110    0.2710   -1.8070 ha        1 2IC      0.153500
     47 H6         -3.1920    6.2940   -0.8630 ha        1 2IC      0.178000
     48 H25         2.2940    3.1890   -3.1590 ha        1 2IC      0.153500
     49 H361        0.9230   -0.5600    2.1460 h1        1 2IC      0.042700
     50 H362       -0.6610    0.2280    1.6920 h1        1 2IC      0.042700
     51 H41         0.6190    1.3550    7.0320 h4        1 2IC      0.177000
     52 H44        -1.8750    1.7460    3.5160 ha        1 2IC      0.166000
     53 H521        1.1160    5.5380    1.1760 h1        1 2IC      0.056367
     54 H522        1.4840    6.2860   -0.4490 h1        1 2IC      0.056367
     55 H523        2.4100    4.8030    0.1120 h1        1 2IC      0.056367
     56 O56        -0.9830    6.2050   -1.2610 o         1 2IC     -0.605500
@<TRIPOS>BOND
     1    1    2 ar  
     2    1    4 ar  
     3    1   16 1   
     4    2   17 ar  
     5    2   37 1   
     6    3    4 ar  
     7    3   18 ar  
     8    3   19 1   
     9    4   38 1   
    10    5   19 1   
    11    5   20 1   
    12    5   56 2   
    13    6    7 1   
    14    6   10 1   
    15    6   20 1   
    16    6   33 1   
    17    7    8 1   
    18    7   39 1   
    19    7   40 1   
    20    8    9 1   
    21    8   24 1   
    22    9   10 1   
    23    9   41 1   
    24    9   42 1   
    25   10   11 1   
    26   10   43 1   
    27   11   14 ar  
    28   11   21 ar  
    29   12   21 ar  
    30   12   22 ar  
    31   12   44 1   
    32   13   14 ar  
    33   13   22 ar  
    34   13   45 1   
    35   14   46 1   
    36   15   22 1   
    37   15   23 3   
    38   17   18 ar  
    39   17   36 1   
    40   18   47 1   
    41   19   33 1   
    42   20   35 1   
    43   21   48 1   
    44   24   25 1   
    45   24   49 1   
    46   24   50 1   
    47   25   26 1   
    48   25   29 2   
    49   26   27 1   
    50   27   28 2   
    51   27   51 1   
    52   28   29 1   
    53   28   30 1   
    54   29   52 1   
    55   30   31 1   
    56   30   32 1   
    57   33   34 2   
    58   35   53 1   
    59   35   54 1   
    60   35   55 1   
@<TRIPOS>SUBSTRUCTURE
     1 2IC         1 TEMP              0 ****  ****    0 ROOT
