@<TRIPOS>MOLECULE
2ID
   43    46     1     0     0
SMALL
bcc


@<TRIPOS>ATOM
      1 OAF         0.0000    0.0000    0.0000 o         1 2ID     -0.613167
      2 PBC         1.6100    0.0000    0.0000 p5        1 2ID      0.739900
      3 OAG         2.1460    0.0000    1.5180 o         1 2ID     -0.613167
      4 OAC         2.1030   -1.2070   -0.6980 o         1 2ID     -0.613167
      5 OAR         2.1470    1.3150   -0.7580 os        1 2ID     -0.480200
      6 CAW         1.9280    1.5550   -2.1500 c3        1 2ID      0.309100
      7 CAK         1.1630    2.8860   -2.3580 c3        1 2ID     -0.078400
      8 CBA         3.2710    1.7730   -2.8770 cx        1 2ID     -0.093000
      9 CAJ         3.5740    0.8770   -4.0800 c3        1 2ID      0.327400
     10 OAQ         3.2540   -0.4780   -3.7570 os        1 2ID     -0.422200
     11 PBB         3.4480   -1.6940   -4.7940 p5        1 2ID      0.692900
     12 OAD         5.0150   -1.8820   -5.1140 o         1 2ID     -0.776167
     13 OAE         2.8670   -3.0480   -4.1450 o         1 2ID     -0.776167
     14 OAB         2.7210   -1.3960   -6.0480 o         1 2ID     -0.776167
     15 CAL         4.4220    2.4090   -2.0950 cx        1 2ID     -0.022400
     16 CAY         3.4980    3.2940   -2.9350 cx        1 2ID     -0.260700
     17 CAX         2.2850    3.9470   -2.2400 c3        1 2ID     -0.035000
     18 N9          1.9010    5.1790   -2.9320 na        1 2ID      0.275000
     19 C8          1.5030    5.2840   -4.2320 cc        1 2ID      0.259700
     20 N7          1.2310    6.5240   -4.5160 nd        1 2ID     -0.590100
     21 C5          1.4370    7.2930   -3.4190 ca        1 2ID     -0.253200
     22 C4          1.8700    6.4390   -2.3910 ca        1 2ID      0.245800
     23 N3          2.1390    6.9530   -1.1950 nb        1 2ID     -0.589000
     24 C2          2.0100    8.2450   -0.9750 ca        1 2ID      0.825800
     25 I2          2.4510    8.9930    0.9310 i         1 2ID     -0.697800
     26 N1          1.6120    9.0870   -1.9120 nb        1 2ID     -0.714000
     27 C6          1.3130    8.6640   -3.1360 ca        1 2ID      0.552200
     28 N6          0.8920    9.5530   -4.1090 nu        1 2ID     -0.538900
     29 CAA         0.7680   10.9780   -3.7960 c3        1 2ID      0.211100
     30 H3          1.3850    0.7340   -2.6010 h1        1 2ID      0.063700
     31 H4          0.7100    2.9160   -3.3410 hc        1 2ID      0.014700
     32 H5          0.4220    3.0260   -1.5800 hc        1 2ID      0.014700
     33 H6          2.9790    1.1970   -4.9270 h1        1 2ID     -0.050300
     34 H7          4.6260    0.9510   -4.3300 h1        1 2ID     -0.050300
     35 H10         4.2800    2.4710   -1.0230 hc        1 2ID      0.040700
     36 H11         5.4110    2.2460   -2.5050 hc        1 2ID      0.040700
     37 H12         3.8280    3.6280   -3.9110 hc        1 2ID      0.048700
     38 H13         2.5090    4.1440   -1.1990 h1        1 2ID      0.078700
     39 H14         1.4240    4.4560   -4.9260 h5        1 2ID      0.044800
     40 H15         0.6720    9.2220   -5.0280 hn        1 2ID      0.293800
     41 H16         0.0530   11.1100   -2.9930 h1        1 2ID     -0.012300
     42 H17         0.4280   11.5130   -4.6740 h1        1 2ID     -0.012300
     43 H18         1.7320   11.3650   -3.4880 h1        1 2ID     -0.012300
@<TRIPOS>BOND
     1    1    2 1   
     2    2    3 1   
     3    2    4 1   
     4    2    5 1   
     5    5    6 1   
     6    6    7 1   
     7    6    8 1   
     8    6   30 1   
     9    7   17 1   
    10    7   31 1   
    11    7   32 1   
    12    8    9 1   
    13    8   15 1   
    14    8   16 1   
    15    9   10 1   
    16    9   33 1   
    17    9   34 1   
    18   10   11 1   
    19   11   12 1   
    20   11   13 1   
    21   11   14 1   
    22   15   16 1   
    23   15   35 1   
    24   15   36 1   
    25   16   17 1   
    26   16   37 1   
    27   17   18 1   
    28   17   38 1   
    29   18   19 1   
    30   18   22 1   
    31   19   20 2   
    32   19   39 1   
    33   20   21 1   
    34   21   22 ar  
    35   21   27 ar  
    36   22   23 ar  
    37   23   24 ar  
    38   24   25 1   
    39   24   26 ar  
    40   26   27 ar  
    41   27   28 1   
    42   28   29 1   
    43   28   40 1   
    44   29   41 1   
    45   29   42 1   
    46   29   43 1   
@<TRIPOS>SUBSTRUCTURE
     1 2ID         1 TEMP              0 ****  ****    0 ROOT
