@<TRIPOS>MOLECULE
2IG
   53    56     1     0     0
SMALL
bcc


@<TRIPOS>ATOM
      1 C1         -0.0370    0.2230    0.0160 ca        1 2IG      0.720200
      2 N1          1.3290    0.1810   -0.0470 nb        1 2IG     -0.822000
      3 C2          1.9960    0.0520    1.1570 ca        1 2IG      0.900900
      4 N2          1.3970    0.0050    2.4080 nb        1 2IG     -0.788000
      5 C3          0.0470    0.0270    2.4380 ca        1 2IG      0.526600
      6 C4         -0.7410    0.1110    1.2680 cp        1 2IG     -0.393600
      7 N3         -0.7430    0.4400   -1.1600 nv        1 2IG     -0.945500
      8 N4          3.3880   -0.1030    1.1020 nv        1 2IG     -0.926500
      9 C5         -0.6090   -0.0330    3.7940 c3        1 2IG     -0.140700
     10 C6         -0.3120    1.1970    4.6150 c3        1 2IG     -0.085100
     11 C7         -2.8790   -1.0870    1.6470 ca        1 2IG     -0.154000
     12 C8         -4.2710   -1.1470    1.6570 ca        1 2IG     -0.082000
     13 C9         -4.9970   -0.0200    1.3050 cp        1 2IG     -0.074000
     14 C10        -4.3060    1.1960    0.9430 ca        1 2IG     -0.014200
     15 C11        -2.9110    1.2450    0.9320 ca        1 2IG     -0.148000
     16 C12        -2.2000    0.0910    1.2900 cp        1 2IG      0.007000
     17 N5         -5.2470    2.2290    0.7030 na        1 2IG     -0.063300
     18 C13        -4.9570    3.3890   -0.0910 c3        1 2IG      0.038300
     19 C14        -4.8950    3.1670   -1.6020 c3        1 2IG     -0.117400
     20 C15        -4.5670    4.4800   -2.2890 c3        1 2IG      0.131400
     21 O1         -4.5350    4.2080   -3.6890 os        1 2IG     -0.419600
     22 C16        -4.2250    5.3560   -4.4580 c3        1 2IG      0.115700
     23 C17        -7.7920    2.2190    0.5910 ca        1 2IG     -0.153000
     24 C18        -6.5340    1.6430    0.7850 ca        1 2IG     -0.010200
     25 C19        -6.4180    0.2630    1.2040 cp        1 2IG     -0.076000
     26 C20        -7.5590   -0.4940    1.4250 ca        1 2IG     -0.077000
     27 C21        -8.8070    0.0960    1.2280 ca        1 2IG     -0.159000
     28 C22        -8.9180    1.4280    0.8170 ca        1 2IG     -0.103000
     29 HN31       -1.7050    0.1950   -1.1400 hn        1 2IG      0.425800
     30 HN32       -0.2680    0.3060   -2.0220 hn        1 2IG      0.425800
     31 HN41        3.8820    0.0670    1.9470 hn        1 2IG      0.423800
     32 HN42        3.8340    0.1960    0.2660 hn        1 2IG      0.423800
     33 H51        -0.2440   -0.9460    4.3380 hc        1 2IG      0.062700
     34 H52        -1.7190   -0.1410    3.6650 hc        1 2IG      0.062700
     35 H61        -0.8580    1.1390    5.5890 hc        1 2IG      0.039700
     36 H62         0.7810    1.2840    4.8260 hc        1 2IG      0.039700
     37 H63        -0.6430    2.1200    4.0800 hc        1 2IG      0.039700
     38 H8         -4.7870   -2.0760    1.9410 ha        1 2IG      0.138000
     39 H11        -2.3730    2.1630    0.6570 ha        1 2IG      0.147000
     40 H131       -5.7540    4.1560    0.1340 h1        1 2IG      0.060700
     41 H132       -3.9660    3.7970    0.2610 h1        1 2IG      0.060700
     42 H141       -4.1110    2.4080   -1.8570 hc        1 2IG      0.067200
     43 H142       -5.8740    2.7780   -1.9850 hc        1 2IG      0.067200
     44 H151       -3.5680    4.8720   -1.9580 h1        1 2IG      0.026700
     45 H152       -5.3510    5.2550   -2.0750 h1        1 2IG      0.026700
     46 H161       -4.9950    6.1530   -4.3080 h1        1 2IG      0.034033
     47 H162       -4.2370    4.9940   -5.5170 h1        1 2IG      0.034033
     48 H163       -3.2130    5.7500   -4.1900 h1        1 2IG      0.034033
     49 H17        -7.8970    3.2640    0.2700 ha        1 2IG      0.136000
     50 H20        -7.4770   -1.5400    1.7520 ha        1 2IG      0.136000
     51 H21        -9.7190   -0.4950    1.3980 ha        1 2IG      0.132000
     52 H22        -9.9170    1.8650    0.6670 ha        1 2IG      0.131000
     53 H7         -2.2940   -1.9780    1.9230 ha        1 2IG      0.139000
@<TRIPOS>BOND
     1    1    2 ar  
     2    1    6 ar  
     3    1    7 1   
     4    2    3 ar  
     5    3    4 ar  
     6    3    8 1   
     7    4    5 ar  
     8    5    6 ar  
     9    5    9 1   
    10    6   16 1   
    11    7   29 1   
    12    7   30 1   
    13    8   31 1   
    14    8   32 1   
    15    9   10 1   
    16    9   33 1   
    17    9   34 1   
    18   10   35 1   
    19   10   36 1   
    20   10   37 1   
    21   11   12 ar  
    22   11   16 ar  
    23   11   53 1   
    24   12   13 ar  
    25   12   38 1   
    26   13   14 ar  
    27   13   25 1   
    28   14   15 ar  
    29   14   17 1   
    30   15   16 ar  
    31   15   39 1   
    32   17   18 1   
    33   17   24 1   
    34   18   19 1   
    35   18   40 1   
    36   18   41 1   
    37   19   20 1   
    38   19   42 1   
    39   19   43 1   
    40   20   21 1   
    41   20   44 1   
    42   20   45 1   
    43   21   22 1   
    44   22   46 1   
    45   22   47 1   
    46   22   48 1   
    47   23   24 ar  
    48   23   28 ar  
    49   23   49 1   
    50   24   25 ar  
    51   25   26 ar  
    52   26   27 ar  
    53   26   50 1   
    54   27   28 ar  
    55   27   51 1   
    56   28   52 1   
@<TRIPOS>SUBSTRUCTURE
     1 2IG         1 TEMP              0 ****  ****    0 ROOT
