@<TRIPOS>MOLECULE
2IG
   55    58     1     0     0
SMALL
bcc


@<TRIPOS>ATOM
      1 C1         -0.5450    0.7380   -0.3590 ca        1 2IG      0.471200
      2 N1          0.7970    0.8110   -0.6310 nb        1 2IG     -0.667000
      3 C2          1.6060    0.6250    0.4430 ca        1 2IG      0.715900
      4 N2          1.2240    0.3910    1.7480 nb        1 2IG     -0.641000
      5 C3         -0.0950    0.3280    1.9960 ca        1 2IG      0.524600
      6 C4         -1.0710    0.4880    0.9350 cp        1 2IG     -0.093600
      7 N3         -1.4560    0.9260   -1.5040 n4        1 2IG     -0.827300
      8 N4          3.0780    0.6800    0.2020 n4        1 2IG     -0.812300
      9 C5         -0.5670    0.0970    3.4050 c3        1 2IG     -0.152700
     10 C6          0.3350    0.6760    4.4660 c3        1 2IG     -0.100100
     11 C7         -3.0460   -0.7170    1.8220 ca        1 2IG     -0.105000
     12 C8         -4.4240   -0.8500    2.0000 ca        1 2IG     -0.079000
     13 C9         -5.2710    0.1320    1.5100 cp        1 2IG      0.012000
     14 C10        -4.7040    1.2970    0.8390 ca        1 2IG     -0.004200
     15 C11        -3.3300    1.4290    0.6770 ca        1 2IG     -0.186000
     16 C12        -2.4980    0.3950    1.1580 cp        1 2IG     -0.156000
     17 N5         -5.7310    2.1770    0.4650 na        1 2IG     -0.058300
     18 C13        -5.5440    3.2100   -0.5140 c3        1 2IG      0.033300
     19 C14        -5.0890    2.7230   -1.8980 c3        1 2IG     -0.114400
     20 C15        -4.1450    3.7140   -2.5500 c3        1 2IG      0.129400
     21 O1         -2.8340    3.4980   -2.0010 os        1 2IG     -0.523600
     22 C16        -1.9550    4.5870   -2.2650 c3        1 2IG      0.110700
     23 C17        -8.2700    2.0170    0.6250 ca        1 2IG     -0.148000
     24 C18        -6.9610    1.5620    0.8070 ca        1 2IG      0.007800
     25 C19        -6.7050    0.3120    1.4900 cp        1 2IG     -0.116000
     26 C20        -7.7670   -0.4470    1.9760 ca        1 2IG     -0.049000
     27 C21        -9.0640    0.0200    1.7850 ca        1 2IG     -0.138000
     28 C22        -9.3080    1.2300    1.1210 ca        1 2IG     -0.057000
     29 HN31       -2.3760    0.5120   -1.2670 hn        1 2IG      0.493133
     30 HN32       -1.5940    1.9410   -1.6820 hn        1 2IG      0.493133
     31 HN41        3.4920   -0.2290    0.4590 hn        1 2IG      0.493467
     32 HN42        3.2800    0.8840   -0.7870 hn        1 2IG      0.493467
     33 H51        -0.6550   -1.0170    3.5530 hc        1 2IG      0.102200
     34 H52        -1.5990    0.5380    3.5050 hc        1 2IG      0.102200
     35 H61        -0.1540    0.5490    5.4650 hc        1 2IG      0.064367
     36 H62         1.3230    0.1560    4.4960 hc        1 2IG      0.064367
     37 H63         0.5070    1.7660    4.2980 hc        1 2IG      0.064367
     38 H11        -2.9150    2.3580    0.2530 ha        1 2IG      0.148000
     39 H131       -4.7660    3.9200   -0.1030 h1        1 2IG      0.080700
     40 H132       -6.5140    3.7750   -0.6170 h1        1 2IG      0.080700
     41 H141       -5.9830    2.5920   -2.5630 hc        1 2IG      0.061200
     42 H142       -4.5760    1.7280   -1.8230 hc        1 2IG      0.061200
     43 H151       -4.4660    4.7710   -2.3550 h1        1 2IG      0.064200
     44 H152       -4.0880    3.5420   -3.6590 h1        1 2IG      0.064200
     45 H161       -1.8380    4.7330   -3.3670 h1        1 2IG      0.050367
     46 H162       -2.3420    5.5230   -1.7910 h1        1 2IG      0.050367
     47 H163       -0.9840    4.2890   -1.7980 h1        1 2IG      0.050367
     48 H17        -8.4840    2.9680    0.1160 ha        1 2IG      0.154000
     49 H20        -7.5810   -1.3940    2.5040 ha        1 2IG      0.153000
     50 H21        -9.9160   -0.5680    2.1640 ha        1 2IG      0.164000
     51 H22       -10.3490    1.5720    0.9900 ha        1 2IG      0.162000
     52 H7         -2.3830   -1.5150    2.1910 ha        1 2IG      0.146000
     53 H33        -1.0820    0.4810   -2.3520 hn        1 2IG      0.493133
     54 H43         3.4870    1.4170    0.7970 hn        1 2IG      0.493467
     55 H8         -4.8330   -1.7320    2.5210 ha        1 2IG      0.175000
@<TRIPOS>BOND
     1    1    2 ar  
     2    1    6 ar  
     3    1    7 1   
     4    2    3 ar  
     5    3    4 ar  
     6    3    8 1   
     7    4    5 ar  
     8    5    6 ar  
     9    5    9 1   
    10    6   16 1   
    11    7   29 1   
    12    7   30 1   
    13    7   53 1   
    14    8   31 1   
    15    8   32 1   
    16    8   54 1   
    17    9   10 1   
    18    9   33 1   
    19    9   34 1   
    20   10   35 1   
    21   10   36 1   
    22   10   37 1   
    23   11   12 ar  
    24   11   16 ar  
    25   11   52 1   
    26   12   13 ar  
    27   12   55 1   
    28   13   14 ar  
    29   13   25 1   
    30   14   15 ar  
    31   14   17 1   
    32   15   16 ar  
    33   15   38 1   
    34   17   18 1   
    35   17   24 1   
    36   18   19 1   
    37   18   39 1   
    38   18   40 1   
    39   19   20 1   
    40   19   41 1   
    41   19   42 1   
    42   20   21 1   
    43   20   43 1   
    44   20   44 1   
    45   21   22 1   
    46   22   45 1   
    47   22   46 1   
    48   22   47 1   
    49   23   24 ar  
    50   23   28 ar  
    51   23   48 1   
    52   24   25 ar  
    53   25   26 ar  
    54   26   27 ar  
    55   26   49 1   
    56   27   28 ar  
    57   27   50 1   
    58   28   51 1   
@<TRIPOS>SUBSTRUCTURE
     1 2IG         1 TEMP              0 ****  ****    0 ROOT
