@<TRIPOS>MOLECULE
2IG
   53    56     1     0     0
SMALL
bcc


@<TRIPOS>ATOM
      1 C1          2.9960   -1.0080    0.8740 ca        1 2IG      0.723200
      2 N1          4.2550   -1.5430    0.8560 nb        1 2IG     -0.825000
      3 C2          5.1890   -0.8890    0.0740 ca        1 2IG      0.902900
      4 N2          4.9680    0.2850   -0.6310 nb        1 2IG     -0.789000
      5 C3          3.7230    0.8060   -0.5740 ca        1 2IG      0.526600
      6 C4          2.6820    0.2120    0.1740 cp        1 2IG     -0.396600
      7 N3          2.0000   -1.6950    1.5520 nh        1 2IG     -0.948500
      8 N4          6.4460   -1.4920   -0.0580 nh        1 2IG     -0.928500
      9 C5          3.4730    2.0730   -1.3520 c3        1 2IG     -0.139700
     10 C6          3.5810    1.8440   -2.8400 c3        1 2IG     -0.086100
     11 C7          1.1300    1.9790    0.9660 ca        1 2IG     -0.155000
     12 C8         -0.1420    2.5350    1.0870 ca        1 2IG     -0.082000
     13 C9         -1.2200    1.8870    0.5030 cp        1 2IG     -0.075000
     14 C10        -1.0100    0.6570   -0.2270 ca        1 2IG     -0.014200
     15 C11         0.2680    0.1060   -0.3390 ca        1 2IG     -0.147000
     16 C12         1.3400    0.7800    0.2630 cp        1 2IG      0.008000
     17 N5         -2.2320    0.2250   -0.7990 na        1 2IG     -0.063300
     18 C13        -2.4840   -1.1330   -1.1890 c3        1 2IG      0.038300
     19 C14        -2.7430   -2.1190   -0.0490 c3        1 2IG     -0.117400
     20 C15        -2.9690   -3.5040   -0.6260 c3        1 2IG      0.131400
     21 O1         -3.2240   -4.3670    0.4800 os        1 2IG     -0.420600
     22 C16        -3.4340   -5.7110    0.0840 c3        1 2IG      0.115700
     23 C17        -4.6180    1.0890   -0.5690 ca        1 2IG     -0.153000
     24 C18        -3.2400    1.1030   -0.3320 ca        1 2IG     -0.009200
     25 C19        -2.6420    2.1720    0.4360 cp        1 2IG     -0.076000
     26 C20        -3.4330    3.1970    0.9350 ca        1 2IG     -0.078000
     27 C21        -4.8060    3.1680    0.6890 ca        1 2IG     -0.159000
     28 C22        -5.3840    2.1310   -0.0490 ca        1 2IG     -0.103000
     29 HN31        2.2670   -2.4160    2.1800 hn        1 2IG      0.427300
     30 HN32        1.1860   -1.1750    1.7820 hn        1 2IG      0.427300
     31 HN41        7.1830   -0.9110   -0.3830 hn        1 2IG      0.424800
     32 HN42        6.6890   -2.1690    0.6270 hn        1 2IG      0.424800
     33 H51         4.2190    2.8510   -1.0350 hc        1 2IG      0.061200
     34 H52         2.4520    2.4660   -1.1050 hc        1 2IG      0.061200
     35 H61         4.6140    1.5250   -3.1210 hc        1 2IG      0.040700
     36 H62         2.8640    1.0560   -3.1720 hc        1 2IG      0.040700
     37 H63         3.3420    2.7910   -3.3830 hc        1 2IG      0.040700
     38 H8         -0.2900    3.4750    1.6380 ha        1 2IG      0.137000
     39 H11         0.4420   -0.8300   -0.8880 ha        1 2IG      0.148000
     40 H131       -3.3800   -1.1240   -1.8750 h1        1 2IG      0.061200
     41 H132       -1.5890   -1.4840   -1.7800 h1        1 2IG      0.061200
     42 H141       -1.8710   -2.1460    0.6540 hc        1 2IG      0.067200
     43 H142       -3.6420   -1.8090    0.5440 hc        1 2IG      0.067200
     44 H151       -3.8510   -3.5150   -1.3210 h1        1 2IG      0.027200
     45 H152       -2.0620   -3.8630   -1.1830 h1        1 2IG      0.027200
     46 H161       -3.6200   -6.2580    1.0420 h1        1 2IG      0.034033
     47 H162       -4.3220   -5.7890   -0.5910 h1        1 2IG      0.034033
     48 H163       -2.5280   -6.1170   -0.4310 h1        1 2IG      0.034033
     49 H17        -5.0880    0.2820   -1.1480 ha        1 2IG      0.136000
     50 H20        -2.9830    4.0160    1.5130 ha        1 2IG      0.136000
     51 H21        -5.4440    3.9740    1.0800 ha        1 2IG      0.132000
     52 H22        -6.4700    2.1340   -0.2250 ha        1 2IG      0.131000
     53 H7          1.9910    2.4850    1.4280 ha        1 2IG      0.137000
@<TRIPOS>BOND
     1    1    2 ar  
     2    1    6 ar  
     3    1    7 1   
     4    2    3 ar  
     5    3    4 ar  
     6    3    8 1   
     7    4    5 ar  
     8    5    6 ar  
     9    5    9 1   
    10    6   16 1   
    11    7   29 1   
    12    7   30 1   
    13    8   31 1   
    14    8   32 1   
    15    9   10 1   
    16    9   33 1   
    17    9   34 1   
    18   10   35 1   
    19   10   36 1   
    20   10   37 1   
    21   11   12 ar  
    22   11   16 ar  
    23   11   53 1   
    24   12   13 ar  
    25   12   38 1   
    26   13   14 ar  
    27   13   25 1   
    28   14   15 ar  
    29   14   17 1   
    30   15   16 ar  
    31   15   39 1   
    32   17   18 1   
    33   17   24 1   
    34   18   19 1   
    35   18   40 1   
    36   18   41 1   
    37   19   20 1   
    38   19   42 1   
    39   19   43 1   
    40   20   21 1   
    41   20   44 1   
    42   20   45 1   
    43   21   22 1   
    44   22   46 1   
    45   22   47 1   
    46   22   48 1   
    47   23   24 ar  
    48   23   28 ar  
    49   23   49 1   
    50   24   25 ar  
    51   25   26 ar  
    52   26   27 ar  
    53   26   50 1   
    54   27   28 ar  
    55   27   51 1   
    56   28   52 1   
@<TRIPOS>SUBSTRUCTURE
     1 2IG         1 TEMP              0 ****  ****    0 ROOT
