@<TRIPOS>MOLECULE
2IG
   53    43     1     0     0
SMALL
bcc


@<TRIPOS>ATOM
      1 C1          3.4690   -1.8340   -0.5710 c1        1 2IG      0.202000
      2 N1          4.8030   -1.8470   -0.5590 n1        1 2IG     -0.299000
      3 C2          5.4750   -1.6780    0.6040 c1        1 2IG      0.185000
      4 N2          4.7880   -1.4940    1.7730 n1        1 2IG     -0.260000
      5 C3          3.4440   -1.4800    1.7700 c1        1 2IG      0.104000
      6 C4          2.7690   -1.6490    0.6040 c1        1 2IG     -0.271000
      7 N3          2.7770   -1.9700   -1.7880 n3        1 2IG     -0.345000
      8 N4          6.8900   -1.6530    0.6050 n3        1 2IG     -0.326000
      9 C5          2.6880   -1.4520    3.0880 c3        1 2IG     -0.122000
     10 C6          3.6250   -0.9670    4.1880 c3        1 2IG     -0.201000
     11 C7          0.6720   -2.5900    0.8150 c1        1 2IG     -0.129000
     12 C8         -0.7070   -2.6490    0.6920 c1        1 2IG     -0.129000
     13 C9         -1.4300   -1.5050    0.3060 c1        1 2IG     -0.011667
     14 C10        -0.7760   -0.3370    0.0510 c1        1 2IG     -0.011667
     15 C11         0.6270   -0.2760    0.1760 c1        1 2IG     -0.129000
     16 C12         1.3400   -1.4080    0.5580 c1        1 2IG     -0.011667
     17 N5         -1.7210    0.6400   -0.1690 n1        1 2IG     -0.173000
     18 C13        -1.5710    2.0570   -0.4450 c2        1 2IG     -0.021000
     19 C14        -1.7880    2.3150   -1.9350 c3        1 2IG     -0.196000
     20 C15        -1.8890    3.7970   -2.1730 c3        1 2IG     -0.020000
     21 O1         -2.6070    4.0430   -3.4170 os        1 2IG     -0.277000
     22 C16        -3.0390    5.4040   -3.5800 c3        1 2IG     -0.074000
     23 C17        -4.2980    0.5940   -0.2480 c1        1 2IG     -0.123250
     24 C18        -2.9590    0.0680   -0.0480 c1        1 2IG      0.035000
     25 C19        -2.7830   -1.2590    0.2450 c1        1 2IG     -0.076000
     26 C20        -3.9280   -2.1360    0.3560 c1        1 2IG     -0.123250
     27 C21        -5.2270   -1.6260    0.1620 c1        1 2IG     -0.123250
     28 C22        -5.4120   -0.2590   -0.1400 c1        1 2IG     -0.123250
     29 HN31        1.9010   -2.0930   -1.7880 hn        1 2IG      0.222000
     30 HN32        3.2560   -1.9880   -2.6020 hn        1 2IG      0.222000
     31 HN41        7.3240   -1.7060    1.3530 hn        1 2IG      0.220500
     32 HN42        7.3240   -1.6350   -0.1460 hn        1 2IG      0.220500
     33 H51         1.8940   -0.8210    3.0130 hc        1 2IG      0.100500
     34 H52         2.3600   -2.3850    3.3100 hc        1 2IG      0.100500
     35 H61         4.3150   -0.3470    3.7910 hc        1 2IG      0.079333
     36 H62         4.0740   -1.7360    4.5960 hc        1 2IG      0.079333
     37 H63         3.1130   -0.4900    4.8670 hc        1 2IG      0.079333
     38 H7          1.1660   -3.3860    0.9750 ha        1 2IG      0.140333
     39 H8         -1.1610   -3.4570    0.8690 ha        1 2IG      0.140333
     40 H11         1.0900    0.5740    0.0610 ha        1 2IG      0.140333
     41 H131       -0.6890    2.3390   -0.1970 ha        1 2IG      0.100500
     42 H132       -2.2400    2.5670    0.0780 ha        1 2IG      0.100500
     43 H141       -0.9910    1.9310   -2.4720 hc        1 2IG      0.106000
     44 H142       -2.6070    1.8860   -2.2210 hc        1 2IG      0.106000
     45 H151       -0.9740    4.1870   -2.2340 h1        1 2IG      0.066500
     46 H152       -2.3660    4.2090   -1.4390 h1        1 2IG      0.066500
     47 H161       -3.7310    5.6240   -2.8760 h1        1 2IG      0.073333
     48 H162       -2.2800    5.9990   -3.4840 h1        1 2IG      0.073333
     49 H163       -3.4150    5.5130   -4.4340 h1        1 2IG      0.073333
     50 H17        -4.4300    1.5730   -0.4670 ha        1 2IG      0.133750
     51 H20        -3.7990   -3.0900    0.5690 ha        1 2IG      0.133750
     52 H21        -6.0110   -2.2270    0.2360 ha        1 2IG      0.133750
     53 H22        -6.3580    0.1120   -0.2800 ha        1 2IG      0.133750
@<TRIPOS>BOND
     1    1    6 1   
     2    1    7 1   
     3    2    3 1   
     4    3    8 1   
     5    4    5 1   
     6    5    9 1   
     7    7   29 1   
     8    7   30 1   
     9    8   31 1   
    10    8   32 1   
    11    9   10 1   
    12    9   33 1   
    13    9   34 1   
    14   10   35 1   
    15   10   36 1   
    16   10   37 1   
    17   11   16 1   
    18   11   38 1   
    19   12   13 1   
    20   12   39 1   
    21   14   15 1   
    22   15   40 1   
    23   17   24 1   
    24   18   19 1   
    25   18   41 1   
    26   18   42 1   
    27   19   20 1   
    28   19   43 1   
    29   19   44 1   
    30   20   21 1   
    31   20   45 1   
    32   20   46 1   
    33   21   22 1   
    34   22   47 1   
    35   22   48 1   
    36   22   49 1   
    37   23   28 1   
    38   23   50 1   
    39   24   25 1   
    40   26   27 1   
    41   26   51 1   
    42   27   52 1   
    43   28   53 1   
@<TRIPOS>SUBSTRUCTURE
     1 2IG         1 TEMP              0 ****  ****    0 ROOT
