@<TRIPOS>MOLECULE
2IG
   53    56     1     0     0
SMALL
bcc


@<TRIPOS>ATOM
      1 C1         -0.0430    0.2010    0.0210 ca        1 2IG      0.720200
      2 N1          1.3230    0.1520   -0.0430 nb        1 2IG     -0.822000
      3 C2          1.9900    0.0280    1.1610 ca        1 2IG      0.900900
      4 N2          1.3930   -0.0080    2.4120 nb        1 2IG     -0.788000
      5 C3          0.0420    0.0210    2.4440 ca        1 2IG      0.526600
      6 C4         -0.7460    0.1010    1.2740 cp        1 2IG     -0.393600
      7 N3         -0.7480    0.4140   -1.1570 nh        1 2IG     -0.945500
      8 N4          3.3810   -0.1350    1.1060 nh        1 2IG     -0.926500
      9 C5         -0.6130   -0.0260    3.8000 c3        1 2IG     -0.140700
     10 C6         -0.3140    1.2110    4.6110 c3        1 2IG     -0.085100
     11 C7         -2.8890   -1.0850    1.6600 ca        1 2IG     -0.154000
     12 C8         -4.2820   -1.1380    1.6730 ca        1 2IG     -0.082000
     13 C9         -5.0030   -0.0090    1.3140 cp        1 2IG     -0.074000
     14 C10        -4.3060    1.2020    0.9450 ca        1 2IG     -0.014200
     15 C11        -2.9100    1.2440    0.9320 ca        1 2IG     -0.148000
     16 C12        -2.2050    0.0890    1.2970 cp        1 2IG      0.007000
     17 N5         -5.2420    2.2380    0.7000 na        1 2IG     -0.063300
     18 C13        -4.9470    3.3930   -0.1000 c3        1 2IG      0.038300
     19 C14        -4.8890    3.1640   -1.6100 c3        1 2IG     -0.117400
     20 C15        -4.5560    4.4720   -2.3040 c3        1 2IG      0.131400
     21 O1         -4.5280    4.1930   -3.7020 os        1 2IG     -0.419600
     22 C16        -4.2130    5.3360   -4.4780 c3        1 2IG      0.115700
     23 C17        -7.7870    2.2400    0.5900 ca        1 2IG     -0.153000
     24 C18        -6.5320    1.6590    0.7870 ca        1 2IG     -0.010200
     25 C19        -6.4220    0.2810    1.2130 cp        1 2IG     -0.076000
     26 C20        -7.5670   -0.4690    1.4400 ca        1 2IG     -0.077000
     27 C21        -8.8130    0.1260    1.2400 ca        1 2IG     -0.159000
     28 C22        -8.9160    1.4560    0.8220 ca        1 2IG     -0.103000
     29 HN31       -0.2740    0.2710   -2.0180 hn        1 2IG      0.425800
     30 HN32       -1.7120    0.1730   -1.1350 hn        1 2IG      0.425800
     31 HN41        3.8770    0.0390    1.9500 hn        1 2IG      0.423800
     32 HN42        3.8280    0.1560    0.2680 hn        1 2IG      0.423800
     33 H51        -0.2490   -0.9350    4.3520 hc        1 2IG      0.062700
     34 H52        -1.7240   -0.1340    3.6730 hc        1 2IG      0.062700
     35 H61        -0.6440    2.1290    4.0680 hc        1 2IG      0.039700
     36 H62        -0.8580    1.1610    5.5850 hc        1 2IG      0.039700
     37 H63         0.7800    1.2970    4.8190 hc        1 2IG      0.039700
     38 H8         -4.8030   -2.0620    1.9620 ha        1 2IG      0.138000
     39 H11        -2.3680    2.1580    0.6510 ha        1 2IG      0.147000
     40 H131       -5.7390    4.1650    0.1230 h1        1 2IG      0.060700
     41 H132       -3.9530    3.7970    0.2480 h1        1 2IG      0.060700
     42 H141       -4.1090    2.4000   -1.8630 hc        1 2IG      0.067200
     43 H142       -5.8710    2.7790   -1.9890 hc        1 2IG      0.067200
     44 H151       -3.5540    4.8600   -1.9770 h1        1 2IG      0.026700
     45 H152       -5.3350    5.2520   -2.0920 h1        1 2IG      0.026700
     46 H161       -4.9790    6.1370   -4.3290 h1        1 2IG      0.034033
     47 H162       -3.1990    5.7260   -4.2130 h1        1 2IG      0.034033
     48 H163       -4.2290    4.9690   -5.5340 h1        1 2IG      0.034033
     49 H17        -7.8870    3.2840    0.2640 ha        1 2IG      0.136000
     50 H20        -7.4900   -1.5140    1.7720 ha        1 2IG      0.136000
     51 H21        -9.7270   -0.4590    1.4140 ha        1 2IG      0.132000
     52 H22        -9.9130    1.8980    0.6700 ha        1 2IG      0.131000
     53 H7         -2.3090   -1.9760    1.9410 ha        1 2IG      0.139000
@<TRIPOS>BOND
     1    1    2 ar  
     2    1    6 ar  
     3    1    7 1   
     4    2    3 ar  
     5    3    4 ar  
     6    3    8 1   
     7    4    5 ar  
     8    5    6 ar  
     9    5    9 1   
    10    6   16 1   
    11    7   29 1   
    12    7   30 1   
    13    8   31 1   
    14    8   32 1   
    15    9   10 1   
    16    9   33 1   
    17    9   34 1   
    18   10   35 1   
    19   10   36 1   
    20   10   37 1   
    21   11   12 ar  
    22   11   16 ar  
    23   11   53 1   
    24   12   13 ar  
    25   12   38 1   
    26   13   14 ar  
    27   13   25 1   
    28   14   15 ar  
    29   14   17 1   
    30   15   16 ar  
    31   15   39 1   
    32   17   18 1   
    33   17   24 1   
    34   18   19 1   
    35   18   40 1   
    36   18   41 1   
    37   19   20 1   
    38   19   42 1   
    39   19   43 1   
    40   20   21 1   
    41   20   44 1   
    42   20   45 1   
    43   21   22 1   
    44   22   46 1   
    45   22   47 1   
    46   22   48 1   
    47   23   24 ar  
    48   23   28 ar  
    49   23   49 1   
    50   24   25 ar  
    51   25   26 ar  
    52   26   27 ar  
    53   26   50 1   
    54   27   28 ar  
    55   27   51 1   
    56   28   52 1   
@<TRIPOS>SUBSTRUCTURE
     1 2IG         1 TEMP              0 ****  ****    0 ROOT
