@<TRIPOS>MOLECULE
2IH
   34    35     1     0     0
SMALL
bcc


@<TRIPOS>ATOM
      1 C1         -5.0820   -1.1410    0.0330 cc        1 2IH     -0.257600
      2 C5         -6.3060   -0.6550   -0.4590 cd        1 2IH      0.290200
      3 N4         -6.3310    0.7380   -0.3900 nd        1 2IH     -0.666000
      4 C3         -5.1430    1.1030    0.1340 cc        1 2IH      0.386400
      5 N2         -4.3450   -0.0170    0.4220 na        1 2IH     -0.208900
      6 C6         -3.0070   -0.0100    0.9320 c3        1 2IH      0.040300
      7 C7         -1.9140   -0.0140   -0.1400 c3        1 2IH     -0.103400
      8 C8         -0.5510   -0.0120    0.5190 c3        1 2IH     -0.078400
      9 C9          0.5510   -0.0120   -0.5190 c3        1 2IH     -0.078400
     10 C10         1.9140   -0.0140    0.1400 c3        1 2IH     -0.103400
     11 C11         3.0070   -0.0100   -0.9320 c3        1 2IH      0.040300
     12 N12         4.3450   -0.0170   -0.4220 na        1 2IH     -0.208900
     13 C16         5.1430    1.1030   -0.1340 cc        1 2IH      0.386400
     14 C13         5.0820   -1.1410   -0.0330 cc        1 2IH     -0.257600
     15 C14         6.3060   -0.6550    0.4590 cd        1 2IH      0.290200
     16 N15         6.3310    0.7380    0.3900 nd        1 2IH     -0.666000
     17 H1         -4.7010   -2.1540    0.1410 h4        1 2IH      0.175000
     18 H5         -7.1520   -1.2200   -0.8470 h4        1 2IH      0.042100
     19 H3         -4.8160    2.1270    0.3360 h5        1 2IH      0.059100
     20 H6C1       -2.8750   -0.9180    1.5890 h1        1 2IH      0.060700
     21 H6C2       -2.8830    0.9090    1.5750 h1        1 2IH      0.060700
     22 H7C1       -2.0180    0.8870   -0.7990 hc        1 2IH      0.055700
     23 H7C2       -2.0200   -0.9200   -0.7920 hc        1 2IH      0.055700
     24 H8C1       -0.4470   -0.9150    1.1780 hc        1 2IH      0.044700
     25 H8C2       -0.4490    0.8920    1.1760 hc        1 2IH      0.044700
     26 H9C1        0.4470   -0.9150   -1.1780 hc        1 2IH      0.044700
     27 H9C2        0.4490    0.8910   -1.1760 hc        1 2IH      0.044700
     28 H101        2.0180    0.8870    0.7990 hc        1 2IH      0.055700
     29 H102        2.0200   -0.9200    0.7920 hc        1 2IH      0.055700
     30 H111        2.8750   -0.9180   -1.5890 h1        1 2IH      0.060700
     31 H112        2.8830    0.9090   -1.5750 h1        1 2IH      0.060700
     32 H16         4.8160    2.1270   -0.3360 h5        1 2IH      0.059100
     33 H13         4.7010   -2.1540   -0.1410 h4        1 2IH      0.175000
     34 H14         7.1520   -1.2200    0.8470 h4        1 2IH      0.042100
@<TRIPOS>BOND
     1    1    2 2   
     2    1    5 1   
     3    1   17 1   
     4    2    3 1   
     5    2   18 1   
     6    3    4 2   
     7    4    5 1   
     8    4   19 1   
     9    5    6 1   
    10    6    7 1   
    11    6   20 1   
    12    6   21 1   
    13    7    8 1   
    14    7   22 1   
    15    7   23 1   
    16    8    9 1   
    17    8   24 1   
    18    8   25 1   
    19    9   10 1   
    20    9   26 1   
    21    9   27 1   
    22   10   11 1   
    23   10   28 1   
    24   10   29 1   
    25   11   12 1   
    26   11   30 1   
    27   11   31 1   
    28   12   13 1   
    29   12   14 1   
    30   13   16 2   
    31   13   32 1   
    32   14   15 2   
    33   14   33 1   
    34   15   16 1   
    35   15   34 1   
@<TRIPOS>SUBSTRUCTURE
     1 2IH         1 TEMP              0 ****  ****    0 ROOT
