@<TRIPOS>MOLECULE
2IH
   34    35     1     0     0
SMALL
bcc


@<TRIPOS>ATOM
      1 C1          0.0200   -0.0180   -0.0460 cc        1 2IH     -0.257600
      2 C5          1.4250    0.0450   -0.0290 cd        1 2IH      0.290200
      3 N4          1.8860    0.1170    1.2860 nd        1 2IH     -0.666000
      4 C3          0.7840    0.0980    2.0640 cc        1 2IH      0.386400
      5 N2         -0.3870    0.0290    1.2920 na        1 2IH     -0.208900
      6 C6         -1.7310   -0.0660    1.7770 c3        1 2IH      0.040300
      7 C7         -2.2480   -1.4950    1.9560 c3        1 2IH     -0.103400
      8 C8         -3.6740   -1.4640    2.4640 c3        1 2IH     -0.078400
      9 C9         -4.2110   -2.8670    2.6550 c3        1 2IH     -0.078400
     10 C10        -5.6370   -2.8360    3.1590 c3        1 2IH     -0.103400
     11 C11        -6.1520   -4.2660    3.3460 c3        1 2IH      0.040300
     12 N12        -7.5000   -4.3600    3.8170 na        1 2IH     -0.208900
     13 C16        -7.9220   -4.4300    5.1560 cc        1 2IH      0.386400
     14 C13        -8.6600   -4.3130    3.0370 cc        1 2IH     -0.257600
     15 C14        -9.7400   -4.3760    3.9370 cd        1 2IH      0.290200
     16 N15        -9.2680   -4.4490    5.2470 nd        1 2IH     -0.666000
     17 H1         -0.6870   -0.0780   -0.8690 h4        1 2IH      0.175000
     18 H5          2.1130    0.0450   -0.8730 h4        1 2IH      0.042100
     19 H3          0.7680    0.1460    3.1570 h5        1 2IH      0.059100
     20 H6C1       -1.7820    0.4670    2.7700 h1        1 2IH      0.060700
     21 H6C2       -2.4060    0.4760    1.0530 h1        1 2IH      0.060700
     22 H7C1       -1.5980   -2.0520    2.6810 hc        1 2IH      0.055700
     23 H7C2       -2.2050   -2.0440    0.9790 hc        1 2IH      0.055700
     24 H8C1       -3.7170   -0.9100    3.4390 hc        1 2IH      0.044700
     25 H8C2       -4.3240   -0.9090    1.7380 hc        1 2IH      0.044700
     26 H9C1       -3.5620   -3.4220    3.3830 hc        1 2IH      0.044700
     27 H9C2       -4.1650   -3.4220    1.6800 hc        1 2IH      0.044700
     28 H101       -6.2870   -2.2870    2.4290 hc        1 2IH      0.055700
     29 H102       -5.6840   -2.2800    4.1320 hc        1 2IH      0.055700
     30 H111       -6.0850   -4.8080    2.3590 h1        1 2IH      0.060700
     31 H112       -5.4850   -4.7990    4.0840 h1        1 2IH      0.060700
     32 H16        -7.2200   -4.4790    5.9940 h5        1 2IH      0.059100
     33 H13        -8.6310   -4.2520    1.9520 h4        1 2IH      0.175000
     34 H14       -10.8060   -4.3760    3.7150 h4        1 2IH      0.042100
@<TRIPOS>BOND
     1    1    2 2   
     2    1    5 1   
     3    1   17 1   
     4    2    3 1   
     5    2   18 1   
     6    3    4 2   
     7    4    5 1   
     8    4   19 1   
     9    5    6 1   
    10    6    7 1   
    11    6   20 1   
    12    6   21 1   
    13    7    8 1   
    14    7   22 1   
    15    7   23 1   
    16    8    9 1   
    17    8   24 1   
    18    8   25 1   
    19    9   10 1   
    20    9   26 1   
    21    9   27 1   
    22   10   11 1   
    23   10   28 1   
    24   10   29 1   
    25   11   12 1   
    26   11   30 1   
    27   11   31 1   
    28   12   13 1   
    29   12   14 1   
    30   13   16 2   
    31   13   32 1   
    32   14   15 2   
    33   14   33 1   
    34   15   16 1   
    35   15   34 1   
@<TRIPOS>SUBSTRUCTURE
     1 2IH         1 TEMP              0 ****  ****    0 ROOT
