@<TRIPOS>MOLECULE
2IH
   34    28     1     0     0
SMALL
bcc


@<TRIPOS>ATOM
      1 C1          4.0240   -2.4120   -2.0650 c1        1 2IH     -0.171000
      2 C5          5.3030   -2.0420   -2.3810 c1        1 2IH     -0.171000
      3 N4          5.7350   -1.2050   -1.4360 n2        1 2IH     -0.152000
      4 C3          4.7400   -1.0450   -0.5310 c1        1 2IH     -0.102000
      5 N2          3.6860   -1.7970   -0.9300 n2        1 2IH     -0.152000
      6 C6          2.4580   -1.9710   -0.2110 c2        1 2IH     -0.019000
      7 C7          1.4170   -1.0060   -0.7450 c3        1 2IH     -0.182000
      8 C8          0.2720   -0.9070    0.2390 c3        1 2IH     -0.157000
      9 C9         -0.8840   -0.1590   -0.4010 c3        1 2IH     -0.157000
     10 C10        -1.7670    0.4300    0.6840 c3        1 2IH     -0.182000
     11 C11        -2.9540    1.1450    0.0400 c3        1 2IH     -0.019000
     12 N12        -3.6080    1.9810    1.0250 n3        1 2IH     -0.164000
     13 C16        -4.6840    1.6340    1.7760 c1        1 2IH     -0.102000
     14 C13        -3.3050    3.2540    1.3010 c1        1 2IH     -0.167000
     15 C14        -4.2030    3.7110    2.2360 c1        1 2IH     -0.175000
     16 N15        -5.0430    2.7150    2.5220 n2        1 2IH     -0.140000
     17 H1          3.4590   -3.0180   -2.5790 DU        1 2IH      0.183333
     18 H5          5.8110   -2.3400   -3.1620 DU        1 2IH      0.183333
     19 H3          4.7770   -0.4860    0.2680 DU        1 2IH      0.183333
     20 H6C1        2.6090   -1.7940    0.7430 ha        1 2IH      0.099500
     21 H6C2        2.1390   -2.8920   -0.3260 ha        1 2IH      0.099500
     22 H7C1        1.0840   -1.3300   -1.6000 hc        1 2IH      0.095000
     23 H7C2        1.8230   -0.1220   -0.8650 hc        1 2IH      0.095000
     24 H8C1       -0.0190   -1.8030    0.4890 hc        1 2IH      0.084000
     25 H8C2        0.5700   -0.4260    1.0390 hc        1 2IH      0.084000
     26 H9C1       -1.4080   -0.7760   -0.9490 hc        1 2IH      0.084000
     27 H9C2       -0.5340    0.5630   -0.9660 hc        1 2IH      0.084000
     28 H101       -1.2540    1.0650    1.2110 hc        1 2IH      0.095000
     29 H102       -2.0940   -0.2870    1.2630 hc        1 2IH      0.095000
     30 H111       -3.5910    0.4810   -0.2990 h1        1 2IH      0.099500
     31 H112       -2.6370    1.7020   -0.7010 h1        1 2IH      0.099500
     32 H16        -5.1240    0.7610    1.7810 DU        1 2IH      0.183333
     33 H13        -2.5760    3.7680    0.9070 DU        1 2IH      0.183333
     34 H14        -4.2230    4.6070    2.6220 DU        1 2IH      0.183333
@<TRIPOS>BOND
     1    1    2 1   
     2    1    5 1   
     3    2    3 1   
     4    3    4 1   
     5    4    5 1   
     6    6    7 1   
     7    6   20 1   
     8    6   21 1   
     9    7    8 1   
    10    7   22 1   
    11    7   23 1   
    12    8    9 1   
    13    8   24 1   
    14    8   25 1   
    15    9   10 1   
    16    9   26 1   
    17    9   27 1   
    18   10   11 1   
    19   10   28 1   
    20   10   29 1   
    21   11   12 1   
    22   11   30 1   
    23   11   31 1   
    24   12   13 1   
    25   12   14 1   
    26   13   16 1   
    27   14   15 1   
    28   15   16 1   
@<TRIPOS>SUBSTRUCTURE
     1 2IH         1 TEMP              0 ****  ****    0 ROOT
