@<TRIPOS>MOLECULE
2IK
   55    53     1     0     0
SMALL
bcc


@<TRIPOS>ATOM
      1 C1          0.8770    0.4170    0.9320 c2        1 2IK     -0.012000
      2 C2          2.1790    0.9840    0.6800 c2        1 2IK     -0.155000
      3 C3          0.1660   -0.3760    5.6750 c1        1 2IK     -0.188000
      4 C4          0.6620   -0.1780    4.6040 c1        1 2IK     -0.194000
      5 C5          1.3190    0.0800    3.3570 c3        1 2IK     -0.016000
      6 C6          0.4440   -0.0120    2.1450 c2        1 2IK     -0.150000
      7 N11         3.4310    0.0860   -6.3780 n2        1 2IK     -0.176000
      8 C12         4.4950    0.0130   -5.4290 c2        1 2IK      0.032000
      9 N12         4.2110   -0.6970   -4.2260 n8        1 2IK     -0.313000
     10 C13         5.7220    0.5610   -5.6430 c2        1 2IK     -0.315000
     11 C29        -1.8990   -0.4150    1.4800 c2        1 2IK     -0.284000
     12 C14         3.3410    3.4770   -7.7110 c1        1 2IK     -0.108000
     13 C15         3.6280    2.5260   -6.8610 c2        1 2IK     -0.172000
     14 C16         3.1030    1.1650   -6.9940 c2        1 2IK      0.017000
     15 C19         2.5570    1.3970   -0.5070 c1        1 2IK     -0.094000
     16 N21        -5.3060    0.7820    1.8370 n2        1 2IK     -0.396000
     17 C22        -6.4910    0.6460    1.2630 c2        1 2IK      0.165000
     18 N22        -6.7200   -0.3480    0.3160 n8        1 2IK     -0.356000
     19 C23        -7.6570    1.4880    1.6390 c2        1 2IK     -0.131000
     20 C24        -7.5230    2.4410    2.5960 c2        1 2IK     -0.095000
     21 C25        -6.2570    2.6440    3.2660 c1        1 2IK     -0.016000
     22 C26        -5.1470    1.7840    2.8550 c3        1 2IK     -0.169000
     23 C28        -0.8590   -0.6130    2.3180 c2        1 2IK      0.011000
     24 N29        -3.1990   -1.0200    1.6680 nz        1 2IK     -0.057000
     25 H221       -5.9470   -0.7300   -0.1730 hn        1 2IK      0.220500
     26 H222       -7.5650   -0.2750   -0.2030 hn        1 2IK      0.220500
     27 H23        -8.6140    1.3090    1.1240 ha        1 2IK      0.162000
     28 H25        -4.3130    2.4880    2.5290 h1        1 2IK      0.171500
     29 H281       -1.8610    0.2390    0.5900 hx        1 2IK      0.187000
     30 H282       -4.7750    1.2770    3.8020 h1        1 2IK      0.171500
     31 H29        -0.9640   -1.2550    3.2170 ha        1 2IK      0.154000
     32 H291       -3.2460   -1.5250    2.5550 hn        1 2IK      0.256333
     33 H292       -3.9690   -0.2600    1.6640 hn        1 2IK      0.256333
     34 H1          0.2200    0.3200    0.0480 ha        1 2IK      0.124000
     35 H5          2.1780   -0.6450    3.2380 hc        1 2IK      0.124000
     36 H4          1.7670    1.1170    3.4030 hc        1 2IK      0.124000
     37 H3          2.8810    1.0620    1.5320 ha        1 2IK      0.155000
     38 H191        2.8290    2.8500   -2.0000 ha        1 2IK      0.169000
     39 H192       -0.2580   -0.5470    6.6330 ha        1 2IK      0.233000
     40 H15         4.2910    2.7280   -5.9990 ha        1 2IK      0.158000
     41 H121        3.4490   -1.3380   -4.3160 hn        1 2IK      0.173000
     42 H122        5.0280   -1.1690   -3.8920 hn        1 2IK      0.173000
     43 H13         5.9410    1.1660   -6.5290 ha        1 2IK      0.128500
     44 H171        3.7080    4.6290   -9.4300 ha        1 2IK      0.146500
     45 H172        2.2160    5.1040   -8.4240 ha        1 2IK      0.146500
     46 H173        6.5640    0.4050   -4.9590 ha        1 2IK      0.128500
     47 C18         2.9670    1.8100   -1.6630 c2        1 2IK     -0.159000
     48 H181        2.2830    1.0400   -7.7370 h4        1 2IK      0.153000
     49 H182        3.4840    1.1470   -2.3800 ha        1 2IK      0.169000
     50 H293       -3.3800   -1.6790    0.9090 hn        1 2IK      0.256333
     51 C27        -8.6440    3.3140    3.0100 c3        1 2IK     -0.183000
     52 C17         3.0790    4.4330   -8.5470 c2        1 2IK     -0.171000
     53 H271       -8.3680    4.3860    2.8400 hc        1 2IK      0.107333
     54 H272       -9.5800    3.0860    2.4450 hc        1 2IK      0.107333
     55 H273       -8.8380    3.1830    4.1050 hc        1 2IK      0.107333
@<TRIPOS>BOND
     1    1    2 1   
     2    1    6 1   
     3    1   34 1   
     4    2   15 1   
     5    2   37 1   
     6    3    4 1   
     7    3   39 1   
     8    4    5 1   
     9    5    6 1   
    10    5   35 1   
    11    5   36 1   
    12    6   23 1   
    13    7    8 1   
    14    7   14 1   
    15    8    9 1   
    16    8   10 1   
    17    9   41 1   
    18    9   42 1   
    19   10   43 1   
    20   10   46 1   
    21   11   23 1   
    22   11   24 1   
    23   11   29 1   
    24   12   13 1   
    25   12   52 1   
    26   13   14 1   
    27   13   40 1   
    28   14   48 1   
    29   15   47 1   
    30   16   17 1   
    31   16   22 1   
    32   17   18 1   
    33   17   19 1   
    34   18   25 1   
    35   18   26 1   
    36   19   20 1   
    37   19   27 1   
    38   20   21 1   
    39   20   51 1   
    40   21   22 1   
    41   22   28 1   
    42   22   30 1   
    43   23   31 1   
    44   24   32 1   
    45   24   33 1   
    46   24   50 1   
    47   38   47 1   
    48   44   52 1   
    49   45   52 1   
    50   47   49 1   
    51   51   53 1   
    52   51   54 1   
    53   51   55 1   
@<TRIPOS>SUBSTRUCTURE
     1 2IK         1 TEMP              0 ****  ****    0 ROOT
