@<TRIPOS>MOLECULE
2IK
   55    51     1     0     0
SMALL
bcc


@<TRIPOS>ATOM
      1 C1         -0.7790   -0.7210    0.5030 c2        1 2IK     -0.067000
      2 C2         -0.3990   -0.9460   -0.7660 c2        1 2IK     -0.236000
      3 C3          3.4300   -0.4630    0.2660 c1        1 2IK      0.251000
      4 C4          2.2540   -0.8740    0.6970 c2        1 2IK     -0.478000
      5 C5          1.3910   -0.2320    1.6550 c2        1 2IK      0.007000
      6 C6          0.0380   -0.1730    1.5770 c2        1 2IK     -0.026000
      7 N11         2.4620    2.2650   -3.6540 n2        1 2IK     -0.209000
      8 C12         3.0330    1.1730   -2.9300 c2        1 2IK      0.090000
      9 N12         4.2790    1.3330   -2.2910 n3        1 2IK     -0.352000
     10 C13         2.3440   -0.0030   -2.8510 c2        1 2IK     -0.381000
     11 C29        -0.6840    0.4380    2.6300 c1        1 2IK     -0.138000
     12 C14         4.8570    3.3950   -6.1610 c1        1 2IK     -0.098000
     13 C15         4.3630    2.6200   -5.2310 c2        1 2IK     -0.179000
     14 C16         3.0540    2.8670   -4.6240 c2        1 2IK      0.041000
     15 C19        -1.5010    1.1050   -1.0360 c1        1 2IK     -0.038000
     16 N21        -3.7090    1.2320    0.4440 n3        1 2IK     -0.308000
     17 C22        -4.7780    0.4220    0.3440 c2        1 2IK      0.287000
     18 N22        -4.7930   -0.6520   -0.4990 n3        1 2IK     -0.340000
     19 C23        -6.0180    0.7190    1.1100 c2        1 2IK     -0.121000
     20 C24        -6.0830    1.7980    1.9300 c2        1 2IK     -0.077000
     21 C25        -4.9320    2.6540    2.1200 c1        1 2IK     -0.001000
     22 C26        -3.7340    2.3610    1.3500 c3        1 2IK     -0.144000
     23 C28        -1.2910    0.9550    3.5250 c1        1 2IK     -0.201000
     24 N29        -3.9860   -1.1950    2.4680 n3        1 2IK     -0.428000
     25 H221       -3.9760   -0.9380   -0.9870 hn        1 2IK      0.256000
     26 H222       -5.5650   -1.2760   -0.4660 hn        1 2IK      0.256000
     27 H23        -6.8700    0.0300    0.9790 ha        1 2IK      0.170000
     28 H25        -3.4740    3.3050    0.7680 h1        1 2IK      0.189000
     29 H281       -2.7870    1.0690   -0.1310 hn        1 2IK      0.347000
     30 H282       -2.8900    2.2170    2.1090 h1        1 2IK      0.189000
     31 H29        -1.7990    1.4150    4.3380 ha        1 2IK      0.238000
     32 H291       -4.6930   -1.2020    3.1760 hn        1 2IK      0.144000
     33 H292       -3.1700   -0.7450    2.8370 hn        1 2IK      0.144000
     34 H1         -1.8120   -0.9790    0.8090 ha        1 2IK      0.126000
     35 H5          1.9010    0.2250    2.5260 ha        1 2IK      0.155000
     36 H4          1.8840   -1.8420    0.2790 ha        1 2IK      0.213000
     37 H3          0.6090   -0.7260   -1.1540 ha        1 2IK      0.140000
     38 H191        0.4010    1.3100   -2.0520 ha        1 2IK      0.221000
     39 H192       -1.0710   -1.4350   -1.4870 ha        1 2IK      0.140000
     40 H15         4.9310    1.7370   -4.8800 ha        1 2IK      0.171000
     41 H121        4.4460    0.6790   -1.5550 hn        1 2IK      0.200000
     42 H122        4.5330    2.2670   -2.0580 hn        1 2IK      0.200000
     43 H13         1.4490   -0.1960   -3.4500 ha        1 2IK      0.117000
     44 H171        2.7060   -0.8410   -2.2450 ha        1 2IK      0.117000
     45 H172        5.2070    3.9610   -8.1550 ha        1 2IK      0.151500
     46 H173        6.0200    5.0060   -6.8460 ha        1 2IK      0.151500
     47 C18        -0.6270    1.6560   -1.8180 c2        1 2IK     -0.393000
     48 H181        2.4650    3.6970   -5.0790 h4        1 2IK      0.151000
     49 H182       -0.8630    2.5890   -2.3710 ha        1 2IK      0.221000
     50 H293       -3.7520   -2.1420    2.2480 hn        1 2IK      0.144000
     51 C27        -7.3080    2.1520    2.6790 c3        1 2IK     -0.187000
     52 C17         5.3760    4.1450   -7.0820 c2        1 2IK     -0.167000
     53 H271       -7.6460    3.1780    2.3790 hc        1 2IK      0.113000
     54 H272       -7.0850    2.1780    3.7770 hc        1 2IK      0.113000
     55 H273       -8.1370    1.4280    2.4910 hc        1 2IK      0.113000
@<TRIPOS>BOND
     1    1    2 1   
     2    1    6 1   
     3    1   34 1   
     4    2   37 1   
     5    2   39 1   
     6    3    4 1   
     7    4    5 1   
     8    4   36 1   
     9    5    6 1   
    10    5   35 1   
    11    6   11 1   
    12    7    8 1   
    13    7   14 1   
    14    8    9 1   
    15    8   10 1   
    16    9   41 1   
    17    9   42 1   
    18   10   43 1   
    19   10   44 1   
    20   11   23 1   
    21   12   13 1   
    22   12   52 1   
    23   13   14 1   
    24   13   40 1   
    25   14   48 1   
    26   15   47 1   
    27   16   17 1   
    28   16   22 1   
    29   16   29 1   
    30   17   18 1   
    31   17   19 1   
    32   18   25 1   
    33   18   26 1   
    34   19   20 1   
    35   19   27 1   
    36   20   21 1   
    37   20   51 1   
    38   21   22 1   
    39   22   28 1   
    40   22   30 1   
    41   23   31 1   
    42   24   32 1   
    43   24   33 1   
    44   24   50 1   
    45   38   47 1   
    46   45   52 1   
    47   46   52 1   
    48   47   49 1   
    49   51   53 1   
    50   51   54 1   
    51   51   55 1   
@<TRIPOS>SUBSTRUCTURE
     1 2IK         1 TEMP              0 ****  ****    0 ROOT
