@<TRIPOS>MOLECULE
2IK
   54    54     1     0     0
SMALL
bcc


@<TRIPOS>ATOM
      1 C1          0.1610    0.2630    0.3770 c2        1 2IK     -0.112000
      2 C2          1.5940    0.0760    0.3010 c2        1 2IK     -0.143000
      3 C3          1.4890    2.0900    3.7530 c1        1 2IK     -0.216000
      4 C4          0.8430    1.1710    3.3390 c1        1 2IK     -0.165000
      5 C5          0.0700    0.0570    2.8660 c3        1 2IK     -0.024000
      6 C6         -0.5420    0.2900    1.5230 c2        1 2IK     -0.094000
      7 N11         3.5020   -0.0770   -3.5650 n2        1 2IK     -0.166000
      8 C12         4.1680    0.6580   -4.5880 c2        1 2IK      0.045000
      9 N12         3.9220    2.0480   -4.7710 n3        1 2IK     -0.337000
     10 C13         5.0520   -0.0020   -5.3870 c2        1 2IK     -0.285000
     11 C29        -2.0390    0.5240    1.4790 c3        1 2IK     -0.004000
     12 C14         0.9610    1.1550   -5.0060 c1        1 2IK     -0.097000
     13 C15         1.2860    1.0650   -3.7470 c2        1 2IK     -0.172000
     14 C16         2.2750    0.1090   -3.2100 c2        1 2IK      0.063000
     15 C19         2.2770   -0.3350   -0.7750 c2        1 2IK     -0.144000
     16 N21        -3.6350    3.2390    0.9070 n2        1 2IK     -0.226000
     17 C22        -4.5720    3.1480   -0.0110 c2        1 2IK      0.062000
     18 N22        -4.4900    3.8800   -1.2170 n3        1 2IK     -0.317000
     19 C23        -5.7320    2.2300    0.1060 c2        1 2IK     -0.083000
     20 C24        -5.8380    1.4230    1.1940 c2        1 2IK     -0.143000
     21 C25        -4.8170    1.4150    2.2050 c1        1 2IK     -0.084000
     22 C26        -3.7190    2.3840    2.0690 c3        1 2IK     -0.116000
     23 C28        -2.3740    1.7070    2.4080 c3        1 2IK     -0.138000
     24 N29        -2.7760   -0.7020    1.7340 n3        1 2IK     -0.330000
     25 H221       -5.3700    4.2480   -1.5050 hn        1 2IK      0.190500
     26 H222       -3.7590    4.5600   -1.2470 hn        1 2IK      0.190500
     27 H23        -6.4760    2.2230   -0.7060 ha        1 2IK      0.147000
     28 H25        -3.9210    3.1040    2.9440 h1        1 2IK      0.173000
     29 H281       -2.3150    0.8320    0.4230 h1        1 2IK      0.108000
     30 H282       -1.5530    2.4670    2.3380 hc        1 2IK      0.105000
     31 H29        -2.4380    1.3590    3.4710 hc        1 2IK      0.105000
     32 H291       -3.7560   -0.5030    1.8390 hn        1 2IK      0.149000
     33 H292       -2.4540   -1.1400    2.5750 hn        1 2IK      0.149000
     34 H1         -0.3650    0.4030   -0.5850 ha        1 2IK      0.129000
     35 H5         -0.7320   -0.1690    3.6260 hc        1 2IK      0.106000
     36 H4          0.7360   -0.8530    2.8130 hc        1 2IK      0.106000
     37 H3          2.0620    2.9030    4.1180 ha        1 2IK      0.222000
     38 H191        2.1490    0.3080    1.2310 ha        1 2IK      0.131000
     39 H192        3.3770   -0.4220   -0.7210 ha        1 2IK      0.136000
     40 H15         0.7900    1.6940   -2.9840 ha        1 2IK      0.154000
     41 H121        4.7310    2.5310   -5.1010 hn        1 2IK      0.173500
     42 H122        3.5220    2.4990   -3.9760 hn        1 2IK      0.173500
     43 H13         5.2080   -1.0830   -5.3120 ha        1 2IK      0.124500
     44 H171       -0.1810    0.6530   -6.6980 ha        1 2IK      0.140000
     45 H172        1.1390    1.9460   -6.9410 ha        1 2IK      0.140000
     46 H173        5.6400    0.5150   -6.1530 ha        1 2IK      0.124500
     47 C27        -6.9750    0.4910    1.3760 c3        1 2IK     -0.168000
     48 C18         1.7000   -0.7320   -2.0810 c3        1 2IK     -0.106000
     49 C17         0.6260    1.2550   -6.2550 c2        1 2IK     -0.172000
     50 H271       -7.5060    0.7230    2.3330 hc        1 2IK      0.089667
     51 H272       -6.5930   -0.5590    1.4410 hc        1 2IK      0.089667
     52 H273       -7.7040    0.5580    0.5330 hc        1 2IK      0.089667
     53 H181        1.9370   -1.8170   -2.2640 hc        1 2IK      0.110000
     54 H182        0.5820   -0.6330   -2.0920 hc        1 2IK      0.110000
@<TRIPOS>BOND
     1    1    2 1   
     2    1    6 1   
     3    1   34 1   
     4    2   15 1   
     5    2   38 1   
     6    3    4 1   
     7    3   37 1   
     8    4    5 1   
     9    5    6 1   
    10    5   35 1   
    11    5   36 1   
    12    6   11 1   
    13    7    8 1   
    14    7   14 1   
    15    8    9 1   
    16    8   10 1   
    17    9   41 1   
    18    9   42 1   
    19   10   43 1   
    20   10   46 1   
    21   11   23 1   
    22   11   24 1   
    23   11   29 1   
    24   12   13 1   
    25   12   49 1   
    26   13   14 1   
    27   13   40 1   
    28   14   48 1   
    29   15   39 1   
    30   15   48 1   
    31   16   17 1   
    32   16   22 1   
    33   17   18 1   
    34   17   19 1   
    35   18   25 1   
    36   18   26 1   
    37   19   20 1   
    38   19   27 1   
    39   20   21 1   
    40   20   47 1   
    41   21   22 1   
    42   22   23 1   
    43   22   28 1   
    44   23   30 1   
    45   23   31 1   
    46   24   32 1   
    47   24   33 1   
    48   44   49 1   
    49   45   49 1   
    50   47   50 1   
    51   47   51 1   
    52   47   52 1   
    53   48   53 1   
    54   48   54 1   
@<TRIPOS>SUBSTRUCTURE
     1 2IK         1 TEMP              0 ****  ****    0 ROOT
