@<TRIPOS>MOLECULE
2IM
   17    17     1     0     0
SMALL
bcc


@<TRIPOS>ATOM
      1 N2          2.3110   -0.1140    0.3820 n2        1 2IM     -0.767100
      2 C1          1.0930    0.0000   -0.0250 c2        1 2IM      0.565200
      3 N1          0.4130    1.2680   -0.2200 nh        1 2IM     -0.828200
      4 C4         -0.9450    1.2930    0.2780 c3        1 2IM      0.164800
      5 C5         -1.8100    0.0900   -0.0960 c3        1 2IM     -0.117400
      6 C3         -1.0990   -1.1930    0.2760 c3        1 2IM     -0.078400
      7 C2          0.2850   -1.2560   -0.3340 c3        1 2IM     -0.140700
      8 HN2         2.8120    0.7320    0.5590 hn        1 2IM      0.398400
      9 HN1         0.4480    1.5140   -1.1930 hn        1 2IM      0.372800
     10 H41        -1.4360    2.2360   -0.0930 h1        1 2IM      0.055200
     11 H42        -0.8840    1.3560    1.4020 h1        1 2IM      0.055200
     12 H51        -2.0300    0.1000   -1.1940 hc        1 2IM      0.047200
     13 H52        -2.7870    0.1600    0.4460 hc        1 2IM      0.047200
     14 H31        -1.6960   -2.0750   -0.0740 hc        1 2IM      0.048700
     15 H32        -1.0180   -1.2650    1.3930 hc        1 2IM      0.048700
     16 H21         0.2090   -1.3400   -1.4510 hc        1 2IM      0.064200
     17 H22         0.8170   -2.1700    0.0390 hc        1 2IM      0.064200
@<TRIPOS>BOND
     1    1    2 2   
     2    1    8 1   
     3    2    3 1   
     4    2    7 1   
     5    3    4 1   
     6    3    9 1   
     7    4    5 1   
     8    4   10 1   
     9    4   11 1   
    10    5    6 1   
    11    5   12 1   
    12    5   13 1   
    13    6    7 1   
    14    6   14 1   
    15    6   15 1   
    16    7   16 1   
    17    7   17 1   
@<TRIPOS>SUBSTRUCTURE
     1 2IM         1 TEMP              0 ****  ****    0 ROOT
