@<TRIPOS>MOLECULE
2IM
   17    17     1     0     0
SMALL
bcc


@<TRIPOS>ATOM
      1 N2         -0.0290   -0.2410   -0.0810 n2        1 2IM     -0.841100
      2 C1          1.2480   -0.0300    0.0160 c2        1 2IM      0.607200
      3 N1          2.0060    0.0110    1.2170 nh        1 2IM     -0.858200
      4 C4          3.1850    0.8380    1.2890 c3        1 2IM      0.199800
      5 C5          4.0330    0.8320    0.0210 c3        1 2IM     -0.085400
      6 C3          3.1650    1.0850   -1.1900 c3        1 2IM     -0.082400
      7 C2          2.0580    0.0590   -1.2760 c3        1 2IM     -0.113700
      8 HN2        -0.5400   -0.3250    0.7710 hn        1 2IM      0.378400
      9 HN1         1.4630    0.0560    2.0550 hn        1 2IM      0.392800
     10 H41         3.8060    0.4530    2.1490 h1        1 2IM      0.031200
     11 H42         2.9090    1.9090    1.5250 h1        1 2IM      0.031200
     12 H51         4.5550   -0.1540   -0.0840 hc        1 2IM      0.051700
     13 H52         4.8170    1.6260    0.1140 hc        1 2IM      0.051700
     14 H31         2.7260    2.1160   -1.1340 hc        1 2IM      0.048200
     15 H32         3.7870    1.0360   -2.1220 hc        1 2IM      0.048200
     16 H21         2.4910   -0.9590   -1.4660 hc        1 2IM      0.070200
     17 H22         1.3800    0.3080   -2.1340 hc        1 2IM      0.070200
@<TRIPOS>BOND
     1    1    2 2   
     2    1    8 1   
     3    2    3 1   
     4    2    7 1   
     5    3    4 1   
     6    3    9 1   
     7    4    5 1   
     8    4   10 1   
     9    4   11 1   
    10    5    6 1   
    11    5   12 1   
    12    5   13 1   
    13    6    7 1   
    14    6   14 1   
    15    6   15 1   
    16    7   16 1   
    17    7   17 1   
@<TRIPOS>SUBSTRUCTURE
     1 2IM         1 TEMP              0 ****  ****    0 ROOT
