@<TRIPOS>MOLECULE
2IM
   17    17     1     0     0
SMALL
bcc


@<TRIPOS>ATOM
      1 N2         -0.0280   -0.2300   -0.0700 n2        1 2IM     -0.841100
      2 C1          1.2500   -0.0240    0.0240 c2        1 2IM      0.607200
      3 N1          2.0110    0.0110    1.2240 nu        1 2IM     -0.858200
      4 C4          3.1930    0.8340    1.2960 c3        1 2IM      0.199800
      5 C5          4.0380    0.8290    0.0260 c3        1 2IM     -0.085400
      6 C3          3.1690    1.0880   -1.1830 c3        1 2IM     -0.082400
      7 C2          2.0570    0.0660   -1.2690 c3        1 2IM     -0.113700
      8 HN2        -0.5380   -0.3140    0.7830 hn        1 2IM      0.378400
      9 HN1         1.4700    0.0570    2.0630 hn        1 2IM      0.392800
     10 H41         2.9210    1.9060    1.5350 h1        1 2IM      0.031200
     11 H42         3.8140    0.4450    2.1530 h1        1 2IM      0.031200
     12 H51         4.8250    1.6200    0.1180 hc        1 2IM      0.051700
     13 H52         4.5560   -0.1590   -0.0830 hc        1 2IM      0.051700
     14 H31         3.7880    1.0390   -2.1170 hc        1 2IM      0.048200
     15 H32         2.7330    2.1200   -1.1230 hc        1 2IM      0.048200
     16 H21         2.4870   -0.9530   -1.4620 hc        1 2IM      0.070200
     17 H22         1.3780    0.3190   -2.1250 hc        1 2IM      0.070200
@<TRIPOS>BOND
     1    1    2 2   
     2    1    8 1   
     3    2    3 1   
     4    2    7 1   
     5    3    4 1   
     6    3    9 1   
     7    4    5 1   
     8    4   10 1   
     9    4   11 1   
    10    5    6 1   
    11    5   12 1   
    12    5   13 1   
    13    6    7 1   
    14    6   14 1   
    15    6   15 1   
    16    7   16 1   
    17    7   17 1   
@<TRIPOS>SUBSTRUCTURE
     1 2IM         1 TEMP              0 ****  ****    0 ROOT
