@<TRIPOS>MOLECULE
2IM
   17    15     1     0     0
SMALL
bcc


@<TRIPOS>ATOM
      1 N2         -2.5240   -0.5880    0.0600 n1        1 2IM     -0.634800
      2 C1         -1.2170   -0.5880    0.0600 c1        1 2IM      0.444700
      3 N1         -0.4480   -0.5880    1.2560 n2        1 2IM     -0.706000
      4 C4          0.5910    0.4430    1.2720 c3        1 2IM      0.199800
      5 C5          1.4280    0.4500    0.0900 c3        1 2IM     -0.085400
      6 C3          0.6260    0.4840   -1.1900 c3        1 2IM     -0.082400
      7 C2         -0.3620   -0.5880   -1.2690 c3        1 2IM     -0.065300
      8 HN2        -2.9800   -0.5880    0.8500 DU        1 2IM      0.134000
      9 HN1        -0.8220   -0.8710    2.0390 hn        1 2IM      0.392800
     10 H41         0.1610    1.3160    1.3530 h1        1 2IM      0.031200
     11 H42         1.1580    0.3000    2.0530 h1        1 2IM      0.031200
     12 H51         2.0080    1.2340    0.1200 hc        1 2IM      0.051700
     13 H52         1.9830   -0.3530    0.0930 hc        1 2IM      0.051700
     14 H31         0.1640    1.3420   -1.2490 hc        1 2IM      0.048200
     15 H32         1.2380    0.4040   -1.9470 hc        1 2IM      0.048200
     16 H21        -0.0120   -1.4350   -1.6050 hc        1 2IM      0.070200
     17 H22        -0.9900   -0.3720   -1.9850 hc        1 2IM      0.070200
@<TRIPOS>BOND
     1    1    2 3   
     2    2    7 1   
     3    3    4 1   
     4    3    9 1   
     5    4    5 1   
     6    4   10 1   
     7    4   11 1   
     8    5    6 1   
     9    5   12 1   
    10    5   13 1   
    11    6    7 1   
    12    6   14 1   
    13    6   15 1   
    14    7   16 1   
    15    7   17 1   
@<TRIPOS>SUBSTRUCTURE
     1 2IM         1 TEMP              0 ****  ****    0 ROOT
