@<TRIPOS>MOLECULE
2IM
   17    17     1     0     0
SMALL
bcc


@<TRIPOS>ATOM
      1 N2         -0.0310   -0.2210   -0.0670 n2        1 2IM     -0.841100
      2 C1          1.2480   -0.0180    0.0280 c2        1 2IM      0.607200
      3 N1          2.0060    0.0280    1.2290 nh        1 2IM     -0.858200
      4 C4          3.1910    0.8480    1.2930 c3        1 2IM      0.199800
      5 C5          4.0390    0.8240    0.0250 c3        1 2IM     -0.085400
      6 C3          3.1730    1.0710   -1.1890 c3        1 2IM     -0.082400
      7 C2          2.0580    0.0520   -1.2640 c3        1 2IM     -0.113700
      8 HN2        -0.5420   -0.2930    0.7870 hn        1 2IM      0.378400
      9 HN1         1.4640    0.0860    2.0660 hn        1 2IM      0.392800
     10 H41         3.8100    0.4670    2.1560 h1        1 2IM      0.031200
     11 H42         2.9230    1.9230    1.5190 h1        1 2IM      0.031200
     12 H51         4.8290    1.6140    0.1100 hc        1 2IM      0.051700
     13 H52         4.5540   -0.1670   -0.0710 hc        1 2IM      0.051700
     14 H31         2.7410    2.1060   -1.1420 hc        1 2IM      0.048200
     15 H32         3.7940    1.0090   -2.1200 hc        1 2IM      0.048200
     16 H21         1.3820    0.2970   -2.1250 hc        1 2IM      0.070200
     17 H22         2.4850   -0.9710   -1.4440 hc        1 2IM      0.070200
@<TRIPOS>BOND
     1    1    2 2   
     2    1    8 1   
     3    2    3 1   
     4    2    7 1   
     5    3    4 1   
     6    3    9 1   
     7    4    5 1   
     8    4   10 1   
     9    4   11 1   
    10    5    6 1   
    11    5   12 1   
    12    5   13 1   
    13    6    7 1   
    14    6   14 1   
    15    6   15 1   
    16    7   16 1   
    17    7   17 1   
@<TRIPOS>SUBSTRUCTURE
     1 2IM         1 TEMP              0 ****  ****    0 ROOT
