@<TRIPOS>MOLECULE
2IN
   56    51     1     0     0
SMALL
bcc


@<TRIPOS>ATOM
      1 N4         -7.6310    5.6000   -3.3820 n3        1 2IN     -0.396000
      2 N5         -6.8080    5.0600   -5.5360 n1        1 2IN     -0.292000
      3 C18        -6.7210    4.9110   -4.2470 c2        1 2IN      0.125000
      4 C14        -5.6380    3.9890   -3.6480 c2        1 2IN     -0.051000
      5 C13        -4.3850    4.5050   -3.3400 c2        1 2IN     -0.112000
      6 C12        -3.4500    3.7150   -2.6520 c1        1 2IN     -0.127000
      7 C17        -3.7790    2.4170   -2.2780 c1        1 2IN     -0.110000
      8 C16        -5.0360    1.9000   -2.5870 c1        1 2IN     -0.121000
      9 C15        -5.9660    2.6860   -3.2730 c1        1 2IN     -0.092000
     10 C11        -2.7690    1.5660   -1.4390 c3        1 2IN      0.004000
     11 N3         -1.7610    1.0010   -2.3220 n         1 2IN     -0.358000
     12 C10        -0.7720    0.0660   -1.7970 c2        1 2IN      0.270000
     13 O5         -1.0730   -0.6990   -0.9050 o         1 2IN     -0.372000
     14 C8          0.6900    0.1060   -2.3260 c3        1 2IN     -0.057000
     15 N2          1.4310   -0.9840   -1.7720 n         1 2IN     -0.347000
     16 C7          2.7580   -0.7570   -1.2460 c2        1 2IN      0.292000
     17 O4          3.3170    0.2930   -1.4500 o         1 2IN     -0.368000
     18 C5          3.4460   -1.8360   -0.4320 c3        1 2IN     -0.012000
     19 C6          4.7840   -2.1510   -1.0460 c3        1 2IN     -0.034000
     20 O3          4.8730   -3.5430   -1.2970 oh        1 2IN     -0.326000
     21 N1          3.6360   -1.3730    0.9160 n3        1 2IN     -0.901000
     22 S1          3.5410   -2.4300    2.1650 s4        1 2IN      2.032800
     23 O2          2.8150   -3.6140    1.7920 o         1 2IN     -0.538400
     24 O1          4.8400   -2.9850    2.4840 o         1 2IN     -0.538400
     25 C1          2.7900   -1.6260    3.6160 c2        1 2IN     -0.794000
     26 C4          3.0410   -2.4800    4.8640 c2        1 2IN     -0.074000
     27 C3          2.1600   -3.5080    5.1890 c2        1 2IN     -0.118000
     28 C2          2.3450   -4.2360    6.3500 c1        1 2IN     -0.124000
     29 C21         3.4130   -3.9410    7.1950 c1        1 2IN     -0.123500
     30 C20         4.2930   -2.9140    6.8710 c1        1 2IN     -0.123500
     31 C19         4.1070   -2.1850    5.7080 c1        1 2IN     -0.105000
     32 HN41       -7.5250    5.5510   -2.4770 hn        1 2IN      0.194000
     33 HN42       -8.3680    6.0320   -3.7360 hn        1 2IN      0.194000
     34 HN5        -7.4490    5.6040   -5.8900 DU        1 2IN      0.139000
     35 H13        -4.1530    5.4260   -3.6050 ha        1 2IN      0.145000
     36 H12        -2.5650    4.0800   -2.4340 ha        1 2IN      0.133000
     37 H16        -5.2630    1.0040   -2.3300 ha        1 2IN      0.155000
     38 H15        -6.8430    2.3250   -3.4880 ha        1 2IN      0.151000
     39 H111       -2.3340    2.1400   -0.7700 h1        1 2IN      0.112500
     40 H112       -3.2550    0.8330   -0.9780 h1        1 2IN      0.112500
     41 HN3        -1.6890    1.3070   -3.2010 hn        1 2IN      0.223000
     42 H81         0.6860    0.0340   -3.3120 h1        1 2IN      0.127000
     43 H82         1.1040    0.9400   -2.0660 h1        1 2IN      0.127000
     44 HN2         1.1120   -1.8430   -1.8540 hn        1 2IN      0.246000
     45 H5          2.8850   -2.6530   -0.4250 h1        1 2IN      0.135000
     46 H61         4.8780   -1.6690   -1.8750 h1        1 2IN      0.102000
     47 H62         5.4850   -1.8880   -0.4410 h1        1 2IN      0.102000
     48 HO3         5.6190   -3.7170   -1.7230 ho        1 2IN      0.228000
     49 HN1         3.7270   -0.4860    1.0800 hn        1 2IN      0.258000
     50 H11         1.8210   -1.5320    3.4740 ha        1 2IN      0.155500
     51 H12A        3.1900   -0.7390    3.7410 ha        1 2IN      0.155500
     52 H3          1.4090   -3.7150    4.5950 ha        1 2IN      0.154000
     53 H2          1.7280   -4.9560    6.5770 ha        1 2IN      0.138000
     54 H21         3.5440   -4.4570    8.0180 ha        1 2IN      0.134500
     55 H20         5.0460   -2.7050    7.4660 ha        1 2IN      0.134500
     56 H19         4.7200   -1.4690    5.4820 ha        1 2IN      0.133000
@<TRIPOS>BOND
     1    1    3 1   
     2    1   32 1   
     3    1   33 1   
     4    2    3 1   
     5    3    4 1   
     6    4    5 1   
     7    4    9 1   
     8    5    6 1   
     9    5   35 1   
    10    6   36 1   
    11    7    8 1   
    12    7   10 1   
    13    8   37 1   
    14    9   38 1   
    15   10   11 1   
    16   10   39 1   
    17   10   40 1   
    18   11   12 1   
    19   11   41 1   
    20   12   13 1   
    21   12   14 1   
    22   14   15 1   
    23   14   42 1   
    24   14   43 1   
    25   15   16 1   
    26   15   44 1   
    27   16   17 1   
    28   16   18 1   
    29   18   19 1   
    30   18   21 1   
    31   18   45 1   
    32   19   20 1   
    33   19   46 1   
    34   19   47 1   
    35   20   48 1   
    36   21   22 1   
    37   21   49 1   
    38   22   23 1   
    39   22   24 1   
    40   25   26 1   
    41   25   50 1   
    42   25   51 1   
    43   26   27 1   
    44   26   31 1   
    45   27   28 1   
    46   27   52 1   
    47   28   53 1   
    48   29   30 1   
    49   29   54 1   
    50   30   55 1   
    51   31   56 1   
@<TRIPOS>SUBSTRUCTURE
     1 2IN         1 TEMP              0 ****  ****    0 ROOT
