@<TRIPOS>MOLECULE
2IN
   60    60     1     0     0
SMALL
bcc


@<TRIPOS>ATOM
      1 N4        -26.1520  -33.5750  -84.1480 n4        1 2IN     -0.878600
      2 N5        -25.5910  -31.4210  -85.2620 n2        1 2IN     -0.643100
      3 C18       -25.2760  -32.5980  -84.9190 ce        1 2IN      0.594800
      4 C14       -23.9430  -33.1860  -85.2420 ca        1 2IN     -0.146900
      5 C13       -23.8350  -34.2270  -86.1710 ca        1 2IN     -0.076500
      6 C12       -22.5740  -34.7110  -86.5220 ca        1 2IN     -0.086000
      7 C17       -21.4220  -34.1580  -85.9480 ca        1 2IN     -0.153300
      8 C16       -21.5380  -33.1160  -85.0200 ca        1 2IN     -0.086000
      9 C15       -22.7960  -32.6240  -84.6680 ca        1 2IN     -0.076500
     10 C11       -20.0850  -34.7520  -86.2450 c3        1 2IN      0.169100
     11 N3        -19.3400  -33.9860  -87.3140 n4        1 2IN     -0.666800
     12 C10       -18.0260  -34.6190  -87.6640 c         1 2IN      0.519100
     13 O5        -17.5350  -35.4210  -86.8870 o         1 2IN     -0.351100
     14 C8        -17.3900  -34.2100  -88.9900 c3        1 2IN      0.037800
     15 N2        -15.9800  -33.7800  -88.8190 n4        1 2IN     -0.685800
     16 C7        -15.8160  -32.5600  -87.9180 c         1 2IN      0.583100
     17 O4        -16.8160  -32.2620  -87.2820 o         1 2IN     -0.505100
     18 C5        -14.4020  -31.9120  -87.8820 c3        1 2IN      0.158500
     19 C6        -13.6100  -32.7250  -86.8250 c3        1 2IN      0.106400
     20 O3        -13.7050  -34.0890  -87.1970 oh        1 2IN     -0.678800
     21 N1        -13.8460  -31.8780  -89.1920 n3        1 2IN     -0.974800
     22 S1         68.7370   96.1240  249.7620 s4        1 2IN      1.580500
     23 O2         68.3640   97.4160  249.7350 o         1 2IN     -0.361400
     24 O1         70.0130   95.7230  249.8900 o         1 2IN     -0.361400
     25 C1         67.5860   94.9920  249.6410 c3        1 2IN     -0.403800
     26 C4         67.4270   94.7040  248.1810 ca        1 2IN     -0.214300
     27 C3         66.4730   95.4060  247.4300 ca        1 2IN     -0.092000
     28 C2         66.2970   95.1040  246.0820 ca        1 2IN     -0.113000
     29 C21        67.0510   94.0910  245.4850 ca        1 2IN     -0.056000
     30 C20        67.9830   93.3740  246.2400 ca        1 2IN     -0.113000
     31 C19        68.1660   93.6690  247.5890 ca        1 2IN     -0.092000
     32 HN41      -25.7850  -33.6780  -83.1940 hn        1 2IN      0.471133
     33 HN42      -26.1280  -34.4910  -84.6090 hn        1 2IN      0.471133
     34 HN5       -26.4670  -30.9790  -85.0700 hn        1 2IN      0.491400
     35 H13       -24.7300  -34.6600  -86.6500 ha        1 2IN      0.178000
     36 H12       -22.5020  -35.5440  -87.2430 ha        1 2IN      0.166500
     37 H16       -20.6420  -32.6830  -84.5430 ha        1 2IN      0.166500
     38 H15       -22.8750  -31.7900  -83.9480 ha        1 2IN      0.178000
     39 H111      -19.4340  -34.7550  -85.3180 hx        1 2IN      0.134200
     40 H112      -20.1890  -35.8180  -86.6060 hx        1 2IN      0.134200
     41 HN3       -19.9300  -33.9160  -88.1530 hn        1 2IN      0.478800
     42 H81       -17.4180  -35.1230  -89.6690 hx        1 2IN      0.156700
     43 H82       -17.9550  -33.3700  -89.4940 hx        1 2IN      0.156700
     44 HN2       -15.3990  -34.5400  -88.4080 hn        1 2IN      0.512800
     45 H5        -14.5930  -30.8730  -87.4630 h1        1 2IN      0.141700
     46 H61       -12.5420  -32.3730  -86.8050 h1        1 2IN      0.096700
     47 H62       -14.0720  -32.5810  -85.8110 h1        1 2IN      0.096700
     48 HO3       -12.9490  -34.5630  -86.8190 ho        1 2IN      0.480000
     49 HN1       -13.7270  -30.9540  -89.5580 hn        1 2IN      0.431300
     50 H11        66.5660   95.2770  250.0540 h1        1 2IN      0.203700
     51 H12A       67.8010   94.0090  250.1690 h1        1 2IN      0.203700
     52 H3         65.8530   96.1870  247.8990 ha        1 2IN      0.152000
     53 H2         65.5510   95.6600  245.4900 ha        1 2IN      0.172000
     54 H21        66.9030   93.8490  244.4190 ha        1 2IN      0.172000
     55 H20        68.5670   92.5640  245.7730 ha        1 2IN      0.172000
     56 H19        68.8820   93.0780  248.1840 ha        1 2IN      0.152000
     57 H43       -27.1280  -33.2610  -84.0920 hn        1 2IN      0.471133
     58 H32       -19.1480  -33.0280  -86.9750 hn        1 2IN      0.478800
     59 H22       -15.5860  -33.5580  -89.7520 hn        1 2IN      0.512800
     60 H121      -13.0210  -32.4340  -89.2970 hn        1 2IN      0.431300
@<TRIPOS>BOND
     1    1    3 1   
     2    1   32 1   
     3    1   33 1   
     4    1   57 1   
     5    2    3 2   
     6    2   34 1   
     7    3    4 1   
     8    4    5 ar  
     9    4    9 ar  
    10    5    6 ar  
    11    5   35 1   
    12    6    7 ar  
    13    6   36 1   
    14    7    8 ar  
    15    7   10 1   
    16    8    9 ar  
    17    8   37 1   
    18    9   38 1   
    19   10   11 1   
    20   10   39 1   
    21   10   40 1   
    22   11   12 1   
    23   11   41 1   
    24   11   58 1   
    25   12   13 2   
    26   12   14 1   
    27   14   15 1   
    28   14   42 1   
    29   14   43 1   
    30   15   16 1   
    31   15   44 1   
    32   15   59 1   
    33   16   17 2   
    34   16   18 1   
    35   18   19 1   
    36   18   21 1   
    37   18   45 1   
    38   19   20 1   
    39   19   46 1   
    40   19   47 1   
    41   20   48 1   
    42   21   49 1   
    43   21   60 1   
    44   22   23 1   
    45   22   24 1   
    46   22   25 1   
    47   25   26 1   
    48   25   50 1   
    49   25   51 1   
    50   26   27 ar  
    51   26   31 ar  
    52   27   28 ar  
    53   27   52 1   
    54   28   29 ar  
    55   28   53 1   
    56   29   30 ar  
    57   29   54 1   
    58   30   31 ar  
    59   30   55 1   
    60   31   56 1   
@<TRIPOS>SUBSTRUCTURE
     1 2IN         1 TEMP              0 ****  ****    0 ROOT
