@<TRIPOS>MOLECULE
2IN
   56    57     1     0     0
SMALL
bcc


@<TRIPOS>ATOM
      1 N4          4.1940    0.5920    7.1200 nh        1 2IN     -0.893800
      2 N5          2.9120    2.4790    7.7520 n2        1 2IN     -0.835100
      3 C18         2.9800    1.3090    7.1880 ce        1 2IN      0.639800
      4 C14         1.8290    0.6390    6.5020 ca        1 2IN     -0.192900
      5 C13         0.6000    0.5460    7.1630 ca        1 2IN     -0.107500
      6 C12        -0.4870   -0.0560    6.5320 ca        1 2IN     -0.122000
      7 C17        -0.3530   -0.5680    5.2390 ca        1 2IN     -0.114300
      8 C16         0.8770   -0.4720    4.5790 ca        1 2IN     -0.122000
      9 C15         1.9660    0.1290    5.2070 ca        1 2IN     -0.107500
     10 C11        -1.5110   -1.2470    4.5610 c3        1 2IN      0.129300
     11 N3         -2.0730   -0.5210    3.4540 n         1 2IN     -0.555900
     12 C10        -1.6330   -0.7090    2.1560 c         1 2IN      0.626100
     13 O5         -0.8250   -1.6130    1.8650 o         1 2IN     -0.608100
     14 C8         -2.2260    0.2360    1.0960 c3        1 2IN      0.012000
     15 N2         -1.9180   -0.1320   -0.2540 n         1 2IN     -0.529900
     16 C7         -2.8400   -0.7780   -1.0490 c         1 2IN      0.636100
     17 O4         -4.0430   -0.8860   -0.7320 o         1 2IN     -0.622100
     18 C5         -2.3390   -1.3140   -2.4170 c3        1 2IN      0.138500
     19 C6         -3.4210   -2.2690   -2.9810 c3        1 2IN      0.138400
     20 O3         -4.5640   -1.5750   -3.4160 oh        1 2IN     -0.604800
     21 N1         -2.0070   -0.2500   -3.3180 n3        1 2IN     -0.915100
     22 S1         -0.5280    0.3870   -3.4980 s6        1 2IN      1.450900
     23 O2         -0.6520    1.7050   -3.9750 o         1 2IN     -0.647300
     24 O1          0.2050    0.1700   -2.3110 o         1 2IN     -0.647300
     25 C1          0.1350   -0.5980   -4.7610 c3        1 2IN     -0.251300
     26 C4          1.5150   -0.2040   -5.1330 ca        1 2IN     -0.079300
     27 C3          1.7460    1.0150   -5.7850 ca        1 2IN     -0.113500
     28 C2          3.0380    1.3730   -6.1610 ca        1 2IN     -0.126500
     29 C21         4.1080    0.5180   -5.8950 ca        1 2IN     -0.119000
     30 C20         3.8830   -0.6960   -5.2470 ca        1 2IN     -0.126500
     31 C19         2.5910   -1.0590   -4.8690 ca        1 2IN     -0.113500
     32 HN41        4.9260    0.9340    7.7040 hn        1 2IN      0.399300
     33 HN42        4.0710   -0.3940    7.1720 hn        1 2IN      0.399300
     34 HN5         2.0290    2.9320    7.6470 hn        1 2IN      0.394400
     35 H13         0.4880    0.9450    8.1820 ha        1 2IN      0.146000
     36 H12        -1.4510   -0.1300    7.0580 ha        1 2IN      0.146500
     37 H16         0.9760   -0.8810    3.5580 ha        1 2IN      0.146500
     38 H15         2.9300    0.2050    4.6810 ha        1 2IN      0.146000
     39 H111       -1.1630   -2.2550    4.1850 h1        1 2IN      0.072700
     40 H112       -2.3390   -1.4140    5.3110 h1        1 2IN      0.072700
     41 HN3        -2.5610    0.3160    3.6680 hn        1 2IN      0.307500
     42 H81        -3.3470    0.2800    1.2210 h1        1 2IN      0.088700
     43 H82        -1.7940    1.2630    1.2830 h1        1 2IN      0.088700
     44 HN2        -0.9450   -0.2330   -0.4720 hn        1 2IN      0.351500
     45 H5         -1.4090   -1.9330   -2.2230 h1        1 2IN      0.078700
     46 H61        -3.0310   -2.7920   -3.8950 h1        1 2IN      0.061200
     47 H62        -3.6770   -3.0170   -2.1850 h1        1 2IN      0.061200
     48 HO3        -5.0210   -1.2420   -2.6280 ho        1 2IN      0.433000
     49 HN1        -2.8010    0.0980   -3.8100 hn        1 2IN      0.470800
     50 H11         0.1320   -1.6820   -4.4660 h1        1 2IN      0.113200
     51 H12A       -0.5010   -0.5380   -5.6870 h1        1 2IN      0.113200
     52 H3          0.9030    1.6990   -5.9800 ha        1 2IN      0.142500
     53 H2          3.2130    2.3340   -6.6680 ha        1 2IN      0.136000
     54 H21         5.1280    0.8030   -6.1930 ha        1 2IN      0.134000
     55 H20         4.7250   -1.3710   -5.0320 ha        1 2IN      0.136000
     56 H19         2.4210   -2.0180   -4.3560 ha        1 2IN      0.142500
@<TRIPOS>BOND
     1    1    3 1   
     2    1   32 1   
     3    1   33 1   
     4    2    3 2   
     5    2   34 1   
     6    3    4 1   
     7    4    5 ar  
     8    4    9 ar  
     9    5    6 ar  
    10    5   35 1   
    11    6    7 ar  
    12    6   36 1   
    13    7    8 ar  
    14    7   10 1   
    15    8    9 ar  
    16    8   37 1   
    17    9   38 1   
    18   10   11 1   
    19   10   39 1   
    20   10   40 1   
    21   11   12 1   
    22   11   41 1   
    23   12   13 2   
    24   12   14 1   
    25   14   15 1   
    26   14   42 1   
    27   14   43 1   
    28   15   16 1   
    29   15   44 1   
    30   16   17 2   
    31   16   18 1   
    32   18   19 1   
    33   18   21 1   
    34   18   45 1   
    35   19   20 1   
    36   19   46 1   
    37   19   47 1   
    38   20   48 1   
    39   21   22 1   
    40   21   49 1   
    41   22   23 2   
    42   22   24 2   
    43   22   25 1   
    44   25   26 1   
    45   25   50 1   
    46   25   51 1   
    47   26   27 ar  
    48   26   31 ar  
    49   27   28 ar  
    50   27   52 1   
    51   28   29 ar  
    52   28   53 1   
    53   29   30 ar  
    54   29   54 1   
    55   30   31 ar  
    56   30   55 1   
    57   31   56 1   
@<TRIPOS>SUBSTRUCTURE
     1 2IN         1 TEMP              0 ****  ****    0 ROOT
