@<TRIPOS>MOLECULE
2IN
   56    57     1     0     0
SMALL
bcc


@<TRIPOS>ATOM
      1 N4         -0.8110    0.7320    3.5250 nh        1 2IN     -0.959800
      2 N5         -0.0310    2.2220    1.7720 n2        1 2IN     -0.827100
      3 C18         0.1680    1.3830    2.7440 ce        1 2IN      0.651800
      4 C14         1.5780    1.1040    3.1670 ca        1 2IN     -0.136900
      5 C13         2.5360    0.7710    2.2050 ca        1 2IN     -0.102000
      6 C12         3.8510    0.5140    2.5940 ca        1 2IN     -0.125000
      7 C17         4.2130    0.5880    3.9410 ca        1 2IN     -0.116300
      8 C16         3.2520    0.9270    4.9000 ca        1 2IN     -0.125000
      9 C15         1.9390    1.1870    4.5160 ca        1 2IN     -0.102000
     10 C11         5.6210    0.2860    4.3720 c3        1 2IN      0.128300
     11 N3          6.3660    1.4260    4.8360 n         1 2IN     -0.552900
     12 C10         6.3960    1.7850    6.1720 c         1 2IN      0.625100
     13 O5          5.9080    1.0550    7.0570 o         1 2IN     -0.609100
     14 C8          7.0970    3.1160    6.5010 c3        1 2IN      0.011000
     15 N2          7.3200    3.3280    7.9000 n         1 2IN     -0.528900
     16 C7          8.5590    3.1240    8.4670 c         1 2IN      0.635100
     17 O4          9.5920    2.9590    7.7870 o         1 2IN     -0.623100
     18 C5          8.6430    3.1790   10.0170 c3        1 2IN      0.138500
     19 C6         10.0180    2.6060   10.4410 c3        1 2IN      0.139400
     20 O3         11.0750    3.4790   10.1280 oh        1 2IN     -0.604800
     21 N1          8.4090    4.5020   10.5180 n3        1 2IN     -0.915100
     22 S1          6.9710    5.0730   10.9950 s6        1 2IN      1.450900
     23 O2          6.9710    6.4750   10.8730 o         1 2IN     -0.647300
     24 O1          5.9540    4.3430   10.3410 o         1 2IN     -0.647300
     25 C1          6.9660    4.6650   12.6790 c3        1 2IN     -0.251300
     26 C4          5.7300    5.1010   13.3730 ca        1 2IN     -0.078300
     27 C3          5.4790    6.4660   13.5680 ca        1 2IN     -0.113500
     28 C2          4.3330    6.8760   14.2460 ca        1 2IN     -0.126500
     29 C21         3.4330    5.9310   14.7380 ca        1 2IN     -0.120000
     30 C20         3.6790    4.5720   14.5470 ca        1 2IN     -0.126500
     31 C19         4.8250    4.1560   13.8690 ca        1 2IN     -0.113500
     32 HN41       -1.7110    0.6240    3.1190 hn        1 2IN      0.400300
     33 HN42       -0.4950   -0.0550    4.0410 hn        1 2IN      0.400300
     34 HN5        -0.9800    2.3880    1.5140 hn        1 2IN      0.383400
     35 H13         2.2590    0.7250    1.1410 ha        1 2IN      0.148000
     36 H12         4.6010    0.2520    1.8330 ha        1 2IN      0.145000
     37 H16         3.5460    0.9870    5.9620 ha        1 2IN      0.145000
     38 H15         1.1930    1.4690    5.2760 ha        1 2IN      0.148000
     39 H111        5.5850   -0.4770    5.2050 h1        1 2IN      0.072200
     40 H112        6.1920   -0.1600    3.5060 h1        1 2IN      0.072200
     41 HN3         6.5870    2.1190    4.1600 hn        1 2IN      0.307500
     42 H81         8.0860    3.1610    5.9570 h1        1 2IN      0.088700
     43 H82         6.4310    3.9460    6.1240 h1        1 2IN      0.088700
     44 HN2         6.5100    3.2740    8.4880 hn        1 2IN      0.351500
     45 H5          7.8450    2.4860   10.4280 h1        1 2IN      0.078700
     46 H61        10.0560    2.4900   11.5570 h1        1 2IN      0.060700
     47 H62        10.1510    1.6100    9.9420 h1        1 2IN      0.060700
     48 HO3        11.1760    3.4790    9.1640 ho        1 2IN      0.433000
     49 HN1         9.2310    5.0660   10.5070 hn        1 2IN      0.470800
     50 H11         7.8400    5.1380   13.2060 h1        1 2IN      0.113200
     51 H12A        7.0930    3.5580   12.8230 h1        1 2IN      0.113200
     52 H3          6.1810    7.2150   13.1650 ha        1 2IN      0.142500
     53 H2          4.1390    7.9490   14.3900 ha        1 2IN      0.136000
     54 H21         2.5290    6.2570   15.2740 ha        1 2IN      0.134000
     55 H20         2.9700    3.8230   14.9300 ha        1 2IN      0.136000
     56 H19         5.0120    3.0820   13.7210 ha        1 2IN      0.142500
@<TRIPOS>BOND
     1    1    3 1   
     2    1   32 1   
     3    1   33 1   
     4    2    3 2   
     5    2   34 1   
     6    3    4 1   
     7    4    5 ar  
     8    4    9 ar  
     9    5    6 ar  
    10    5   35 1   
    11    6    7 ar  
    12    6   36 1   
    13    7    8 ar  
    14    7   10 1   
    15    8    9 ar  
    16    8   37 1   
    17    9   38 1   
    18   10   11 1   
    19   10   39 1   
    20   10   40 1   
    21   11   12 1   
    22   11   41 1   
    23   12   13 2   
    24   12   14 1   
    25   14   15 1   
    26   14   42 1   
    27   14   43 1   
    28   15   16 1   
    29   15   44 1   
    30   16   17 2   
    31   16   18 1   
    32   18   19 1   
    33   18   21 1   
    34   18   45 1   
    35   19   20 1   
    36   19   46 1   
    37   19   47 1   
    38   20   48 1   
    39   21   22 1   
    40   21   49 1   
    41   22   23 2   
    42   22   24 2   
    43   22   25 1   
    44   25   26 1   
    45   25   50 1   
    46   25   51 1   
    47   26   27 ar  
    48   26   31 ar  
    49   27   28 ar  
    50   27   52 1   
    51   28   29 ar  
    52   28   53 1   
    53   29   30 ar  
    54   29   54 1   
    55   30   31 ar  
    56   30   55 1   
    57   31   56 1   
@<TRIPOS>SUBSTRUCTURE
     1 2IN         1 TEMP              0 ****  ****    0 ROOT
