@<TRIPOS>MOLECULE
2IN
   60    61     1     0     0
SMALL
bcc


@<TRIPOS>ATOM
      1 N4          0.0000    0.0000    0.0000 nz        1 2IN      0.136400
      2 N5          2.0290   -0.0000   -1.1270 n2        1 2IN     -0.366100
      3 C18         1.3780    0.0000    0.0000 ce        1 2IN      0.169800
      4 C14         2.1180    0.0000    1.2830 ca        1 2IN     -0.094900
      5 C13         3.5120    0.0010    1.2860 ca        1 2IN     -0.045500
      6 C12         4.1960    0.0010    2.4850 ca        1 2IN     -0.035000
      7 C17         3.5030    0.0010    3.6810 ca        1 2IN     -0.202300
      8 C16         2.1180    0.0010    3.6830 ca        1 2IN     -0.035000
      9 C15         1.4240    0.0060    2.4910 ca        1 2IN     -0.045500
     10 C11         4.2560    0.0010    4.9860 c3        1 2IN      0.069100
     11 N3          4.4990    1.3820    5.4090 ny        1 2IN      0.145200
     12 C10         5.1610    1.6270    6.5580 c         1 2IN      0.361100
     13 O5          5.5550    0.7060    7.2390 o         1 2IN     -0.385100
     14 C8          5.4130    3.0480    6.9930 c3        1 2IN     -0.092200
     15 N2          6.1450    3.0480    8.2600 ny        1 2IN      0.183200
     16 C7          6.4820    4.2140    8.8450 c         1 2IN      0.344100
     17 O4          6.1790    5.2640    8.3190 o         1 2IN     -0.360100
     18 C5          7.2350    4.2150   10.1490 c3        1 2IN     -0.002500
     19 C6          8.5710    3.4930    9.9670 c3        1 2IN      0.198400
     20 O3          9.3440    4.1670    8.9710 oh        1 2IN     -0.616800
     21 N1          7.4790    5.5940   10.5730 ny        1 2IN     -0.231900
     22 S1          6.8790    6.1360   12.0190 s6        1 2IN      0.781900
     23 O2          7.3980    7.4570   12.1000 o         1 2IN     -0.467800
     24 O1          5.4880    5.8780   11.8990 o         1 2IN     -0.467800
     25 C1          7.6610    5.0360   13.2290 c3        1 2IN      0.157700
     26 C4          7.2060    5.4100   14.6150 ca        1 2IN     -0.185300
     27 C3          7.9210    6.3370   15.3510 ca        1 2IN     -0.062000
     28 C2          7.5010    6.6840   16.6210 ca        1 2IN     -0.069000
     29 C21         6.3720    6.0950   17.1610 ca        1 2IN     -0.005000
     30 C20         5.6610    5.1640   16.4270 ca        1 2IN     -0.069000
     31 C19         6.0790    4.8210   15.1540 ca        1 2IN     -0.062000
     32 HN41       -0.3340    0.8100    0.4830 hn        1 2IN      0.235133
     33 HN42       -0.3340    0.0130   -0.9430 hn        1 2IN      0.235133
     34 HN5         1.5300   -0.0000   -1.9940 hn        1 2IN      0.364400
     35 H13         4.0560    0.0010    0.3500 ha        1 2IN      0.139000
     36 H12         5.2790    0.0010    2.4890 ha        1 2IN      0.125500
     37 H16         1.5790   -0.0070    4.6230 ha        1 2IN      0.125500
     38 H15         0.3410   -0.0390    2.4950 ha        1 2IN      0.139000
     39 H111        5.2030   -0.5090    4.8560 hx        1 2IN      0.104200
     40 H112        3.6710   -0.5110    5.7410 hx        1 2IN      0.104200
     41 HN3         5.0150    1.8250    4.6750 hn        1 2IN      0.276300
     42 H81         5.9980    3.5590    6.2380 hx        1 2IN      0.130200
     43 H82         4.4660    3.5590    7.1220 hx        1 2IN      0.130200
     44 HN2         5.5850    2.5430    8.9190 hn        1 2IN      0.284800
     45 H5          6.6490    3.7040   10.9040 hx        1 2IN      0.118700
     46 H61         8.3900    2.4720    9.6540 h1        1 2IN      0.040700
     47 H62         9.1130    3.4930   10.9050 h1        1 2IN      0.040700
     48 HO3        10.1870    3.7530    8.8950 ho        1 2IN      0.483000
     49 HN1         8.4710    5.7250   10.5960 hn        1 2IN      0.363800
     50 H11         7.3790    4.0110   13.0200 h1        1 2IN      0.068200
     51 H12A        8.7380    5.1340   13.1630 h1        1 2IN      0.068200
     52 H3          8.8060    6.7980   14.9290 ha        1 2IN      0.104500
     53 H2          8.0500    7.4240   17.1900 ha        1 2IN      0.136000
     54 H21         6.0430    6.3660   18.1570 ha        1 2IN      0.137000
     55 H20         4.7760    4.7030   16.8500 ha        1 2IN      0.136000
     56 H19         5.5210    4.0910   14.5800 ha        1 2IN      0.104500
     57 H43        -0.3340   -0.8240    0.4600 hn        1 2IN      0.235133
     58 H32         3.6040    1.8240    5.4880 hn        1 2IN      0.276300
     59 H22         6.9970    2.5460    8.1040 hn        1 2IN      0.284800
     60 H121        7.1110    6.1920    9.8590 hn        1 2IN      0.363800
@<TRIPOS>BOND
     1    1    3 1   
     2    1   32 1   
     3    1   33 1   
     4    1   57 1   
     5    2    3 2   
     6    2   34 1   
     7    3    4 1   
     8    4    5 ar  
     9    4    9 ar  
    10    5    6 ar  
    11    5   35 1   
    12    6    7 ar  
    13    6   36 1   
    14    7    8 ar  
    15    7   10 1   
    16    8    9 ar  
    17    8   37 1   
    18    9   38 1   
    19   10   11 1   
    20   10   39 1   
    21   10   40 1   
    22   11   12 1   
    23   11   41 1   
    24   11   58 1   
    25   12   13 2   
    26   12   14 1   
    27   14   15 1   
    28   14   42 1   
    29   14   43 1   
    30   15   16 1   
    31   15   44 1   
    32   15   59 1   
    33   16   17 2   
    34   16   18 1   
    35   18   19 1   
    36   18   21 1   
    37   18   45 1   
    38   19   20 1   
    39   19   46 1   
    40   19   47 1   
    41   20   48 1   
    42   21   22 1   
    43   21   49 1   
    44   21   60 1   
    45   22   23 2   
    46   22   24 2   
    47   22   25 1   
    48   25   26 1   
    49   25   50 1   
    50   25   51 1   
    51   26   27 ar  
    52   26   31 ar  
    53   27   28 ar  
    54   27   52 1   
    55   28   29 ar  
    56   28   53 1   
    57   29   30 ar  
    58   29   54 1   
    59   30   31 ar  
    60   30   55 1   
    61   31   56 1   
@<TRIPOS>SUBSTRUCTURE
     1 2IN         1 TEMP              0 ****  ****    0 ROOT
