@<TRIPOS>MOLECULE
2IP
   30    30     1     0     0
SMALL
bcc


@<TRIPOS>ATOM
      1 C1         -0.0270    0.0740   -0.0760 c3        1 2IP      0.169100
      2 C2          1.5090    0.2130    0.0700 c3        1 2IP      0.118100
      3 C3          2.0020    0.0840    1.5200 c3        1 2IP      0.118100
      4 C4          1.5360   -1.2290    2.1830 c3        1 2IP      0.169100
      5 C5         -0.0060   -1.3030    2.1340 c3        1 2IP      0.118100
      6 C6         -0.5260   -1.1830    0.6880 c3        1 2IP      0.118100
      7 O1         -0.6660    1.2280    0.3250 os        1 2IP     -0.574700
      8 O2          2.1610   -0.7160   -0.7970 oh        1 2IP     -0.664800
      9 O3          3.4200    0.1890    1.5290 oh        1 2IP     -0.664800
     10 O4          1.9820   -1.2870    3.4940 os        1 2IP     -0.574700
     11 O5         -0.4490   -2.5410    2.6810 oh        1 2IP     -0.664800
     12 O6         -1.9400   -1.2630    0.6780 oh        1 2IP     -0.664800
     13 P4          3.0320   -2.5920    3.8610 p5        1 2IP      1.321900
     14 O41         4.1650   -2.3410    2.8910 o         1 2IP     -0.939333
     15 O42         3.3860   -2.4170    5.3150 o         1 2IP     -0.939333
     16 O43         2.1620   -3.7850    3.5470 o         1 2IP     -0.939333
     17 P1         -1.7160    1.9910   -0.8140 p5        1 2IP      1.321900
     18 O11        -2.9490    1.1270   -0.6810 o         1 2IP     -0.939333
     19 O12        -1.8590    3.3980   -0.2920 o         1 2IP     -0.939333
     20 O13        -1.0170    1.8800   -2.1460 o         1 2IP     -0.939333
     21 H1         -0.2380   -0.1050   -1.1770 h1        1 2IP      0.032700
     22 H2          1.8140    1.2180   -0.3330 h1        1 2IP      0.037450
     23 H3          1.5970    0.9570    2.1030 h1        1 2IP      0.037450
     24 H4          1.9580   -2.1070    1.6050 h1        1 2IP      0.032700
     25 H5         -0.4530   -0.4830    2.7570 h1        1 2IP      0.037450
     26 H6         -0.1660   -2.0930    0.1230 h1        1 2IP      0.037450
     27 HO2         2.2160   -1.5480   -0.3160 ho        1 2IP      0.443500
     28 HO3         3.7640   -0.5880    2.0250 ho        1 2IP      0.443500
     29 HO5         0.3370   -2.9800    3.0720 ho        1 2IP      0.443500
     30 HO6        -2.2860   -0.3780    0.4190 ho        1 2IP      0.443500
@<TRIPOS>BOND
     1    1    2 1   
     2    1    6 1   
     3    1    7 1   
     4    1   21 1   
     5    2    3 1   
     6    2    8 1   
     7    2   22 1   
     8    3    4 1   
     9    3    9 1   
    10    3   23 1   
    11    4    5 1   
    12    4   10 1   
    13    4   24 1   
    14    5    6 1   
    15    5   11 1   
    16    5   25 1   
    17    6   12 1   
    18    6   26 1   
    19    7   17 1   
    20    8   27 1   
    21    9   28 1   
    22   10   13 1   
    23   11   29 1   
    24   12   30 1   
    25   13   14 1   
    26   13   15 1   
    27   13   16 1   
    28   17   18 1   
    29   17   19 1   
    30   17   20 1   
@<TRIPOS>SUBSTRUCTURE
     1 2IP         1 TEMP              0 ****  ****    0 ROOT
