@<TRIPOS>MOLECULE
2IP
   30    30     1     0     0
SMALL
bcc


@<TRIPOS>ATOM
      1 C1         -0.0550    0.0490   -0.0760 c3        1 2IP      0.173600
      2 C2          1.4820    0.1850    0.0530 c3        1 2IP      0.119600
      3 C3          2.0000    0.0700    1.4950 c3        1 2IP      0.119600
      4 C4          1.5260   -1.2270    2.1810 c3        1 2IP      0.173600
      5 C5         -0.0170   -1.2730    2.1670 c3        1 2IP      0.119600
      6 C6         -0.5600   -1.1820    0.7260 c3        1 2IP      0.119600
      7 O1         -0.6780    1.2190    0.3060 os        1 2IP     -0.576700
      8 O2          2.1100   -0.7670   -0.8120 oh        1 2IP     -0.669050
      9 O3          3.4220    0.1310    1.4520 oh        1 2IP     -0.669050
     10 O4          2.0050   -1.2830    3.4800 os        1 2IP     -0.576700
     11 O5         -0.4710   -2.4870    2.7580 oh        1 2IP     -0.669050
     12 O6         -1.9740   -1.2400    0.7430 oh        1 2IP     -0.669050
     13 P4          3.0480   -2.5970    3.8280 p5        1 2IP      1.322400
     14 O41         4.1390   -2.3780    2.8050 o         1 2IP     -0.939500
     15 O42         3.4700   -2.3990    5.2610 o         1 2IP     -0.939500
     16 O43         2.1490   -3.7840    3.5780 o         1 2IP     -0.939500
     17 P1         -1.7340    1.9720   -0.8320 p5        1 2IP      1.322400
     18 O11        -2.9820    1.1370   -0.6520 o         1 2IP     -0.939500
     19 O12        -1.8400    3.3940   -0.3410 o         1 2IP     -0.939500
     20 O13        -1.0660    1.8180   -2.1740 o         1 2IP     -0.939500
     21 H1         -0.2800   -0.1540   -1.1690 h1        1 2IP      0.035700
     22 H2          1.7780    1.1920   -0.3570 h1        1 2IP      0.035700
     23 H3          1.6360    0.9590    2.0780 h1        1 2IP      0.035700
     24 H4          1.9170   -2.1150    1.5960 h1        1 2IP      0.035700
     25 H5         -0.4380   -0.4290    2.7770 h1        1 2IP      0.035700
     26 H6         -0.2220   -2.1100    0.1790 h1        1 2IP      0.035700
     27 HO2         2.6110   -1.3690   -0.2490 ho        1 2IP      0.445750
     28 HO3         3.7600   -0.6230    1.9860 ho        1 2IP      0.445750
     29 HO5         0.3170   -2.9400    3.1260 ho        1 2IP      0.445750
     30 HO6        -2.3120   -0.3560    0.4700 ho        1 2IP      0.445750
@<TRIPOS>BOND
     1    1    2 1   
     2    1    6 1   
     3    1    7 1   
     4    1   21 1   
     5    2    3 1   
     6    2    8 1   
     7    2   22 1   
     8    3    4 1   
     9    3    9 1   
    10    3   23 1   
    11    4    5 1   
    12    4   10 1   
    13    4   24 1   
    14    5    6 1   
    15    5   11 1   
    16    5   25 1   
    17    6   12 1   
    18    6   26 1   
    19    7   17 1   
    20    8   27 1   
    21    9   28 1   
    22   10   13 1   
    23   11   29 1   
    24   12   30 1   
    25   13   14 1   
    26   13   15 1   
    27   13   16 1   
    28   17   18 1   
    29   17   19 1   
    30   17   20 1   
@<TRIPOS>SUBSTRUCTURE
     1 2IP         1 TEMP              0 ****  ****    0 ROOT
