@<TRIPOS>MOLECULE
2IP
   30    30     1     0     0
SMALL
bcc


@<TRIPOS>ATOM
      1 C1          0.0750    0.6440    1.6530 c3        1 2IP      0.173600
      2 C2          1.3360    0.7350    0.7590 c3        1 2IP      0.119600
      3 C3          1.3160   -0.2170   -0.4470 c3        1 2IP      0.119600
      4 C4          0.0470   -0.0420   -1.3050 c3        1 2IP      0.173600
      5 C5         -1.1980   -0.2780   -0.4230 c3        1 2IP      0.119600
      6 C6         -1.2120    0.6830    0.7830 c3        1 2IP      0.119600
      7 O1          0.1330   -0.4750    2.4580 os        1 2IP     -0.576700
      8 O2          1.5250    2.0950    0.3550 oh        1 2IP     -0.669050
      9 O3          2.4880    0.0330   -1.2160 oh        1 2IP     -0.669050
     10 O4          0.0650   -0.9270   -2.3720 os        1 2IP     -0.576700
     11 O5         -2.3810   -0.0770   -1.1900 oh        1 2IP     -0.669050
     12 O6         -2.3690    0.4530    1.5650 oh        1 2IP     -0.669050
     13 P4          0.0740   -0.2100   -3.9280 p5        1 2IP      1.322400
     14 O41         1.3210    0.6430   -3.8450 o         1 2IP     -0.939500
     15 O42         0.1550   -1.3630   -4.8940 o         1 2IP     -0.939500
     16 O43        -1.2320    0.5460   -3.9310 o         1 2IP     -0.939500
     17 P1          0.0030   -0.2430    4.1630 p5        1 2IP      1.322400
     18 O11         0.7880    1.0080    4.4660 o         1 2IP     -0.939500
     19 O12        -1.4940   -0.0960    4.3120 o         1 2IP     -0.939500
     20 O13         0.5830   -1.5060    4.7460 o         1 2IP     -0.939500
     21 H1          0.0620    1.5720    2.3040 h1        1 2IP      0.035700
     22 H2          2.2330    0.4920    1.3960 h1        1 2IP      0.035700
     23 H3          1.3730   -1.2730   -0.0690 h1        1 2IP      0.035700
     24 H4          0.0120    1.0210   -1.6960 h1        1 2IP      0.035700
     25 H5         -1.2180   -1.3390   -0.0530 h1        1 2IP      0.035700
     26 H6         -1.3200    1.7320    0.3780 h1        1 2IP      0.035700
     27 HO2         1.4450    2.1160   -0.6060 ho        1 2IP      0.445750
     28 HO3         2.2020    0.1400   -2.1520 ho        1 2IP      0.445750
     29 HO5        -2.1010    0.0550   -2.1210 ho        1 2IP      0.445750
     30 HO6        -2.0770    0.0660    2.4220 ho        1 2IP      0.445750
@<TRIPOS>BOND
     1    1    2 1   
     2    1    6 1   
     3    1    7 1   
     4    1   21 1   
     5    2    3 1   
     6    2    8 1   
     7    2   22 1   
     8    3    4 1   
     9    3    9 1   
    10    3   23 1   
    11    4    5 1   
    12    4   10 1   
    13    4   24 1   
    14    5    6 1   
    15    5   11 1   
    16    5   25 1   
    17    6   12 1   
    18    6   26 1   
    19    7   17 1   
    20    8   27 1   
    21    9   28 1   
    22   10   13 1   
    23   11   29 1   
    24   12   30 1   
    25   13   14 1   
    26   13   15 1   
    27   13   16 1   
    28   17   18 1   
    29   17   19 1   
    30   17   20 1   
@<TRIPOS>SUBSTRUCTURE
     1 2IP         1 TEMP              0 ****  ****    0 ROOT
