@<TRIPOS>MOLECULE
2IP
   30    30     1     0     0
SMALL
bcc


@<TRIPOS>ATOM
      1 C1         -0.7740    0.6290   -1.1250 c3        1 2IP      0.160600
      2 C2          0.7460    0.6290   -1.1250 c3        1 2IP      0.131100
      3 C3          1.3280    0.6290    0.2800 c3        1 2IP      0.131100
      4 C4          0.7460   -0.4770    1.1510 c3        1 2IP      0.160600
      5 C5         -0.7750   -0.4770    1.1510 c3        1 2IP      0.131100
      6 C6         -1.3560   -0.4770   -0.2540 c3        1 2IP      0.131100
      7 O1         -1.2310    0.4540   -2.4530 os        1 2IP     -0.589700
      8 O2          1.2040   -0.5240   -1.8100 oh        1 2IP     -0.662050
      9 O3          2.7310    0.4540    0.1950 oh        1 2IP     -0.662050
     10 O4          1.2030   -0.3010    2.4790 os        1 2IP     -0.589700
     11 O5         -1.2330   -1.6300    1.8360 oh        1 2IP     -0.662050
     12 O6         -2.7590   -0.3020   -0.1690 oh        1 2IP     -0.662050
     13 P4          2.0800   -1.4440    3.1300 p5        1 2IP      1.325900
     14 O41         2.2910   -1.1430    4.5950 o         1 2IP     -0.940333
     15 O42         1.3690   -2.7680    2.9860 o         1 2IP     -0.940333
     16 O43         3.4170   -1.5120    2.4320 o         1 2IP     -0.940333
     17 P1         -2.0030    1.6460   -3.1470 p5        1 2IP      1.325900
     18 O11        -3.2130    2.0120   -2.3210 o         1 2IP     -0.940333
     19 O12        -2.4450    1.2230   -4.5280 o         1 2IP     -0.940333
     20 O13        -1.0880    2.8420   -3.2560 o         1 2IP     -0.940333
     21 H1         -1.0900    1.4910   -0.7930 h1        1 2IP      0.050200
     22 H2          1.0620    1.4230   -1.5970 h1        1 2IP      0.017700
     23 H3          1.1410    1.4910    0.6990 h1        1 2IP      0.017700
     24 H4          1.0620   -1.3380    0.8190 h1        1 2IP      0.050200
     25 H5         -1.0910    0.3170    1.6230 h1        1 2IP      0.017700
     26 H6         -1.1700   -1.3390   -0.6730 h1        1 2IP      0.017700
     27 HO2         1.7370   -0.2810   -2.4770 ho        1 2IP      0.449000
     28 HO3         3.1330    1.2410    0.2830 ho        1 2IP      0.449000
     29 HO5        -1.8580   -1.3980    2.4220 ho        1 2IP      0.449000
     30 HO6        -3.1650   -1.0710   -0.3480 ho        1 2IP      0.449000
@<TRIPOS>BOND
     1    1    2 1   
     2    1    6 1   
     3    1    7 1   
     4    1   21 1   
     5    2    3 1   
     6    2    8 1   
     7    2   22 1   
     8    3    4 1   
     9    3    9 1   
    10    3   23 1   
    11    4    5 1   
    12    4   10 1   
    13    4   24 1   
    14    5    6 1   
    15    5   11 1   
    16    5   25 1   
    17    6   12 1   
    18    6   26 1   
    19    7   17 1   
    20    8   27 1   
    21    9   28 1   
    22   10   13 1   
    23   11   29 1   
    24   12   30 1   
    25   13   14 1   
    26   13   15 1   
    27   13   16 1   
    28   17   18 1   
    29   17   19 1   
    30   17   20 1   
@<TRIPOS>SUBSTRUCTURE
     1 2IP         1 TEMP              0 ****  ****    0 ROOT
