@<TRIPOS>MOLECULE
2IW
   54    59     1     0     0
SMALL
bcc


@<TRIPOS>ATOM
      1 C1          0.2680   -0.4320   -1.3230 c3        1 2IW     -0.143200
      2 N1         -0.9230   -2.4810   -1.7670 n         1 2IW     -0.440600
      3 O1          1.2400   -2.2480   -2.6660 o         1 2IW     -0.559000
      4 C2          1.2570   -0.2590   -0.1400 c3        1 2IW     -0.032500
      5 N2         -6.1390   -7.5050   -3.1040 nb        1 2IW     -0.739000
      6 O2         -2.9320   -2.0420   -0.6200 o         1 2IW     -0.559000
      7 C3         -1.1360   -0.3620   -0.6380 c3        1 2IW     -0.143200
      8 N3         -3.4410   -8.3100   -3.4960 n4        1 2IW     -0.538200
      9 O3         -1.2390   -8.4880   -4.1710 o         1 2IW     -0.460100
     10 C4          0.3160   -1.7930   -1.9940 c         1 2IW      0.723000
     11 C5         -1.8040   -1.6860   -0.9630 c         1 2IW      0.723000
     12 C6         -0.7980   -0.1560    0.8620 c3        1 2IW     -0.032500
     13 C7          1.1060   -1.4900    0.7440 c2        1 2IW     -0.180200
     14 C8          0.4500    0.7770    0.7140 c3        1 2IW     -0.080400
     15 C9         -0.1100   -1.4290    1.3370 c2        1 2IW     -0.180200
     16 C10        -4.3170   -8.0460   -4.6410 ca        1 2IW     -0.110700
     17 C11        -2.0490   -7.7150   -3.6680 c         1 2IW      0.586700
     18 C12        -8.3230   -6.9250   -3.9930 ca        1 2IW     -0.246300
     19 C13        -7.8920   -7.0630   -5.2950 ca        1 2IW      0.008700
     20 C14        -6.5270   -7.4410   -5.5330 ca        1 2IW     -0.144300
     21 C15        -5.6850   -7.6540   -4.3990 ca        1 2IW      0.413600
     22 C16        -7.4030   -7.1580   -2.9260 ca        1 2IW      0.475200
     23 C17        -6.0050   -7.6130   -6.8380 ca        1 2IW     -0.044000
     24 C18        -4.6960   -7.9890   -7.0320 ca        1 2IW     -0.135000
     25 C19        -3.8430   -8.2130   -5.9340 ca        1 2IW     -0.056000
     26 C20        -8.8100   -6.8300   -6.4320 c3        1 2IW     -0.079800
     27 C21        -0.4910   -5.9510   -3.0320 ca        1 2IW     -0.037500
     28 C22        -0.1880   -4.6830   -2.5660 ca        1 2IW     -0.166000
     29 C23        -1.2190   -3.7640   -2.2400 ca        1 2IW      0.160600
     30 C24        -2.5650   -4.1870   -2.4140 ca        1 2IW     -0.166000
     31 C25        -2.8590   -5.4600   -2.8730 ca        1 2IW     -0.037500
     32 C26        -1.8300   -6.3640   -3.1820 ca        1 2IW     -0.238600
     33 H1          0.4190    0.3670   -2.0880 hc        1 2IW      0.111700
     34 H2          2.2860    0.0160   -0.4330 hc        1 2IW      0.102700
     35 H3         -1.7650    0.4770   -1.0230 hc        1 2IW      0.111700
     36 HN3        -3.8610   -7.9320   -2.6360 hn        1 2IW      0.470800
     37 H6         -1.6370    0.2110    1.4800 hc        1 2IW      0.102700
     38 H7          1.8880   -2.2400    0.8420 ha        1 2IW      0.161000
     39 H8          0.9360    0.9970    1.6880 hc        1 2IW      0.071700
     40 H8A         0.2340    1.7230    0.1730 hc        1 2IW      0.071700
     41 H9         -0.5730   -2.1180    2.0400 ha        1 2IW      0.161000
     42 H12        -9.3590   -6.6410   -3.7550 ha        1 2IW      0.171000
     43 H16        -7.7380   -7.0500   -1.8750 h4        1 2IW      0.046100
     44 H17        -6.6670   -7.4430   -7.7060 ha        1 2IW      0.166000
     45 H18        -4.2940   -8.1250   -8.0500 ha        1 2IW      0.171000
     46 H19        -2.8000   -8.5240   -6.1270 ha        1 2IW      0.171000
     47 H20        -8.9080   -7.7580   -7.0500 hc        1 2IW      0.069033
     48 H20A       -9.8300   -6.5390   -6.0740 hc        1 2IW      0.069033
     49 H20B       -8.4220   -6.0080   -7.0850 hc        1 2IW      0.069033
     50 H21         0.3260   -6.6500   -3.2850 ha        1 2IW      0.156500
     51 H22         0.8750   -4.3970   -2.4630 ha        1 2IW      0.187500
     52 H24        -3.4000   -3.5030   -2.1790 ha        1 2IW      0.187500
     53 H25        -3.9200   -5.7260   -3.0100 ha        1 2IW      0.156500
     54 H32        -3.3530   -9.3320   -3.4000 hn        1 2IW      0.470800
@<TRIPOS>BOND
     1    1    4 1   
     2    1    7 1   
     3    1   10 1   
     4    1   33 1   
     5    2   10 1   
     6    2   11 1   
     7    2   29 1   
     8    3   10 2   
     9    4   13 1   
    10    4   14 1   
    11    4   34 1   
    12    5   21 ar  
    13    5   22 ar  
    14    6   11 2   
    15    7   11 1   
    16    7   12 1   
    17    7   35 1   
    18    8   16 1   
    19    8   17 1   
    20    8   36 1   
    21    8   54 1   
    22    9   17 2   
    23   12   14 1   
    24   12   15 1   
    25   12   37 1   
    26   13   15 2   
    27   13   38 1   
    28   14   39 1   
    29   14   40 1   
    30   15   41 1   
    31   16   21 ar  
    32   16   25 ar  
    33   17   32 1   
    34   18   19 ar  
    35   18   22 ar  
    36   18   42 1   
    37   19   20 ar  
    38   19   26 1   
    39   20   21 ar  
    40   20   23 ar  
    41   22   43 1   
    42   23   24 ar  
    43   23   44 1   
    44   24   25 ar  
    45   24   45 1   
    46   25   46 1   
    47   26   47 1   
    48   26   48 1   
    49   26   49 1   
    50   27   28 ar  
    51   27   32 ar  
    52   27   50 1   
    53   28   29 ar  
    54   28   51 1   
    55   29   30 ar  
    56   30   31 ar  
    57   30   52 1   
    58   31   32 ar  
    59   31   53 1   
@<TRIPOS>SUBSTRUCTURE
     1 2IW         1 TEMP              0 ****  ****    0 ROOT
