@<TRIPOS>MOLECULE
2IW
   53    58     1     0     0
SMALL
bcc


@<TRIPOS>ATOM
      1 C1         -5.7970   -0.9060   -0.9380 c3        1 2IW     -0.147700
      2 N1         -3.5940   -0.3950   -0.1210 n         1 2IW     -0.425600
      3 O1         -4.0950    0.1480   -2.3580 o         1 2IW     -0.572000
      4 C2         -6.9670    0.1100   -0.9320 c3        1 2IW     -0.032500
      5 N2          4.5900   -1.5380   -0.1050 nb        1 2IW     -0.684000
      6 O2         -3.7840   -1.1830    2.0920 o         1 2IW     -0.572000
      7 C3         -5.6930   -1.3520    0.5580 c3        1 2IW     -0.147700
      8 N3          2.7970    0.6250    0.1410 n         1 2IW     -0.456100
      9 O3          1.9810    2.7910   -0.0310 o         1 2IW     -0.590100
     10 C4         -4.4360   -0.3090   -1.2650 c         1 2IW      0.718500
     11 C5         -4.2780   -0.9820    0.9800 c         1 2IW      0.718500
     12 C6         -6.8140   -0.5410    1.2560 c3        1 2IW     -0.032500
     13 C7         -6.5020    1.3110   -0.1180 c2        1 2IW     -0.177700
     14 C8         -7.8970   -0.5770    0.1250 c3        1 2IW     -0.083400
     15 C9         -6.4110    0.9250    1.1760 c2        1 2IW     -0.177700
     16 C10         4.1760    0.8730    0.1600 ca        1 2IW      0.035300
     17 C11         1.7780    1.5640    0.0430 c         1 2IW      0.680700
     18 C12         6.8610   -2.3880   -0.2010 ca        1 2IW     -0.252300
     19 C13         7.3900   -1.1260   -0.0580 ca        1 2IW     -0.026300
     20 C14         6.4990   -0.0090    0.0670 ca        1 2IW     -0.117300
     21 C15         5.0930   -0.2580    0.0370 ca        1 2IW      0.363600
     22 C16         5.4410   -2.5390   -0.2170 ca        1 2IW      0.415200
     23 C17         6.9820    1.3140    0.2170 ca        1 2IW     -0.150000
     24 C18         6.1020    2.3600    0.3350 ca        1 2IW     -0.094000
     25 C19         4.7110    2.1490    0.3100 ca        1 2IW     -0.169000
     26 C20         8.8560   -0.9160   -0.0320 c3        1 2IW     -0.062800
     27 C21        -0.5450    1.6230   -0.8270 ca        1 2IW     -0.077000
     28 C22        -1.8560    1.1670   -0.8780 ca        1 2IW     -0.147000
     29 C23        -2.2640    0.0810   -0.0710 ca        1 2IW      0.077600
     30 C24        -1.3170   -0.5200    0.7870 ca        1 2IW     -0.147000
     31 C25        -0.0080   -0.0510    0.8280 ca        1 2IW     -0.077000
     32 C26         0.3890    1.0150    0.0180 ca        1 2IW     -0.158600
     33 H1         -6.0100   -1.7550   -1.6310 hc        1 2IW      0.100200
     34 H2         -7.3990    0.3260   -1.9240 hc        1 2IW      0.093700
     35 H3         -5.8490   -2.4490    0.6950 hc        1 2IW      0.100200
     36 HN3         2.5190   -0.3340    0.1050 hn        1 2IW      0.341500
     37 H6         -7.1070   -0.9170    2.2520 hc        1 2IW      0.093700
     38 H7         -6.2910    2.2780   -0.5690 ha        1 2IW      0.158500
     39 H8         -8.7910    0.0350    0.3700 hc        1 2IW      0.062700
     40 H8A        -8.2040   -1.6050   -0.1600 hc        1 2IW      0.062700
     41 H9         -6.1050    1.4970    2.0500 ha        1 2IW      0.158500
     42 H12         7.4980   -3.2760   -0.3010 ha        1 2IW      0.144000
     43 H16         4.9990   -3.5460   -0.3300 h4        1 2IW      0.021100
     44 H17         8.0680    1.4910    0.2360 ha        1 2IW      0.135000
     45 H18         6.4730    3.3900    0.4530 ha        1 2IW      0.137000
     46 H19         4.0540    3.0310    0.4090 ha        1 2IW      0.178000
     47 H20         9.1660   -0.2410   -0.8700 hc        1 2IW      0.051700
     48 H20A        9.1640   -0.4430    0.9340 hc        1 2IW      0.051700
     49 H20B        9.4040   -1.8840   -0.1400 hc        1 2IW      0.051700
     50 H21        -0.2350    2.4800   -1.4480 ha        1 2IW      0.151000
     51 H22        -2.5680    1.6540   -1.5650 ha        1 2IW      0.162500
     52 H24        -1.6080   -1.3530    1.4480 ha        1 2IW      0.162500
     53 H25         0.7030   -0.5270    1.5220 ha        1 2IW      0.151000
@<TRIPOS>BOND
     1    1    4 1   
     2    1    7 1   
     3    1   10 1   
     4    1   33 1   
     5    2   10 1   
     6    2   11 1   
     7    2   29 1   
     8    3   10 2   
     9    4   13 1   
    10    4   14 1   
    11    4   34 1   
    12    5   21 ar  
    13    5   22 ar  
    14    6   11 2   
    15    7   11 1   
    16    7   12 1   
    17    7   35 1   
    18    8   16 1   
    19    8   17 1   
    20    8   36 1   
    21    9   17 2   
    22   12   14 1   
    23   12   15 1   
    24   12   37 1   
    25   13   15 2   
    26   13   38 1   
    27   14   39 1   
    28   14   40 1   
    29   15   41 1   
    30   16   21 ar  
    31   16   25 ar  
    32   17   32 1   
    33   18   19 ar  
    34   18   22 ar  
    35   18   42 1   
    36   19   20 ar  
    37   19   26 1   
    38   20   21 ar  
    39   20   23 ar  
    40   22   43 1   
    41   23   24 ar  
    42   23   44 1   
    43   24   25 ar  
    44   24   45 1   
    45   25   46 1   
    46   26   47 1   
    47   26   48 1   
    48   26   49 1   
    49   27   28 ar  
    50   27   32 ar  
    51   27   50 1   
    52   28   29 ar  
    53   28   51 1   
    54   29   30 ar  
    55   30   31 ar  
    56   30   52 1   
    57   31   32 ar  
    58   31   53 1   
@<TRIPOS>SUBSTRUCTURE
     1 2IW         1 TEMP              0 ****  ****    0 ROOT
