@<TRIPOS>MOLECULE
2IW
   53    58     1     0     0
SMALL
bcc


@<TRIPOS>ATOM
      1 C1          0.0340    0.0010   -0.1830 c3        1 2IW     -0.147700
      2 N1         -0.9750   -2.0720   -0.8660 n         1 2IW     -0.425600
      3 O1         -0.0480   -0.6930   -2.5370 o         1 2IW     -0.572000
      4 C2          1.5470    0.1570    0.1140 c3        1 2IW     -0.032500
      5 N2         -6.8570   -6.3190   -4.8220 nb        1 2IW     -0.684000
      6 O2         -1.6740   -2.8970    1.2280 o         1 2IW     -0.572000
      7 C3         -0.5120   -0.7400    1.0820 c3        1 2IW     -0.147700
      8 N3         -4.0860   -6.5530   -4.3590 n         1 2IW     -0.456100
      9 O3         -1.8660   -7.1030   -4.7560 o         1 2IW     -0.590100
     10 C4         -0.2960   -0.9190   -1.3500 c         1 2IW      0.718500
     11 C5         -1.1180   -2.0310    0.5490 c         1 2IW      0.718500
     12 C6          0.7490   -0.9280    1.9630 c3        1 2IW     -0.032500
     13 C7          2.1390   -1.2460    0.1230 c2        1 2IW     -0.177700
     14 C8          1.4790    0.4230    1.6550 c3        1 2IW     -0.083400
     15 C9          1.6670   -1.8880    1.2180 c2        1 2IW     -0.177700
     16 C10        -4.7310   -7.5110   -5.1520 ca        1 2IW      0.035300
     17 C11        -2.7150   -6.3830   -4.1980 c         1 2IW      0.680700
     18 C12        -8.9000   -7.1540   -5.8320 ca        1 2IW     -0.252300
     19 C13        -8.2410   -8.2220   -6.3970 ca        1 2IW     -0.026300
     20 C14        -6.8300   -8.3620   -6.1780 ca        1 2IW     -0.117300
     21 C15        -6.1680   -7.3800   -5.3790 ca        1 2IW      0.363600
     22 C16        -8.1540   -6.2250   -5.0460 ca        1 2IW      0.415200
     23 C17        -6.0950   -9.4380   -6.7320 ca        1 2IW     -0.150000
     24 C18        -4.7470   -9.5430   -6.5010 ca        1 2IW     -0.094000
     25 C19        -4.0640   -8.5940   -5.7180 ca        1 2IW     -0.168000
     26 C20        -8.9690   -9.2150   -7.2190 c3        1 2IW     -0.062800
     27 C21        -1.1790   -4.5070   -3.6770 ca        1 2IW     -0.077000
     28 C22        -0.7360   -3.4580   -2.8790 ca        1 2IW     -0.147000
     29 C23        -1.4140   -3.1400   -1.6810 ca        1 2IW      0.077600
     30 C24        -2.5390   -3.9100   -1.3120 ca        1 2IW     -0.147000
     31 C25        -2.9700   -4.9570   -2.1210 ca        1 2IW     -0.077000
     32 C26        -2.3010   -5.2570   -3.3090 ca        1 2IW     -0.158600
     33 H1         -0.4460    0.9960   -0.3440 hc        1 2IW      0.100200
     34 H2          2.0670    0.9060   -0.5090 hc        1 2IW      0.093700
     35 H3         -1.2930   -0.1560    1.6240 hc        1 2IW      0.100200
     36 HN3        -4.6690   -5.8620   -3.9350 hn        1 2IW      0.341500
     37 H6          0.5440   -1.1660    3.0210 hc        1 2IW      0.093700
     38 H7          2.8130   -1.6030   -0.6520 ha        1 2IW      0.158500
     39 H8          0.8800    1.3190    1.9230 hc        1 2IW      0.062700
     40 H8A         2.4840    0.4820    2.1230 hc        1 2IW      0.062700
     41 H9          1.8560   -2.9040    1.5600 ha        1 2IW      0.158500
     42 H12        -9.9780   -7.0000   -5.9700 ha        1 2IW      0.144000
     43 H16        -8.6680   -5.3610   -4.5850 h4        1 2IW      0.021100
     44 H17        -6.6180  -10.1860   -7.3470 ha        1 2IW      0.135000
     45 H18        -4.1710  -10.3790   -6.9290 ha        1 2IW      0.137000
     46 H19        -2.9790   -8.7320   -5.5690 ha        1 2IW      0.177000
     47 H20        -8.5460   -9.2460   -8.2550 hc        1 2IW      0.051700
     48 H20A      -10.0550   -8.9610   -7.2900 hc        1 2IW      0.051700
     49 H20B       -8.8750  -10.2360   -6.7690 hc        1 2IW      0.051700
     50 H21        -0.6380   -4.7610   -4.6030 ha        1 2IW      0.151000
     51 H22         0.1410   -2.8730   -3.2000 ha        1 2IW      0.162500
     52 H24        -3.0770   -3.7040   -0.3720 ha        1 2IW      0.162500
     53 H25        -3.8390   -5.5520   -1.7970 ha        1 2IW      0.151000
@<TRIPOS>BOND
     1    1    4 1   
     2    1    7 1   
     3    1   10 1   
     4    1   33 1   
     5    2   10 1   
     6    2   11 1   
     7    2   29 1   
     8    3   10 2   
     9    4   13 1   
    10    4   14 1   
    11    4   34 1   
    12    5   21 ar  
    13    5   22 ar  
    14    6   11 2   
    15    7   11 1   
    16    7   12 1   
    17    7   35 1   
    18    8   16 1   
    19    8   17 1   
    20    8   36 1   
    21    9   17 2   
    22   12   14 1   
    23   12   15 1   
    24   12   37 1   
    25   13   15 2   
    26   13   38 1   
    27   14   39 1   
    28   14   40 1   
    29   15   41 1   
    30   16   21 ar  
    31   16   25 ar  
    32   17   32 1   
    33   18   19 ar  
    34   18   22 ar  
    35   18   42 1   
    36   19   20 ar  
    37   19   26 1   
    38   20   21 ar  
    39   20   23 ar  
    40   22   43 1   
    41   23   24 ar  
    42   23   44 1   
    43   24   25 ar  
    44   24   45 1   
    45   25   46 1   
    46   26   47 1   
    47   26   48 1   
    48   26   49 1   
    49   27   28 ar  
    50   27   32 ar  
    51   27   50 1   
    52   28   29 ar  
    53   28   51 1   
    54   29   30 ar  
    55   30   31 ar  
    56   30   52 1   
    57   31   32 ar  
    58   31   53 1   
@<TRIPOS>SUBSTRUCTURE
     1 2IW         1 TEMP              0 ****  ****    0 ROOT
