@<TRIPOS>MOLECULE
2IW
   53    52     1     0     0
SMALL
bcc


@<TRIPOS>ATOM
      1 C1          0.7390    3.7250    2.7060 c3        1 2IW     -0.137000
      2 N1         -0.3550    2.6810    0.8770 n         1 2IW     -0.299000
      3 O1         -1.1270    2.3590    3.1710 o         1 2IW     -0.296500
      4 C2          0.2200    5.0170    3.2450 c3        1 2IW     -0.076000
      5 N2          0.2630   -2.7280   -2.4560 n1        1 2IW     -0.158000
      6 O2          1.0610    3.6460   -0.8750 o         1 2IW     -0.296500
      7 C3          1.4040    4.1900    1.3820 c3        1 2IW     -0.137000
      8 N3         -1.5280   -2.6680   -1.2780 n         1 2IW     -0.310000
      9 O3         -3.6950   -2.2460   -1.9430 o         1 2IW     -0.351000
     10 C4         -0.3190    2.8250    2.3850 c2        1 2IW      0.326000
     11 C5          0.7360    3.5770    0.2990 c2        1 2IW      0.326000
     12 C6          1.0680    5.7060    1.5140 c3        1 2IW     -0.076000
     13 C7         -0.8320    5.4120    2.3720 c2        1 2IW     -0.173500
     14 C8          1.1520    5.9210    2.8170 c3        1 2IW     -0.162000
     15 C9         -0.3640    5.8000    1.3970 c2        1 2IW     -0.173500
     16 C10        -1.6110   -4.0520   -1.6570 c2        1 2IW      0.108000
     17 C11        -2.6620   -1.8030   -1.4630 c2        1 2IW      0.354000
     18 C12         2.5000   -3.5630   -2.2510 c1        1 2IW     -0.118500
     19 C13         2.0260   -4.7120   -1.6660 c1        1 2IW     -0.019000
     20 C14         0.6560   -4.8780   -1.4700 c1        1 2IW     -0.052000
     21 C15        -0.2200   -3.8880   -1.8640 c1        1 2IW     -0.030000
     22 C16         1.6110   -2.5640   -2.6490 c1        1 2IW     -0.118500
     23 C17         0.1640   -6.0540   -0.8600 c2        1 2IW     -0.150000
     24 C18        -1.2060   -6.2140   -0.6570 c1        1 2IW     -0.094000
     25 C19        -2.0940   -5.2130   -1.0560 c1        1 2IW     -0.169000
     26 C20         3.3410   -5.4870   -1.5080 c3        1 2IW     -0.188000
     27 C21        -3.0820    0.3030   -0.0100 c1        1 2IW     -0.065000
     28 C22        -2.3790    1.3200    0.6290 c1        1 2IW     -0.147000
     29 C23        -1.1410    1.7250    0.1390 c2        1 2IW      0.085000
     30 C24        -0.6070    1.1120   -0.9890 c2        1 2IW     -0.147000
     31 C25        -1.3090    0.0950   -1.6270 c1        1 2IW     -0.089000
     32 C26        -2.5470   -0.3090   -1.1370 c1        1 2IW     -0.138000
     33 H1          1.3960    3.3150    3.3160 hc        1 2IW      0.139500
     34 H2          0.0140    5.0410    4.2100 hc        1 2IW      0.133000
     35 H3          2.3720    4.0210    1.3760 hc        1 2IW      0.139500
     36 HN3        -0.7810   -2.3540   -0.8580 hn        1 2IW      0.255000
     37 H6          1.5890    6.3210    0.9450 hc        1 2IW      0.133000
     38 H7         -1.6680    4.8970    2.3440 ha        1 2IW      0.158500
     39 H8          0.8910    6.8440    3.0460 hc        1 2IW      0.102000
     40 H8A         2.0490    5.7020    3.1600 hc        1 2IW      0.102000
     41 H9         -0.8000    5.6160    0.5350 ha        1 2IW      0.158500
     42 H12         3.4640   -3.4450   -2.3890 ha        1 2IW      0.151000
     43 H16         1.9500   -1.7440   -3.0660 ha        1 2IW      0.151000
     44 H17         0.7870   -6.7580   -0.5790 ha        1 2IW      0.135000
     45 H18        -1.5480   -7.0330   -0.2320 ha        1 2IW      0.137000
     46 H19        -3.0600   -5.3260   -0.9120 ha        1 2IW      0.178000
     47 H20         3.9700   -4.9600   -0.9600 hc        1 2IW      0.091000
     48 H20A        3.1630   -6.3480   -1.0650 hc        1 2IW      0.091000
     49 H20B        3.7350   -5.6490   -2.3930 hc        1 2IW      0.091000
     50 H21        -3.9550    0.0180    0.3360 ha        1 2IW      0.158000
     51 H22        -2.7560    1.7520    1.4230 ha        1 2IW      0.163000
     52 H24         0.2620    1.3950   -1.3340 ha        1 2IW      0.162000
     53 H25        -0.9330   -0.3370   -2.4220 ha        1 2IW      0.144000
@<TRIPOS>BOND
     1    1    4 1   
     2    1    7 1   
     3    1   10 1   
     4    1   33 1   
     5    2   10 1   
     6    2   11 1   
     7    2   29 1   
     8    3   10 1   
     9    4   13 1   
    10    4   14 1   
    11    4   34 1   
    12    5   21 1   
    13    6   11 1   
    14    7   11 1   
    15    7   12 1   
    16    7   35 1   
    17    8   16 1   
    18    8   17 1   
    19    8   36 1   
    20    9   17 1   
    21   12   14 1   
    22   12   15 1   
    23   12   37 1   
    24   13   15 1   
    25   13   38 1   
    26   14   39 1   
    27   14   40 1   
    28   15   41 1   
    29   16   21 1   
    30   16   25 1   
    31   17   32 1   
    32   18   22 1   
    33   18   42 1   
    34   19   20 1   
    35   19   26 1   
    36   20   23 1   
    37   22   43 1   
    38   23   24 1   
    39   23   44 1   
    40   24   45 1   
    41   25   46 1   
    42   26   47 1   
    43   26   48 1   
    44   26   49 1   
    45   27   32 1   
    46   27   50 1   
    47   28   29 1   
    48   28   51 1   
    49   29   30 1   
    50   30   31 1   
    51   30   52 1   
    52   31   53 1   
@<TRIPOS>SUBSTRUCTURE
     1 2IW         1 TEMP              0 ****  ****    0 ROOT
