@<TRIPOS>MOLECULE
2IW
   53    58     1     0     0
SMALL
bcc


@<TRIPOS>ATOM
      1 C1          0.0600   -0.0010   -0.1710 c3        1 2IW     -0.147700
      2 N1         -0.9500   -2.0720   -0.8590 n         1 2IW     -0.425600
      3 O1         -0.0280   -0.6870   -2.5270 o         1 2IW     -0.572000
      4 C2          1.5750    0.1540    0.1210 c3        1 2IW     -0.032500
      5 N2         -6.8460   -6.3190   -4.7950 nb        1 2IW     -0.684000
      6 O2         -1.6410   -2.9060    1.2340 o         1 2IW     -0.572000
      7 C3         -0.4800   -0.7480    1.0920 c3        1 2IW     -0.147700
      8 N3         -4.0700   -6.5420   -4.3590 ns        1 2IW     -0.456100
      9 O3         -1.8500   -7.0870   -4.7680 o         1 2IW     -0.590100
     10 C4         -0.2730   -0.9170   -1.3410 c         1 2IW      0.718500
     11 C5         -1.0870   -2.0370    0.5570 c         1 2IW      0.718500
     12 C6          0.7840   -0.9390    1.9680 c3        1 2IW     -0.032500
     13 C7          2.1680   -1.2490    0.1230 c2        1 2IW     -0.177700
     14 C8          1.5120    0.4140    1.6640 c3        1 2IW     -0.083400
     15 C9          1.7000   -1.8960    1.2160 c2        1 2IW     -0.177700
     16 C10        -4.7170   -7.4980   -5.1520 ca        1 2IW      0.035300
     17 C11        -2.6990   -6.3710   -4.2030 c         1 2IW      0.680700
     18 C12        -8.8940   -7.1560   -5.7930 ca        1 2IW     -0.252300
     19 C13        -8.2350   -8.2170   -6.3700 ca        1 2IW     -0.026300
     20 C14        -6.8220   -8.3520   -6.1650 ca        1 2IW     -0.117300
     21 C15        -6.1570   -7.3730   -5.3660 ca        1 2IW      0.363600
     22 C16        -8.1450   -6.2290   -5.0070 ca        1 2IW      0.415200
     23 C17        -6.0870   -9.4210   -6.7320 ca        1 2IW     -0.150000
     24 C18        -4.7360   -9.5220   -6.5140 ca        1 2IW     -0.094000
     25 C19        -4.0510   -8.5750   -5.7310 ca        1 2IW     -0.169000
     26 C20        -8.9660   -9.2090   -7.1920 c3        1 2IW     -0.062800
     27 C21        -1.1620   -4.4960   -3.6790 ca        1 2IW     -0.077000
     28 C22        -0.7170   -3.4500   -2.8790 ca        1 2IW     -0.147000
     29 C23        -1.3910   -3.1370   -1.6770 ca        1 2IW      0.077600
     30 C24        -2.5140   -3.9100   -1.3080 ca        1 2IW     -0.147000
     31 C25        -2.9480   -4.9530   -2.1190 ca        1 2IW     -0.077000
     32 C26        -2.2820   -5.2480   -3.3110 ca        1 2IW     -0.158600
     33 H1         -0.4200    0.9940   -0.3270 hc        1 2IW      0.100200
     34 H2          2.0920    0.9060   -0.5000 hc        1 2IW      0.093700
     35 H3         -1.2600   -0.1670    1.6390 hc        1 2IW      0.100200
     36 HN3        -4.6520   -5.8550   -3.9280 hn        1 2IW      0.341500
     37 H6          0.5820   -1.1810    3.0260 hc        1 2IW      0.093700
     38 H7          2.8400   -1.6030   -0.6560 ha        1 2IW      0.158500
     39 H8          0.9130    1.3080    1.9370 hc        1 2IW      0.062700
     40 H8A         2.5180    0.4720    2.1290 hc        1 2IW      0.062700
     41 H9          1.8900   -2.9120    1.5550 ha        1 2IW      0.158500
     42 H12        -9.9740   -7.0060   -5.9190 ha        1 2IW      0.144000
     43 H16        -8.6590   -5.3710   -4.5350 h4        1 2IW      0.021100
     44 H17        -6.6120  -10.1670   -7.3470 ha        1 2IW      0.135000
     45 H18        -4.1600  -10.3520   -6.9520 ha        1 2IW      0.137000
     46 H19        -2.9640   -8.7090   -5.5930 ha        1 2IW      0.178000
     47 H20        -8.8630  -10.2320   -6.7500 hc        1 2IW      0.051700
     48 H20A       -8.5530   -9.2310   -8.2320 hc        1 2IW      0.051700
     49 H20B      -10.0540   -8.9590   -7.2520 hc        1 2IW      0.051700
     50 H21        -0.6240   -4.7450   -4.6090 ha        1 2IW      0.151000
     51 H22         0.1590   -2.8640   -3.2000 ha        1 2IW      0.162500
     52 H24        -3.0490   -3.7070   -0.3650 ha        1 2IW      0.162500
     53 H25        -3.8150   -5.5500   -1.7950 ha        1 2IW      0.151000
@<TRIPOS>BOND
     1    1    4 1   
     2    1    7 1   
     3    1   10 1   
     4    1   33 1   
     5    2   10 1   
     6    2   11 1   
     7    2   29 1   
     8    3   10 2   
     9    4   13 1   
    10    4   14 1   
    11    4   34 1   
    12    5   21 ar  
    13    5   22 ar  
    14    6   11 2   
    15    7   11 1   
    16    7   12 1   
    17    7   35 1   
    18    8   16 1   
    19    8   17 1   
    20    8   36 1   
    21    9   17 2   
    22   12   14 1   
    23   12   15 1   
    24   12   37 1   
    25   13   15 2   
    26   13   38 1   
    27   14   39 1   
    28   14   40 1   
    29   15   41 1   
    30   16   21 ar  
    31   16   25 ar  
    32   17   32 1   
    33   18   19 ar  
    34   18   22 ar  
    35   18   42 1   
    36   19   20 ar  
    37   19   26 1   
    38   20   21 ar  
    39   20   23 ar  
    40   22   43 1   
    41   23   24 ar  
    42   23   44 1   
    43   24   25 ar  
    44   24   45 1   
    45   25   46 1   
    46   26   47 1   
    47   26   48 1   
    48   26   49 1   
    49   27   28 ar  
    50   27   32 ar  
    51   27   50 1   
    52   28   29 ar  
    53   28   51 1   
    54   29   30 ar  
    55   30   31 ar  
    56   30   52 1   
    57   31   32 ar  
    58   31   53 1   
@<TRIPOS>SUBSTRUCTURE
     1 2IW         1 TEMP              0 ****  ****    0 ROOT
