@<TRIPOS>MOLECULE
2J1
   28    30     1     0     0
SMALL
bcc


@<TRIPOS>ATOM
      1 CL          0.0230    0.1530    0.0070 cl        1 2J1     -0.118400
      2 C1          1.7290    0.0630   -0.0090 ca        1 2J1      0.024400
      3 C2          2.3860    0.0620    1.2200 ca        1 2J1     -0.111000
      4 C3          3.7780   -0.0030    1.2300 ca        1 2J1     -0.103800
      5 C6          4.7840   -0.0050    2.2710 cc        1 2J1     -0.123400
      6 C7          4.6170    0.0670    3.7280 c3        1 2J1     -0.001200
      7 C8          5.9050   -0.3160    4.4420 c3        1 2J1     -0.074400
      8 C9          7.1240    0.3260    3.8070 c3        1 2J1     -0.068400
      9 C10         7.3220   -0.1150    2.3640 c3        1 2J1     -0.008200
     10 C5          6.0290   -0.0800    1.6450 cd        1 2J1     -0.106300
     11 N           5.8710   -0.2090    0.2510 na        1 2J1     -0.178400
     12 C4          4.4930   -0.0850   -0.0220 ca        1 2J1     -0.052200
     13 C11         3.8100   -0.0830   -1.2440 ca        1 2J1     -0.135000
     14 C12         2.4210   -0.0040   -1.2370 ca        1 2J1     -0.068600
     15 C13         1.7000    0.0140   -2.5890 c         1 2J1      0.917200
     16 O2          1.5590    1.1330   -3.1510 o         1 2J1     -0.814300
     17 O1          1.3330   -1.0930   -3.0660 o         1 2J1     -0.814300
     18 H1          1.8300    0.1100    2.1650 ha        1 2J1      0.125000
     19 H2          4.3230    1.1130    4.0180 hc        1 2J1      0.042700
     20 H3          3.7870   -0.6130    4.0590 hc        1 2J1      0.042700
     21 H4          6.0230   -1.4310    4.4170 hc        1 2J1      0.033200
     22 H5          5.8400   -0.0070    5.5170 hc        1 2J1      0.033200
     23 H6          7.0100    1.4410    3.8390 hc        1 2J1      0.034200
     24 H7          8.0380    0.0610    4.3990 hc        1 2J1      0.034200
     25 H8          7.7340   -1.1610    2.3410 hc        1 2J1      0.039700
     26 H9          8.0770    0.5520    1.8680 hc        1 2J1      0.039700
     27 H10         6.5620    0.0850   -0.3890 hn        1 2J1      0.272700
     28 H11         4.3470   -0.1410   -2.2010 ha        1 2J1      0.141000
@<TRIPOS>BOND
     1    1    2 1   
     2    2    3 ar  
     3    2   14 ar  
     4    3    4 ar  
     5    3   18 1   
     6    4    5 1   
     7    4   12 ar  
     8    5    6 1   
     9    5   10 2   
    10    6    7 1   
    11    6   19 1   
    12    6   20 1   
    13    7    8 1   
    14    7   21 1   
    15    7   22 1   
    16    8    9 1   
    17    8   23 1   
    18    8   24 1   
    19    9   10 1   
    20    9   25 1   
    21    9   26 1   
    22   10   11 1   
    23   11   12 1   
    24   11   27 1   
    25   12   13 ar  
    26   13   14 ar  
    27   13   28 1   
    28   14   15 1   
    29   15   16 1   
    30   15   17 1   
@<TRIPOS>SUBSTRUCTURE
     1 2J1         1 TEMP              0 ****  ****    0 ROOT
