@<TRIPOS>MOLECULE
2J1
   28    22     1     0     0
SMALL
bcc


@<TRIPOS>ATOM
      1 CL         -4.3770   -0.2920   -1.8750 cl        1 2J1     -0.040000
      2 C1         -2.6360   -0.2630   -1.8020 c1        1 2J1     -0.054000
      3 C2         -2.0790   -0.2100   -0.5240 c1        1 2J1     -0.111000
      4 C3         -0.6930   -0.1080   -0.3700 c1        1 2J1     -0.092000
      5 C6          0.1050   -0.0260    0.7460 c1        1 2J1     -0.131000
      6 C7         -0.1630   -0.0790    2.3080 c2        1 2J1     -0.084000
      7 C8          0.9770   -0.1720    3.1410 c3        1 2J1     -0.153000
      8 C9          2.1500    0.5440    2.7200 c3        1 2J1     -0.147000
      9 C10         2.6060    0.3070    1.4020 c3        1 2J1     -0.091000
     10 C5          1.4910    0.0770    0.2980 c2        1 2J1     -0.075000
     11 N           1.4940    0.0560   -1.0580 n2        1 2J1     -0.201000
     12 C4          0.1390   -0.0600   -1.5040 c1        1 2J1     -0.007000
     13 C11        -0.4210   -0.1140   -2.7820 c1        1 2J1     -0.135000
     14 C12        -1.8050   -0.2150   -2.9340 c1        1 2J1     -0.048000
     15 C13        -2.5420   -0.1870   -4.2550 c1        1 2J1      0.366000
     16 O2         -2.7420    0.9090   -4.8410 os        1 2J1     -0.551000
     17 O1         -2.9650   -1.2590   -4.7630 o         1 2J1     -0.547000
     18 H1         -2.6560   -0.2520    0.2620 ha        1 2J1      0.125000
     19 H2         -0.6550    0.7300    2.5580 ha        1 2J1      0.082000
     20 H3         -0.7350   -0.8530    2.4910 ha        1 2J1      0.082000
     21 H4          0.7270    0.1550    4.0320 hc        1 2J1      0.072500
     22 H5          1.2150   -1.1200    3.2220 hc        1 2J1      0.072500
     23 H6          2.8790    0.3170    3.3370 hc        1 2J1      0.073500
     24 H7          1.9660    1.5030    2.8080 hc        1 2J1      0.073500
     25 H8          3.1830   -0.4840    1.4190 hc        1 2J1      0.079000
     26 H9          3.1490    1.0750    1.1280 hc        1 2J1      0.079000
     27 H10         2.2320    0.1010   -1.5930 DU        1 2J1      0.223000
     28 H11         0.1560   -0.0810   -3.5690 ha        1 2J1      0.141000
@<TRIPOS>BOND
     1    1    2 1   
     2    2    3 1   
     3    3   18 1   
     4    4   12 1   
     5    5   10 1   
     6    6    7 1   
     7    6   19 1   
     8    6   20 1   
     9    7    8 1   
    10    7   21 1   
    11    7   22 1   
    12    8    9 1   
    13    8   23 1   
    14    8   24 1   
    15    9   10 1   
    16    9   25 1   
    17    9   26 1   
    18   10   11 1   
    19   11   12 1   
    20   13   14 1   
    21   13   28 1   
    22   15   17 1   
@<TRIPOS>SUBSTRUCTURE
     1 2J1         1 TEMP              0 ****  ****    0 ROOT
