@<TRIPOS>MOLECULE
2J1
   28    30     1     0     0
SMALL
bcc


@<TRIPOS>ATOM
      1 CL         -2.8460    2.0140   -0.1920 cl        1 2J1     -0.118400
      2 C1         -1.6110    0.8400   -0.0840 ca        1 2J1      0.024400
      3 C2         -0.2920    1.2880   -0.0870 ca        1 2J1     -0.111000
      4 C3          0.7320    0.3470   -0.0060 ca        1 2J1     -0.103800
      5 C6          2.1780    0.4210   -0.0030 cc        1 2J1     -0.123400
      6 C7          3.0510    1.5990   -0.0910 c3        1 2J1     -0.001200
      7 C8          4.4790    1.2470    0.3000 c3        1 2J1     -0.074400
      8 C9          4.9370   -0.0580   -0.3230 c3        1 2J1     -0.068400
      9 C10         4.0960   -1.2420    0.1340 c3        1 2J1     -0.008200
     10 C5          2.6610   -0.8850    0.0910 cd        1 2J1     -0.106300
     11 N           1.5930   -1.7940    0.2310 na        1 2J1     -0.178400
     12 C4          0.4000   -1.0550    0.0940 ca        1 2J1     -0.052200
     13 C11        -0.9330   -1.4820    0.0970 ca        1 2J1     -0.135000
     14 C12        -1.9440   -0.5290    0.0030 ca        1 2J1     -0.068600
     15 C13        -3.3930   -1.0250   -0.0110 c         1 2J1      0.917200
     16 O2         -3.8780   -1.3560   -1.1260 o         1 2J1     -0.814300
     17 O1         -3.9890   -1.1080    1.0960 o         1 2J1     -0.814300
     18 H1         -0.0530    2.3590   -0.1500 ha        1 2J1      0.125000
     19 H2          3.0350    1.9960   -1.1430 hc        1 2J1      0.042700
     20 H3          2.6690    2.4170    0.5770 hc        1 2J1      0.042700
     21 H4          5.1650    2.0720   -0.0200 hc        1 2J1      0.033200
     22 H5          4.5460    1.1640    1.4170 hc        1 2J1      0.033200
     23 H6          4.8770    0.0270   -1.4390 hc        1 2J1      0.034200
     24 H7          6.0080   -0.2460   -0.0530 hc        1 2J1      0.034200
     25 H8          4.3100   -2.1280   -0.5200 hc        1 2J1      0.039700
     26 H9          4.3790   -1.5240    1.1850 hc        1 2J1      0.039700
     27 H10         1.6620   -2.7370   -0.0490 hn        1 2J1      0.272700
     28 H11        -1.1940   -2.5460    0.1690 ha        1 2J1      0.141000
@<TRIPOS>BOND
     1    1    2 1   
     2    2    3 ar  
     3    2   14 ar  
     4    3    4 ar  
     5    3   18 1   
     6    4    5 1   
     7    4   12 ar  
     8    5    6 1   
     9    5   10 2   
    10    6    7 1   
    11    6   19 1   
    12    6   20 1   
    13    7    8 1   
    14    7   21 1   
    15    7   22 1   
    16    8    9 1   
    17    8   23 1   
    18    8   24 1   
    19    9   10 1   
    20    9   25 1   
    21    9   26 1   
    22   10   11 1   
    23   11   12 1   
    24   11   27 1   
    25   12   13 ar  
    26   13   14 ar  
    27   13   28 1   
    28   14   15 1   
    29   15   16 1   
    30   15   17 1   
@<TRIPOS>SUBSTRUCTURE
     1 2J1         1 TEMP              0 ****  ****    0 ROOT
