@<TRIPOS>MOLECULE
2J1
   28    30     1     0     0
SMALL
bcc


@<TRIPOS>ATOM
      1 Cl          0.0310    0.2560   -0.0020 cl        1 2J1     -0.118400
      2 C1          1.7330    0.1160   -0.0140 ca        1 2J1      0.024400
      3 C2          2.3890    0.1210    1.2150 ca        1 2J1     -0.111000
      4 C3          3.7780    0.0160    1.2290 ca        1 2J1     -0.103800
      5 C6          4.7830    0.0070    2.2710 cc        1 2J1     -0.123400
      6 C7          4.6170    0.1140    3.7260 c3        1 2J1     -0.001200
      7 C8          5.8930   -0.2920    4.4490 c3        1 2J1     -0.074400
      8 C9          7.1300    0.3020    3.8030 c3        1 2J1     -0.068400
      9 C10         7.3170   -0.1740    2.3700 c3        1 2J1     -0.008200
     10 C5          6.0260   -0.1170    1.6490 cd        1 2J1     -0.106300
     11 N           5.8650   -0.2700    0.2570 na        1 2J1     -0.178400
     12 C4          4.4920   -0.1120   -0.0200 ca        1 2J1     -0.052200
     13 C11         3.8100   -0.1160   -1.2430 ca        1 2J1     -0.135000
     14 C12         2.4240    0.0030   -1.2400 ca        1 2J1     -0.068600
     15 C13         1.7040    0.0140   -2.5920 c         1 2J1      0.917200
     16 O2          1.5990    1.1240   -3.1790 o         1 2J1     -0.814300
     17 O1          1.3040   -1.0910   -3.0460 o         1 2J1     -0.814300
     18 H1          1.8330    0.2050    2.1590 ha        1 2J1      0.125000
     19 H2          4.3530    1.1740    3.9940 hc        1 2J1      0.042700
     20 H3          3.7670   -0.5340    4.0690 hc        1 2J1      0.042700
     21 H4          5.8360    0.0420    5.5180 hc        1 2J1      0.033200
     22 H5          5.9790   -1.4100    4.4480 hc        1 2J1      0.033200
     23 H6          8.0360    0.0230    4.4010 hc        1 2J1      0.034200
     24 H7          7.0480    1.4210    3.8120 hc        1 2J1      0.034200
     25 H8          7.6980   -1.2320    2.3690 hc        1 2J1      0.039700
     26 H9          8.0910    0.4600    1.8610 hc        1 2J1      0.039700
     27 H10         6.5650   -0.0090   -0.3880 hn        1 2J1      0.272700
     28 H11         4.3460   -0.2080   -2.1980 ha        1 2J1      0.141000
@<TRIPOS>BOND
     1    1    2 1   
     2    2    3 ar  
     3    2   14 ar  
     4    3    4 ar  
     5    3   18 1   
     6    4    5 1   
     7    4   12 ar  
     8    5    6 1   
     9    5   10 2   
    10    6    7 1   
    11    6   19 1   
    12    6   20 1   
    13    7    8 1   
    14    7   21 1   
    15    7   22 1   
    16    8    9 1   
    17    8   23 1   
    18    8   24 1   
    19    9   10 1   
    20    9   25 1   
    21    9   26 1   
    22   10   11 1   
    23   11   12 1   
    24   11   27 1   
    25   12   13 ar  
    26   13   14 ar  
    27   13   28 1   
    28   14   15 1   
    29   15   16 1   
    30   15   17 1   
@<TRIPOS>SUBSTRUCTURE
     1 2J1         1 TEMP              0 ****  ****    0 ROOT
