@<TRIPOS>MOLECULE
2J2
   28    30     1     0     0
SMALL
bcc


@<TRIPOS>ATOM
      1 C4          0.0050    0.0110    0.0080 cc        1 2J2      0.033700
      2 C5          1.4120   -0.0270    0.0120 cd        1 2J2     -0.209400
      3 C6          2.2040   -0.0450    1.2480 c3        1 2J2      0.014800
      4 C7          1.3290   -0.3670    2.4510 c3        1 2J2     -0.077400
      5 C8          0.0040    0.3710    2.4240 c3        1 2J2     -0.054400
      6 C10        -2.1090    0.8890    1.0970 c         1 2J2      0.923600
      7 O1         -2.4500    1.5730    2.0960 o         1 2J2     -0.833800
      8 O          -2.7540    0.8490    0.0060 o         1 2J2     -0.833800
      9 C9         -0.8470   -0.0100    1.2210 c3        1 2J2     -0.149500
     10 C2          1.8390    0.0090   -1.3610 ca        1 2J2     -0.061800
     11 C1          3.0780   -0.0130   -1.9980 ca        1 2J2     -0.097000
     12 N          -0.4730    0.0360   -1.3020 na        1 2J2     -0.151400
     13 C3          0.6230    0.0780   -2.1620 ca        1 2J2     -0.062200
     14 C11         0.6900    0.1320   -3.5610 ca        1 2J2     -0.130000
     15 C12         1.9390    0.1140   -4.1640 ca        1 2J2     -0.143000
     16 C           3.1090    0.0390   -3.3870 ca        1 2J2     -0.012600
     17 Cl          4.6220    0.0140   -4.1910 cl        1 2J2     -0.154400
     18 H1          2.6870    0.9610    1.3960 hc        1 2J2      0.025700
     19 H2          3.0330   -0.7990    1.1720 hc        1 2J2      0.025700
     20 H3          1.8850   -0.1000    3.3880 hc        1 2J2      0.022200
     21 H4          1.1350   -1.4710    2.4790 hc        1 2J2      0.022200
     22 H5          0.1810    1.4780    2.4050 hc        1 2J2      0.053200
     23 H6         -0.5810    0.1480    3.3530 hc        1 2J2      0.053200
     24 H8         -1.2350   -1.0600    1.3550 hc        1 2J2      0.057700
     25 H9          4.0030   -0.0710   -1.4070 ha        1 2J2      0.135000
     26 H10        -1.4240    0.2710   -1.5060 hn        1 2J2      0.347700
     27 H11        -0.2250    0.1910   -4.1670 ha        1 2J2      0.129000
     28 H12         2.0150    0.1590   -5.2600 ha        1 2J2      0.126000
@<TRIPOS>BOND
     1    1    2 2   
     2    1    9 1   
     3    1   12 1   
     4    2    3 1   
     5    2   10 1   
     6    3    4 1   
     7    3   18 1   
     8    3   19 1   
     9    4    5 1   
    10    4   20 1   
    11    4   21 1   
    12    5    9 1   
    13    5   22 1   
    14    5   23 1   
    15    6    7 1   
    16    6    8 1   
    17    6    9 1   
    18    9   24 1   
    19   10   11 ar  
    20   10   13 ar  
    21   11   16 ar  
    22   11   25 1   
    23   12   13 1   
    24   12   26 1   
    25   13   14 ar  
    26   14   15 ar  
    27   14   27 1   
    28   15   16 ar  
    29   15   28 1   
    30   16   17 1   
@<TRIPOS>SUBSTRUCTURE
     1 2J2         1 TEMP              0 ****  ****    0 ROOT
