@<TRIPOS>MOLECULE
2J2
   28    30     1     0     0
SMALL
bcc


@<TRIPOS>ATOM
      1 C4          0.0020    0.0180    0.0120 cc        1 2J2      0.033700
      2 C5          1.4090   -0.0240    0.0110 cd        1 2J2     -0.209400
      3 C6          2.2050   -0.0350    1.2440 c3        1 2J2      0.014800
      4 C7          1.3330   -0.3430    2.4540 c3        1 2J2     -0.077400
      5 C8          0.0110    0.3990    2.4250 c3        1 2J2     -0.054400
      6 C10        -2.1060    0.9130    1.1010 c         1 2J2      0.923600
      7 O1         -2.4400    1.6070    2.0960 o         1 2J2     -0.833800
      8 O          -2.7540    0.8680    0.0130 o         1 2J2     -0.833800
      9 C9         -0.8460    0.0110    1.2280 c3        1 2J2     -0.149500
     10 C2          1.8310   -0.0020   -1.3630 ca        1 2J2     -0.061800
     11 C1          3.0670   -0.0340   -2.0050 ca        1 2J2     -0.097000
     12 N          -0.4810    0.0350   -1.2960 na        1 2J2     -0.151400
     13 C3          0.6120    0.0650   -2.1610 ca        1 2J2     -0.062200
     14 C11         0.6730    0.1070   -3.5610 ca        1 2J2     -0.130000
     15 C12         1.9200    0.0790   -4.1680 ca        1 2J2     -0.143000
     16 C           3.0930    0.0070   -3.3950 ca        1 2J2     -0.012600
     17 CL          4.6030   -0.0310   -4.2040 cl        1 2J2     -0.154400
     18 H1          2.6920    0.9700    1.3820 hc        1 2J2      0.025700
     19 H2          3.0310   -0.7920    1.1710 hc        1 2J2      0.025700
     20 H3          1.8930   -0.0700    3.3860 hc        1 2J2      0.022200
     21 H4          1.1360   -1.4460    2.4910 hc        1 2J2      0.022200
     22 H5          0.1920    1.5050    2.3960 hc        1 2J2      0.053200
     23 H6         -0.5710    0.1870    3.3580 hc        1 2J2      0.053200
     24 H8         -1.2370   -1.0360    1.3720 hc        1 2J2      0.057700
     25 H9          3.9940   -0.0890   -1.4170 ha        1 2J2      0.135000
     26 H10        -1.4320    0.2720   -1.4990 hn        1 2J2      0.347700
     27 H11        -0.2430    0.1640   -4.1630 ha        1 2J2      0.129000
     28 H12         1.9930    0.1150   -5.2640 ha        1 2J2      0.126000
@<TRIPOS>BOND
     1    1    2 2   
     2    1    9 1   
     3    1   12 1   
     4    2    3 1   
     5    2   10 1   
     6    3    4 1   
     7    3   18 1   
     8    3   19 1   
     9    4    5 1   
    10    4   20 1   
    11    4   21 1   
    12    5    9 1   
    13    5   22 1   
    14    5   23 1   
    15    6    7 1   
    16    6    8 1   
    17    6    9 1   
    18    9   24 1   
    19   10   11 ar  
    20   10   13 ar  
    21   11   16 ar  
    22   11   25 1   
    23   12   13 1   
    24   12   26 1   
    25   13   14 ar  
    26   14   15 ar  
    27   14   27 1   
    28   15   16 ar  
    29   15   28 1   
    30   16   17 1   
@<TRIPOS>SUBSTRUCTURE
     1 2J2         1 TEMP              0 ****  ****    0 ROOT
