@<TRIPOS>MOLECULE
2J2
   28    30     1     0     0
SMALL
bcc


@<TRIPOS>ATOM
      1 C4          1.2950    0.0350    0.3600 cc        1 2J2      0.033700
      2 C5          0.3450   -0.9780    0.1300 cd        1 2J2     -0.209400
      3 C6          0.7150   -2.3830   -0.0750 c3        1 2J2      0.014800
      4 C7          2.1600   -2.6330    0.3340 c3        1 2J2     -0.077400
      5 C8          3.0970   -1.5370   -0.1370 c3        1 2J2     -0.054400
      6 C10         3.5960    0.9620   -0.1660 c         1 2J2      0.923600
      7 O1          4.6160    0.6500   -0.8310 o         1 2J2     -0.833800
      8 O           3.2280    2.1540    0.0590 o         1 2J2     -0.833800
      9 C9          2.7570   -0.1830    0.4690 c3        1 2J2     -0.149500
     10 C2         -0.9460   -0.3460    0.0970 ca        1 2J2     -0.061800
     11 C1         -2.2520   -0.8010   -0.0780 ca        1 2J2     -0.097000
     12 N           0.6600    1.2680    0.5030 na        1 2J2     -0.151400
     13 C3         -0.7070    1.0770    0.3070 ca        1 2J2     -0.062200
     14 C11        -1.7720    1.9880    0.3240 ca        1 2J2     -0.130000
     15 C12        -3.0590    1.5020    0.1420 ca        1 2J2     -0.143000
     16 C          -3.2860    0.1270   -0.0520 ca        1 2J2     -0.012600
     17 CL         -4.8990   -0.4110   -0.2660 cl        1 2J2     -0.154400
     18 H1          0.0350   -3.0580    0.5110 hc        1 2J2      0.025700
     19 H2          0.5840   -2.6490   -1.1610 hc        1 2J2      0.025700
     20 H3          2.2160   -2.7100    1.4520 hc        1 2J2      0.022200
     21 H4          2.4940   -3.6160   -0.0880 hc        1 2J2      0.022200
     22 H5          4.1540   -1.7900    0.1370 hc        1 2J2      0.053200
     23 H6          3.0590   -1.4520   -1.2540 hc        1 2J2      0.053200
     24 H8          3.0270   -0.1840    1.5640 hc        1 2J2      0.057700
     25 H9         -2.4470   -1.8720   -0.2320 ha        1 2J2      0.135000
     26 H10         1.1720    2.1280    0.4650 hn        1 2J2      0.347700
     27 H11        -1.5940    3.0610    0.4760 ha        1 2J2      0.129000
     28 H12        -3.9090    2.1980    0.1480 ha        1 2J2      0.126000
@<TRIPOS>BOND
     1    1    2 2   
     2    1    9 1   
     3    1   12 1   
     4    2    3 1   
     5    2   10 1   
     6    3    4 1   
     7    3   18 1   
     8    3   19 1   
     9    4    5 1   
    10    4   20 1   
    11    4   21 1   
    12    5    9 1   
    13    5   22 1   
    14    5   23 1   
    15    6    7 1   
    16    6    8 1   
    17    6    9 1   
    18    9   24 1   
    19   10   11 ar  
    20   10   13 ar  
    21   11   16 ar  
    22   11   25 1   
    23   12   13 1   
    24   12   26 1   
    25   13   14 ar  
    26   14   15 ar  
    27   14   27 1   
    28   15   16 ar  
    29   15   28 1   
    30   16   17 1   
@<TRIPOS>SUBSTRUCTURE
     1 2J2         1 TEMP              0 ****  ****    0 ROOT
