@<TRIPOS>MOLECULE
2J2
   28    23     1     0     0
SMALL
bcc


@<TRIPOS>ATOM
      1 C4         -0.9430   -0.1580    0.2100 c1        1 2J2      0.024000
      2 C5          0.5100   -0.1360    0.1870 c1        1 2J2     -0.133500
      3 C6          1.2770   -0.1210    1.5480 c2        1 2J2     -0.068000
      4 C7          0.5040   -0.2750    2.7360 c3        1 2J2     -0.156000
      5 C8         -0.7910    0.3080    2.7520 c3        1 2J2     -0.133000
      6 C10        -2.8970    0.9900    1.5690 c1        1 2J2      0.343000
      7 O1         -4.0370    0.6780    2.0180 os        1 2J2     -0.542000
      8 O          -2.7070    2.1470    1.0680 o         1 2J2     -0.595000
      9 C9         -1.7030   -0.0320    1.6610 c2        1 2J2     -0.143000
     10 C2          0.9110   -0.1680   -1.1220 c1        1 2J2     -0.133500
     11 C1          2.1990   -0.1880   -1.7220 c1        1 2J2     -0.097000
     12 N          -1.3790   -0.2030   -1.0700 n2        1 2J2     -0.174000
     13 C3         -0.2380   -0.2100   -1.9260 c1        1 2J2      0.024000
     14 C11        -0.1100   -0.2710   -3.3330 c1        1 2J2     -0.136500
     15 C12         1.1810   -0.2900   -3.9290 c1        1 2J2     -0.136500
     16 C           2.3250   -0.2490   -3.1240 c1        1 2J2     -0.091000
     17 CL          3.8310   -0.2530   -3.9870 cl        1 2J2     -0.076000
     18 H1          1.7450    0.7120    1.6110 ha        1 2J2      0.065000
     19 H2          1.8990   -0.7920    1.5260 ha        1 2J2      0.065000
     20 H3          1.0210    0.1160    3.4900 hc        1 2J2      0.061500
     21 H4          0.4050   -1.2380    2.9090 hc        1 2J2      0.061500
     22 H5         -1.2280    0.0540    3.6020 hc        1 2J2      0.092500
     23 H6         -0.6800    1.2750    2.7510 hc        1 2J2      0.092500
     24 H8         -2.1950   -0.8780    1.8760 ha        1 2J2      0.097000
     25 H9          3.0210   -0.0930   -1.1470 ha        1 2J2      0.135000
     26 H10        -2.2930   -0.2140   -1.3500 DU        1 2J2      0.298000
     27 H11        -0.8970   -0.2990   -3.8880 ha        1 2J2      0.127500
     28 H12         1.2680   -0.2130   -4.9150 ha        1 2J2      0.127500
@<TRIPOS>BOND
     1    1    2 1   
     2    1   12 1   
     3    2   10 1   
     4    3    4 1   
     5    3   18 1   
     6    3   19 1   
     7    4    5 1   
     8    4   20 1   
     9    4   21 1   
    10    5    9 1   
    11    5   22 1   
    12    5   23 1   
    13    6    8 1   
    14    6    9 1   
    15    9   24 1   
    16   10   13 1   
    17   11   16 1   
    18   11   25 1   
    19   12   13 1   
    20   14   15 1   
    21   14   27 1   
    22   15   28 1   
    23   16   17 1   
@<TRIPOS>SUBSTRUCTURE
     1 2J2         1 TEMP              0 ****  ****    0 ROOT
