@<TRIPOS>MOLECULE
2J5
   30    31     1     0     0
SMALL
bcc


@<TRIPOS>ATOM
      1 C4         -3.6020   -1.5620    0.1400 ca        1 2J5      0.430200
      2 C5         -1.8010   -0.1180   -0.1350 ca        1 2J5      0.636200
      3 C6          0.5020   -1.0010   -0.1930 c3        1 2J5      0.247100
      4 N1         -0.4340    0.0870   -0.3750 nh        1 2J5     -0.846900
      5 C7          1.9280   -0.5410   -0.2650 ca        1 2J5     -0.166300
      6 C8          2.7520   -0.9710   -1.3090 ca        1 2J5     -0.080000
      7 C9          4.0810   -0.5560   -1.3790 ca        1 2J5     -0.157000
      8 C10         4.6010    0.3010   -0.4080 ca        1 2J5     -0.099000
      9 C11         3.8040    0.7390    0.6440 ca        1 2J5     -0.150000
     10 C12         2.4670    0.3150    0.7120 ca        1 2J5      0.116100
     11 O           1.7160    0.8270    1.7500 oh        1 2J5     -0.510100
     12 C1         -2.6820    1.0190   -0.1200 ca        1 2J5     -0.242600
     13 C          -2.1660    2.3970   -0.2630 c3        1 2J5     -0.046800
     14 N          -2.2780   -1.3980    0.0100 nb        1 2J5     -0.727000
     15 C3         -4.5330   -0.5130    0.1540 ca        1 2J5     -0.292300
     16 C2         -4.0500    0.7890    0.0230 ca        1 2J5     -0.062000
     17 H1         -3.9310   -2.6130    0.2450 h4        1 2J5      0.019100
     18 H2          0.3440   -1.5220    0.8000 h1        1 2J5      0.057700
     19 H3          0.3020   -1.7640   -1.0000 h1        1 2J5      0.057700
     20 H4         -0.0980    0.9810   -0.0820 hn        1 2J5      0.419800
     21 H5          2.3430   -1.6370   -2.0830 ha        1 2J5      0.140000
     22 H6          4.7190   -0.9020   -2.2050 ha        1 2J5      0.136000
     23 H7          5.6490    0.6310   -0.4710 ha        1 2J5      0.136000
     24 H8          4.1960    1.4140    1.4170 ha        1 2J5      0.151000
     25 H9          1.0490    0.1660    1.9890 ho        1 2J5      0.421000
     26 H10        -1.6180    2.5160   -1.2320 hc        1 2J5      0.045033
     27 H11        -3.0010    3.1400   -0.2440 hc        1 2J5      0.045033
     28 H12        -1.4630    2.6470    0.5720 hc        1 2J5      0.045033
     29 H13        -5.6050   -0.7150    0.2650 ha        1 2J5      0.143000
     30 H14        -4.7480    1.6400    0.0330 ha        1 2J5      0.135000
@<TRIPOS>BOND
     1    1   14 ar  
     2    1   15 ar  
     3    1   17 1   
     4    2    4 1   
     5    2   12 ar  
     6    2   14 ar  
     7    3    4 1   
     8    3    5 1   
     9    3   18 1   
    10    3   19 1   
    11    4   20 1   
    12    5    6 ar  
    13    5   10 ar  
    14    6    7 ar  
    15    6   21 1   
    16    7    8 ar  
    17    7   22 1   
    18    8    9 ar  
    19    8   23 1   
    20    9   10 ar  
    21    9   24 1   
    22   10   11 1   
    23   11   25 1   
    24   12   13 1   
    25   12   16 ar  
    26   13   26 1   
    27   13   27 1   
    28   13   28 1   
    29   15   16 ar  
    30   15   29 1   
    31   16   30 1   
@<TRIPOS>SUBSTRUCTURE
     1 2J5         1 TEMP              0 ****  ****    0 ROOT
