@<TRIPOS>MOLECULE
2J5
   30    25     1     0     0
SMALL
bcc


@<TRIPOS>ATOM
      1 C4         -2.1070    1.9490    1.2360 c1        1 2J5     -0.129750
      2 C5         -1.5440   -0.2740    0.6700 c1        1 2J5      0.109000
      3 C6          0.9330   -0.5670    0.5350 c3        1 2J5      0.001000
      4 N1         -0.3160   -0.6480   -0.0830 n2        1 2J5     -0.257000
      5 C7          1.9680   -0.2320   -0.4960 c2        1 2J5     -0.136000
      6 C8          2.6170   -1.2420   -1.1800 c1        1 2J5     -0.073000
      7 C9          3.6270   -0.9300   -2.0630 c1        1 2J5     -0.129750
      8 C10         3.9980    0.4250   -2.2670 c1        1 2J5     -0.129750
      9 C11         3.3690    1.4010   -1.6050 c1        1 2J5     -0.212000
     10 C12         2.3400    1.0940   -0.7050 c2        1 2J5      0.077000
     11 O           1.6670    2.1810    0.0430 oh        1 2J5     -0.267000
     12 C1         -2.8360   -0.7020    1.0260 c1        1 2J5     -0.167000
     13 C          -3.2730   -2.2070    0.7440 c2        1 2J5     -0.170000
     14 N          -1.2020    1.0540    0.7840 n1        1 2J5     -0.194000
     15 C3         -3.4030    1.5230    1.5930 c1        1 2J5     -0.129750
     16 C2         -3.7460    0.1910    1.4790 c1        1 2J5     -0.065000
     17 H1         -1.8820    2.8250    1.3110 ha        1 2J5      0.140500
     18 H2          0.9180    0.1080    1.2000 h1        1 2J5      0.111000
     19 H3          1.1510   -1.4380    0.9530 h1        1 2J5      0.111000
     20 H4         -0.3870   -1.0430   -0.8730 hn        1 2J5      0.206000
     21 H5          2.3750   -2.1150   -1.0490 ha        1 2J5      0.147000
     22 H6          4.0780   -1.6210   -2.5360 ha        1 2J5      0.140500
     23 H7          4.7440    0.6570   -2.9190 ha        1 2J5      0.140500
     24 H8          3.6210    2.3050   -1.7470 ha        1 2J5      0.133000
     25 H9          2.2230    2.7630    0.2400 ho        1 2J5      0.221000
     26 H10        -4.1670   -2.4070    1.2240 ha        1 2J5      0.082667
     27 H11        -3.3870   -2.3440   -0.2520 ha        1 2J5      0.082667
     28 H12        -2.6110   -2.7880    1.0660 ha        1 2J5      0.082667
     29 H13        -4.0900    2.2010    1.9360 ha        1 2J5      0.140500
     30 H14        -4.6800   -0.1200    1.7360 ha        1 2J5      0.133000
@<TRIPOS>BOND
     1    1   15 1   
     2    1   17 1   
     3    2   12 1   
     4    2   14 1   
     5    3    4 1   
     6    3    5 1   
     7    3   18 1   
     8    3   19 1   
     9    4   20 1   
    10    5    6 1   
    11    5   10 1   
    12    6   21 1   
    13    7    8 1   
    14    7   22 1   
    15    8   23 1   
    16    9   10 1   
    17    9   24 1   
    18   10   11 1   
    19   11   25 1   
    20   12   16 1   
    21   13   26 1   
    22   13   27 1   
    23   13   28 1   
    24   15   29 1   
    25   16   30 1   
@<TRIPOS>SUBSTRUCTURE
     1 2J5         1 TEMP              0 ****  ****    0 ROOT
