@<TRIPOS>MOLECULE
2J5
   30    31     1     0     0
SMALL
bcc


@<TRIPOS>ATOM
      1 C4         -0.0300    0.3670    0.0170 ca        1 2J5      0.428200
      2 C5          2.0030    0.0780    1.1070 ca        1 2J5      0.633200
      3 C6          4.1120    0.1660   -0.1570 c3        1 2J5      0.248100
      4 N1          3.4090    0.1520    1.1100 nu        1 2J5     -0.819900
      5 C7          5.6030    0.1250    0.0110 ca        1 2J5     -0.116300
      6 C8          6.3940    1.1790   -0.4500 ca        1 2J5     -0.082000
      7 C9          7.7840    1.1280   -0.3460 ca        1 2J5     -0.162000
      8 C10         8.4040    0.0210    0.2310 ca        1 2J5     -0.090000
      9 C11         7.6380   -1.0410    0.7080 ca        1 2J5     -0.210000
     10 C12         6.2420   -0.9830    0.6010 ca        1 2J5      0.122100
     11 O           5.4330   -1.9980    1.0680 oh        1 2J5     -0.510100
     12 C1          1.3230   -0.1880    2.3470 ca        1 2J5     -0.240600
     13 C           2.0710   -0.4860    3.5870 c3        1 2J5     -0.043800
     14 N           1.3080    0.3400   -0.0470 nb        1 2J5     -0.723000
     15 C3         -0.7720    0.1310    1.1850 ca        1 2J5     -0.293300
     16 C2         -0.0710   -0.1520    2.3560 ca        1 2J5     -0.064000
     17 H1         -0.5360    0.5900   -0.9400 h4        1 2J5      0.017100
     18 H2          3.8160   -0.7150   -0.8030 h1        1 2J5      0.060700
     19 H3          3.8180    1.1070   -0.7050 h1        1 2J5      0.060700
     20 H4          3.8260   -0.4640    1.7830 hn        1 2J5      0.412800
     21 H5          5.9110    2.0580   -0.9040 ha        1 2J5      0.142000
     22 H6          8.3910    1.9660   -0.7190 ha        1 2J5      0.136000
     23 H7          9.5000   -0.0190    0.3120 ha        1 2J5      0.135000
     24 H8          8.1210   -1.9160    1.1650 ha        1 2J5      0.134000
     25 H9          6.0030   -2.7220    1.3640 ho        1 2J5      0.423000
     26 H10         1.3730   -0.6500    4.4450 hc        1 2J5      0.043367
     27 H11         2.6900   -1.4110    3.4650 hc        1 2J5      0.043367
     28 H12         2.7520    0.3620    3.8520 hc        1 2J5      0.043367
     29 H13        -1.8680    0.1670    1.1700 ha        1 2J5      0.141000
     30 H14        -0.6160   -0.3470    3.2920 ha        1 2J5      0.133000
@<TRIPOS>BOND
     1    1   14 ar  
     2    1   15 ar  
     3    1   17 1   
     4    2    4 1   
     5    2   12 ar  
     6    2   14 ar  
     7    3    4 1   
     8    3    5 1   
     9    3   18 1   
    10    3   19 1   
    11    4   20 1   
    12    5    6 ar  
    13    5   10 ar  
    14    6    7 ar  
    15    6   21 1   
    16    7    8 ar  
    17    7   22 1   
    18    8    9 ar  
    19    8   23 1   
    20    9   10 ar  
    21    9   24 1   
    22   10   11 1   
    23   11   25 1   
    24   12   13 1   
    25   12   16 ar  
    26   13   26 1   
    27   13   27 1   
    28   13   28 1   
    29   15   16 ar  
    30   15   29 1   
    31   16   30 1   
@<TRIPOS>SUBSTRUCTURE
     1 2J5         1 TEMP              0 ****  ****    0 ROOT
