@<TRIPOS>MOLECULE
2J5
   31    32     1     0     0
SMALL
bcc


@<TRIPOS>ATOM
      1 C4         -0.0740   -0.6980    0.0700 ca        1 2J5      0.427200
      2 C5          1.9520   -0.4650    1.1510 ca        1 2J5      0.440200
      3 C6          4.0980    0.1600    0.0910 c3        1 2J5      0.195100
      4 N1          3.4110   -0.7030    1.1150 n4        1 2J5     -0.744700
      5 C7          5.5780    0.1050    0.2410 ca        1 2J5     -0.214300
      6 C8          6.3110    1.2800    0.4480 ca        1 2J5     -0.063000
      7 C9          7.7020    1.2460    0.4920 ca        1 2J5     -0.147000
      8 C10         8.3820    0.0350    0.3330 ca        1 2J5     -0.047000
      9 C11         7.6760   -1.1490    0.1380 ca        1 2J5     -0.192000
     10 C12         6.2760   -1.1110    0.0960 ca        1 2J5      0.141100
     11 O           5.5100   -2.2460   -0.0510 oh        1 2J5     -0.546100
     12 C1          1.3670    0.1660    2.2750 ca        1 2J5     -0.137600
     13 C           2.1490    0.6200    3.4440 c3        1 2J5     -0.086800
     14 N           1.2490   -0.8910    0.0600 nb        1 2J5     -0.646000
     15 C3         -0.7610   -0.0810    1.1410 ca        1 2J5     -0.185300
     16 C2         -0.0300    0.3480    2.2410 ca        1 2J5     -0.079000
     17 H1         -0.6130   -1.0570   -0.8300 h4        1 2J5      0.063100
     18 H2          3.7960   -0.2290   -0.9260 hx        1 2J5      0.114200
     19 H3          3.7150    1.2120    0.2120 hx        1 2J5      0.114200
     20 H4          3.5970   -1.6930    0.8790 hn        1 2J5      0.466800
     21 H5          5.7840    2.2410    0.5600 ha        1 2J5      0.147000
     22 H6          8.2690    2.1780    0.6470 ha        1 2J5      0.162000
     23 H7          9.4840    0.0160    0.3620 ha        1 2J5      0.163000
     24 H8          8.2080   -2.1040    0.0110 ha        1 2J5      0.160000
     25 H9          6.0880   -2.9790   -0.3160 ho        1 2J5      0.459000
     26 H10         1.4880    1.1300    4.1910 hc        1 2J5      0.070367
     27 H11         2.6320   -0.2470    3.9630 hc        1 2J5      0.070367
     28 H12         2.9400    1.3510    3.1410 hc        1 2J5      0.070367
     29 H13        -1.8540    0.0500    1.0930 ha        1 2J5      0.182000
     30 H14        -0.5330    0.8330    3.0950 ha        1 2J5      0.175000
     31 H121        3.8030   -0.5140    2.0440 hn        1 2J5      0.466800
@<TRIPOS>BOND
     1    1   14 ar  
     2    1   15 ar  
     3    1   17 1   
     4    2    4 1   
     5    2   12 ar  
     6    2   14 ar  
     7    3    4 1   
     8    3    5 1   
     9    3   18 1   
    10    3   19 1   
    11    4   20 1   
    12    4   31 1   
    13    5    6 ar  
    14    5   10 ar  
    15    6    7 ar  
    16    6   21 1   
    17    7    8 ar  
    18    7   22 1   
    19    8    9 ar  
    20    8   23 1   
    21    9   10 ar  
    22    9   24 1   
    23   10   11 1   
    24   11   25 1   
    25   12   13 1   
    26   12   16 ar  
    27   13   26 1   
    28   13   27 1   
    29   13   28 1   
    30   15   16 ar  
    31   15   29 1   
    32   16   30 1   
@<TRIPOS>SUBSTRUCTURE
     1 2J5         1 TEMP              0 ****  ****    0 ROOT
