@<TRIPOS>MOLECULE
2J5
   30    31     1     0     0
SMALL
bcc


@<TRIPOS>ATOM
      1 C4         -0.0290    0.3730    0.0160 ca        1 2J5      0.428200
      2 C5          2.0040    0.0830    1.1070 ca        1 2J5      0.633200
      3 C6          4.1130    0.1600   -0.1580 c3        1 2J5      0.248100
      4 N1          3.4100    0.1530    1.1090 nh        1 2J5     -0.819900
      5 C7          5.6030    0.1170    0.0100 ca        1 2J5     -0.116300
      6 C8          6.3970    1.1660   -0.4560 ca        1 2J5     -0.082000
      7 C9          7.7870    1.1120   -0.3520 ca        1 2J5     -0.162000
      8 C10         8.4040    0.0050    0.2300 ca        1 2J5     -0.090000
      9 C11         7.6360   -1.0520    0.7110 ca        1 2J5     -0.210000
     10 C12         6.2390   -0.9910    0.6040 ca        1 2J5      0.122100
     11 O           5.4280   -2.0020    1.0750 oh        1 2J5     -0.510100
     12 C1          1.3230   -0.1770    2.3480 ca        1 2J5     -0.240600
     13 C           2.0700   -0.4710    3.5890 c3        1 2J5     -0.043800
     14 N           1.3090    0.3420   -0.0480 nb        1 2J5     -0.723000
     15 C3         -0.7720    0.1430    1.1850 ca        1 2J5     -0.293300
     16 C2         -0.0710   -0.1360    2.3570 ca        1 2J5     -0.064000
     17 H1         -0.5350    0.5930   -0.9420 h4        1 2J5      0.017100
     18 H2          3.8210    1.1000   -0.7100 h1        1 2J5      0.060700
     19 H3          3.8140   -0.7220   -0.8000 h1        1 2J5      0.060700
     20 H4          3.8250   -0.4600    1.7840 hn        1 2J5      0.412800
     21 H5          5.9160    2.0460   -0.9120 ha        1 2J5      0.142000
     22 H6          8.3960    1.9470   -0.7280 ha        1 2J5      0.136000
     23 H7          9.5000   -0.0360    0.3110 ha        1 2J5      0.135000
     24 H8          8.1160   -1.9260    1.1710 ha        1 2J5      0.134000
     25 H9          5.9970   -2.7260    1.3730 ho        1 2J5      0.423000
     26 H10         2.7540    0.3760    3.8500 hc        1 2J5      0.043367
     27 H11         2.6870   -1.3980    3.4700 hc        1 2J5      0.043367
     28 H12         1.3720   -0.6300    4.4480 hc        1 2J5      0.043367
     29 H13        -1.8670    0.1820    1.1700 ha        1 2J5      0.141000
     30 H14        -0.6160   -0.3270    3.2940 ha        1 2J5      0.133000
@<TRIPOS>BOND
     1    1   14 ar  
     2    1   15 ar  
     3    1   17 1   
     4    2    4 1   
     5    2   12 ar  
     6    2   14 ar  
     7    3    4 1   
     8    3    5 1   
     9    3   18 1   
    10    3   19 1   
    11    4   20 1   
    12    5    6 ar  
    13    5   10 ar  
    14    6    7 ar  
    15    6   21 1   
    16    7    8 ar  
    17    7   22 1   
    18    8    9 ar  
    19    8   23 1   
    20    9   10 ar  
    21    9   24 1   
    22   10   11 1   
    23   11   25 1   
    24   12   13 1   
    25   12   16 ar  
    26   13   26 1   
    27   13   27 1   
    28   13   28 1   
    29   15   16 ar  
    30   15   29 1   
    31   16   30 1   
@<TRIPOS>SUBSTRUCTURE
     1 2J5         1 TEMP              0 ****  ****    0 ROOT
