@<TRIPOS>MOLECULE
2J6
   35    28     1     0     0
SMALL
bcc


@<TRIPOS>ATOM
      1 C9          0.8730   -1.8470    1.5040 c1        1 2J6     -0.139000
      2 C2         -1.4950    0.9520   -3.3670 c1        1 2J6     -0.021000
      3 C10         2.1170   -1.4680    1.9500 c1        1 2J6     -0.056000
      4 C4         -0.4420   -0.4390   -1.7310 c1        1 2J6      0.162000
      5 N5         -0.7150   -1.5410   -2.4770 n1        1 2J6     -0.206000
      6 C6         -1.3840   -1.4120   -3.6830 c1        1 2J6     -0.132500
      7 C1         -1.7730   -0.1650   -4.1250 c1        1 2J6     -0.132500
      8 C3         -0.8370    0.8240   -2.1820 c1        1 2J6     -0.142000
      9 N7          0.1350   -0.5750   -0.4550 n3        1 2J6     -0.280000
     10 C8          0.6840   -1.8480   -0.0360 c3        1 2J6      0.005000
     11 C11         2.3960   -1.4680    3.3210 c1        1 2J6     -0.205000
     12 C12         1.4190   -1.8510    4.2300 c1        1 2J6      0.135000
     13 C13         0.1530   -2.2370    3.7760 c1        1 2J6     -0.261000
     14 C14        -0.1240   -2.2370    2.4340 c1        1 2J6      0.118000
     15 O15        -1.3980   -2.6320    1.9790 o         1 2J6     -0.245000
     16 F16         1.7070   -1.8960    5.5460 f         1 2J6     -0.103000
     17 C17        -0.4990    2.0500   -1.3730 c2        1 2J6      0.080000
     18 N18         0.6330    2.7730   -1.6690 n2        1 2J6     -0.159000
     19 C19         0.8680    3.9400   -1.0460 c1        1 2J6     -0.035000
     20 C20        -0.0220    4.4130   -0.1130 c1        1 2J6     -0.132500
     21 C21        -1.1560    3.6890    0.1840 c1        1 2J6     -0.132500
     22 N22        -1.3900    2.5200   -0.4400 n1        1 2J6     -0.179000
     23 H1         -1.7780    1.8610   -3.6890 ha        1 2J6      0.146000
     24 H2          2.8020   -1.2000    1.3130 ha        1 2J6      0.154000
     25 H3         -1.5860   -2.2200   -4.2330 ha        1 2J6      0.156250
     26 H4         -2.2640   -0.0690   -5.0100 ha        1 2J6      0.156250
     27 H5          0.1740    0.1260    0.0900 hn        1 2J6      0.222000
     28 H6          1.5740   -1.9930   -0.4840 h1        1 2J6      0.109500
     29 H7          0.0710   -2.5670   -0.2890 h1        1 2J6      0.109500
     30 H8          3.2700   -1.2020    3.6360 ha        1 2J6      0.153000
     31 H9         -0.5720   -2.5200    4.4520 ha        1 2J6      0.151000
     32 H10        -1.4780   -3.5100    2.0530 ho        1 2J6      0.224000
     33 H11         1.6860    4.4610   -1.2610 ha        1 2J6      0.167000
     34 H12         0.1490    5.2610    0.3390 ha        1 2J6      0.156250
     35 H13        -1.7980    4.0290    0.8570 ha        1 2J6      0.156250
@<TRIPOS>BOND
     1    1    3 1   
     2    1   10 1   
     3    2    8 1   
     4    2   23 1   
     5    3   24 1   
     6    4    5 1   
     7    4    9 1   
     8    6    7 1   
     9    6   25 1   
    10    7   26 1   
    11    8   17 1   
    12    9   10 1   
    13    9   27 1   
    14   10   28 1   
    15   10   29 1   
    16   11   12 1   
    17   11   30 1   
    18   12   16 1   
    19   13   14 1   
    20   13   31 1   
    21   15   32 1   
    22   17   18 1   
    23   17   22 1   
    24   18   19 1   
    25   19   33 1   
    26   20   21 1   
    27   20   34 1   
    28   21   35 1   
@<TRIPOS>SUBSTRUCTURE
     1 2J6         1 TEMP              0 ****  ****    0 ROOT
