@<TRIPOS>MOLECULE
2J6
   35    37     1     0     0
SMALL
bcc


@<TRIPOS>ATOM
      1 C9          0.0840   -0.0770   -0.0210 ca        1 2J6     -0.134300
      2 C2         -2.9500    3.1500   -4.2940 ca        1 2J6     -0.020000
      3 C10         1.3650   -0.6310    0.0030 ca        1 2J6     -0.056000
      4 C4         -1.7380    1.5940   -2.8520 ca        1 2J6      0.686200
      5 N5         -1.9620    0.5690   -3.7450 nb        1 2J6     -0.736000
      6 C6         -2.6360    0.8450   -4.8670 ca        1 2J6      0.451200
      7 C1         -3.1590    2.1080   -5.1940 ca        1 2J6     -0.311300
      8 C3         -2.2320    2.9160   -3.1190 cp        1 2J6     -0.316800
      9 N7         -0.9790    1.3510   -1.7060 nu        1 2J6     -0.823900
     10 C8         -0.6900   -0.0090   -1.3050 c3        1 2J6      0.261100
     11 C11         2.0790   -0.7520    1.1920 ca        1 2J6     -0.199000
     12 C12         1.5050   -0.3000    2.3930 ca        1 2J6      0.166900
     13 C13         0.2210    0.2720    2.4000 ca        1 2J6     -0.254000
     14 C14        -0.4730    0.3810    1.1890 ca        1 2J6      0.151100
     15 O15        -1.7270    0.9450    1.1250 oh        1 2J6     -0.502100
     16 F16         2.1900   -0.4140    3.5550 f         1 2J6     -0.136900
     17 C17        -1.9970    4.0500   -2.1940 cp        1 2J6      0.701500
     18 N18        -0.6970    4.3870   -1.9050 nb        1 2J6     -0.681000
     19 C19        -0.5170    5.4430   -1.0900 ca        1 2J6      0.424200
     20 C20        -1.5870    6.1810   -0.5510 ca        1 2J6     -0.369600
     21 C21        -2.8810    5.7580   -0.9070 ca        1 2J6      0.424200
     22 N22        -3.1070    4.7070   -1.7180 nb        1 2J6     -0.681000
     23 H2          1.8200   -0.9810   -0.9380 ha        1 2J6      0.149000
     24 H3         -2.7740   -0.0150   -5.5490 h4        1 2J6      0.019100
     25 H4         -3.7140    2.2620   -6.1260 ha        1 2J6      0.145000
     26 H5         -1.1580    1.9740   -0.9460 hn        1 2J6      0.427800
     27 H6         -0.0970   -0.4990   -2.1310 h1        1 2J6      0.062200
     28 H7         -1.6440   -0.6010   -1.1660 h1        1 2J6      0.062200
     29 H8          3.0860   -1.1940    1.2010 ha        1 2J6      0.154000
     30 H9         -0.2210    0.6240    3.3410 ha        1 2J6      0.151000
     31 H10        -2.0180    1.1400    2.0280 ho        1 2J6      0.427000
     32 H11         0.5330    5.7060   -0.8680 h4        1 2J6      0.029100
     33 H12        -1.4220    7.0390    0.1080 ha        1 2J6      0.155000
     34 H13        -3.7800    6.2780   -0.5300 h4        1 2J6      0.029100
     35 H1         -3.3460    4.1560   -4.5040 ha        1 2J6      0.145000
@<TRIPOS>BOND
     1    1    3 ar  
     2    1   10 1   
     3    1   14 ar  
     4    2    7 ar  
     5    2    8 ar  
     6    2   35 1   
     7    3   11 ar  
     8    3   23 1   
     9    4    5 ar  
    10    4    8 ar  
    11    4    9 1   
    12    5    6 ar  
    13    6    7 ar  
    14    6   24 1   
    15    7   25 1   
    16    8   17 1   
    17    9   10 1   
    18    9   26 1   
    19   10   27 1   
    20   10   28 1   
    21   11   12 ar  
    22   11   29 1   
    23   12   13 ar  
    24   12   16 1   
    25   13   14 ar  
    26   13   30 1   
    27   14   15 1   
    28   15   31 1   
    29   17   18 ar  
    30   17   22 ar  
    31   18   19 ar  
    32   19   20 ar  
    33   19   32 1   
    34   20   21 ar  
    35   20   33 1   
    36   21   22 ar  
    37   21   34 1   
@<TRIPOS>SUBSTRUCTURE
     1 2J6         1 TEMP              0 ****  ****    0 ROOT
