@<TRIPOS>MOLECULE
2J6
   36    38     1     0     0
SMALL
bcc


@<TRIPOS>ATOM
      1 C9          0.1220   -0.1220   -0.0140 ca        1 2J6     -0.230300
      2 C2         -3.0360    3.1250   -4.2390 ca        1 2J6     -0.041000
      3 C10         1.3820   -0.7330   -0.0050 ca        1 2J6     -0.034000
      4 C4         -1.7040    1.6710   -2.8450 ca        1 2J6      0.488200
      5 N5         -1.8810    0.6190   -3.6930 nb        1 2J6     -0.660000
      6 C6         -2.6220    0.8180   -4.7900 ca        1 2J6      0.438200
      7 C1         -3.2240    2.0540   -5.1050 ca        1 2J6     -0.200300
      8 C3         -2.2600    2.9560   -3.0750 cp        1 2J6     -0.199800
      9 N7         -0.8820    1.4360   -1.6370 n4        1 2J6     -0.740700
     10 C8         -0.6560   -0.0070   -1.2780 c3        1 2J6      0.201100
     11 C11         2.0720   -0.9310    1.1820 ca        1 2J6     -0.190000
     12 C12         1.5000   -0.5090    2.4020 ca        1 2J6      0.216900
     13 C13         0.2410    0.1180    2.4200 ca        1 2J6     -0.246000
     14 C14        -0.4310    0.3070    1.2100 ca        1 2J6      0.170100
     15 O15        -1.6480    0.9460    1.1390 oh        1 2J6     -0.538100
     16 F16         2.1640   -0.7020    3.5580 f         1 2J6     -0.103900
     17 C17        -2.0540    4.1230   -2.1780 cp        1 2J6      0.653500
     18 N18        -0.8150    4.2920   -1.6130 nb        1 2J6     -0.706500
     19 C19        -0.6320    5.4050   -0.8750 ca        1 2J6      0.444200
     20 C20        -1.6540    6.3500   -0.6680 ca        1 2J6     -0.325600
     21 C21        -2.9000    6.0720   -1.2640 ca        1 2J6      0.444200
     22 N22        -3.1160    4.9770   -2.0180 nb        1 2J6     -0.706500
     23 H2          1.8280   -1.0770   -0.9530 ha        1 2J6      0.156000
     24 H3         -2.7360   -0.0660   -5.4500 h4        1 2J6      0.062100
     25 H4         -3.8280    2.1600   -6.0200 ha        1 2J6      0.183000
     26 H5         -1.3550    1.8910   -0.8400 hn        1 2J6      0.471800
     27 H6         -1.6710   -0.4870   -1.1520 hx        1 2J6      0.118200
     28 H7         -0.1140   -0.5100   -2.1300 hx        1 2J6      0.118200
     29 H8          3.0600   -1.4190    1.1870 ha        1 2J6      0.177000
     30 H9         -0.2000    0.4430    3.3750 ha        1 2J6      0.173000
     31 H10        -2.0030    1.0430    2.0380 ho        1 2J6      0.458000
     32 H11         0.3780    5.5400   -0.4410 h4        1 2J6      0.052600
     33 H12        -1.4890    7.2570   -0.0720 ha        1 2J6      0.182000
     34 H13        -3.7660    6.7520   -1.1410 h4        1 2J6      0.052600
     35 H72         0.0280    1.8930   -1.7840 hn        1 2J6      0.471800
     36 H1         -3.4940    4.1050   -4.4610 ha        1 2J6      0.189000
@<TRIPOS>BOND
     1    1    3 ar  
     2    1   10 1   
     3    1   14 ar  
     4    2    7 ar  
     5    2    8 ar  
     6    2   36 1   
     7    3   11 ar  
     8    3   23 1   
     9    4    5 ar  
    10    4    8 ar  
    11    4    9 1   
    12    5    6 ar  
    13    6    7 ar  
    14    6   24 1   
    15    7   25 1   
    16    8   17 1   
    17    9   10 1   
    18    9   26 1   
    19    9   35 1   
    20   10   27 1   
    21   10   28 1   
    22   11   12 ar  
    23   11   29 1   
    24   12   13 ar  
    25   12   16 1   
    26   13   14 ar  
    27   13   30 1   
    28   14   15 1   
    29   15   31 1   
    30   17   18 ar  
    31   17   22 ar  
    32   18   19 ar  
    33   19   20 ar  
    34   19   32 1   
    35   20   21 ar  
    36   20   33 1   
    37   21   22 ar  
    38   21   34 1   
@<TRIPOS>SUBSTRUCTURE
     1 2J6         1 TEMP              0 ****  ****    0 ROOT
