@<TRIPOS>MOLECULE
2J6
   35    37     1     0     0
SMALL
bcc


@<TRIPOS>ATOM
      1 C9         -2.1720   -0.9940    0.1760 ca        1 2J6     -0.208300
      2 C2          3.9790   -0.7830    0.0530 ca        1 2J6     -0.024000
      3 C10        -2.9260   -0.8510    1.3460 ca        1 2J6     -0.056000
      4 C4          1.5790   -1.2200    0.1230 ca        1 2J6      0.671200
      5 N5          1.8130   -2.5750    0.1840 nb        1 2J6     -0.731000
      6 C6          3.0810   -3.0010    0.1680 ca        1 2J6      0.448200
      7 C1          4.2020   -2.1570    0.0970 ca        1 2J6     -0.300300
      8 C3          2.6710   -0.2910    0.0810 cp        1 2J6     -0.303800
      9 N7          0.2590   -0.7600   -0.0030 nh        1 2J6     -0.843900
     10 C8         -0.8390   -1.6790    0.2380 c3        1 2J6      0.240100
     11 C11        -4.1830   -0.2610    1.3290 ca        1 2J6     -0.208000
     12 C12        -4.7080    0.2070    0.1070 ca        1 2J6      0.166900
     13 C13        -3.9750    0.0830   -1.0810 ca        1 2J6     -0.208000
     14 C14        -2.7050   -0.5180   -1.0350 ca        1 2J6      0.180100
     15 O15        -2.0640   -0.6000   -2.2440 oh        1 2J6     -0.494100
     16 F16        -5.9330    0.7850    0.0820 f         1 2J6     -0.136900
     17 C17         2.4710    1.1770    0.0580 cp        1 2J6      0.708500
     18 N18         1.7450    1.7450    1.0770 nb        1 2J6     -0.695000
     19 C19         1.6140    3.0850    1.0500 ca        1 2J6      0.431700
     20 C20         2.1820    3.8840    0.0420 ca        1 2J6     -0.365600
     21 C21         2.9060    3.2090   -0.9590 ca        1 2J6      0.431700
     22 N22         3.0640    1.8720   -0.9690 nb        1 2J6     -0.695000
     23 H2         -2.5160   -1.2180    2.3010 ha        1 2J6      0.141000
     24 H3          3.2030   -4.1000    0.2180 h4        1 2J6      0.022100
     25 H4          5.2170   -2.5710    0.0790 ha        1 2J6      0.148000
     26 H5          0.1020    0.1500    0.3760 hn        1 2J6      0.427800
     27 H6         -0.7330   -2.1920    1.2390 h1        1 2J6      0.061200
     28 H7         -0.7970   -2.4870   -0.5510 h1        1 2J6      0.061200
     29 H8         -4.7710   -0.1550    2.2500 ha        1 2J6      0.152000
     30 H9         -4.3780    0.4460   -2.0370 ha        1 2J6      0.168000
     31 H10        -1.1890   -0.9960   -2.1150 ho        1 2J6      0.442000
     32 H11         1.0310    3.5290    1.8770 h4        1 2J6      0.031600
     33 H12         2.0660    4.9730    0.0340 ha        1 2J6      0.158000
     34 H13         3.3830    3.7570   -1.7930 h4        1 2J6      0.031600
     35 H1          4.8280   -0.0840   -0.0020 ha        1 2J6      0.149000
@<TRIPOS>BOND
     1    1    3 ar  
     2    1   10 1   
     3    1   14 ar  
     4    2    7 ar  
     5    2    8 ar  
     6    2   35 1   
     7    3   11 ar  
     8    3   23 1   
     9    4    5 ar  
    10    4    8 ar  
    11    4    9 1   
    12    5    6 ar  
    13    6    7 ar  
    14    6   24 1   
    15    7   25 1   
    16    8   17 1   
    17    9   10 1   
    18    9   26 1   
    19   10   27 1   
    20   10   28 1   
    21   11   12 ar  
    22   11   29 1   
    23   12   13 ar  
    24   12   16 1   
    25   13   14 ar  
    26   13   30 1   
    27   14   15 1   
    28   15   31 1   
    29   17   18 ar  
    30   17   22 ar  
    31   18   19 ar  
    32   19   20 ar  
    33   19   32 1   
    34   20   21 ar  
    35   20   33 1   
    36   21   22 ar  
    37   21   34 1   
@<TRIPOS>SUBSTRUCTURE
     1 2J6         1 TEMP              0 ****  ****    0 ROOT
