@<TRIPOS>MOLECULE
2J7
   42    44     1     0     0
SMALL
bcc


@<TRIPOS>ATOM
      1 C7          0.1000   -0.1380    0.0510 c3        1 2J7      0.003000
      2 N8          1.5420   -0.1140    0.1600 n7        1 2J7     -0.292000
      3 C9          2.1460   -0.1880    1.3960 c2        1 2J7      0.238000
      4 C2         -1.5920   -0.2350   -3.9760 c3        1 2J7     -0.207000
      5 C10         1.4300   -0.0460    2.5960 c2        1 2J7     -0.380000
      6 C4          0.0850   -1.0240   -2.3390 c2        1 2J7     -0.023000
      7 C6         -1.5180    0.6700   -1.6820 c2        1 2J7     -0.158000
      8 C1         -2.0850    0.6600   -2.9090 c2        1 2J7     -0.127000
      9 C3         -0.4710   -1.0960   -3.6550 c1        1 2J7     -0.107000
     10 C5         -0.4040   -0.1890   -1.3600 c2        1 2J7     -0.040000
     11 C11         2.1040   -0.0370    3.8730 c2        1 2J7      0.245000
     12 N12         3.5130   -0.1730    3.8410 n7        1 2J7     -0.266000
     13 C13         4.2070   -0.3270    2.6790 c1        1 2J7      0.095000
     14 N14         3.5490   -0.3460    1.4850 n7        1 2J7     -0.264000
     15 N15         1.4370    0.0600    5.0310 n7        1 2J7     -0.202000
     16 C16        -0.0070    0.2930    5.1250 c3        1 2J7      0.037000
     17 C17        -0.4400    0.2890    6.5450 c2        1 2J7     -0.231000
     18 C18        -1.4460   -0.5960    6.9730 c2        1 2J7     -0.164000
     19 C19        -1.8780   -0.5690    8.2920 c2        1 2J7     -0.173000
     20 C20        -1.3060    0.3330    9.2070 c2        1 2J7     -0.113000
     21 C21        -0.2990    1.2030    8.8320 c1        1 2J7     -0.441000
     22 C22         0.1210    1.1540    7.5000 c2        1 2J7      0.060000
     23 O23         1.1550    1.9840    7.0840 oh        1 2J7     -0.351000
     24 H1         -0.3180   -1.0420    0.5940 h1        1 2J7      0.114000
     25 H2         -0.2970    0.7890    0.5640 h1        1 2J7      0.114000
     26 H3          2.0500   -0.4220   -0.6460 hn        1 2J7      0.257000
     27 H4         -1.2960    0.3720   -4.8870 hc        1 2J7      0.182000
     28 H5          0.3380    0.0750    2.5860 ha        1 2J7      0.181000
     29 H6         -1.8920    1.3390   -0.8890 ha        1 2J7      0.147000
     30 H7         -2.9330    1.3190   -3.1530 ha        1 2J7      0.145000
     31 H8         -2.4330   -0.9090   -4.3330 hc        1 2J7      0.182000
     32 H9          4.1050   -0.4540    0.6630 hn        1 2J7      0.278000
     33 H10         4.0450   -0.1540    4.6880 hn        1 2J7      0.286000
     34 H11         1.9250    0.1480    5.9110 hn        1 2J7      0.286000
     35 H12        -0.2160    1.3000    4.6560 h1        1 2J7      0.092500
     36 H13        -0.5350   -0.5070    4.5330 h1        1 2J7      0.092500
     37 H14        -1.8930   -1.2960    6.2540 ha        1 2J7      0.089000
     38 H15        -2.6720   -1.2580    8.6130 ha        1 2J7      0.097000
     39 H16        -1.6720    0.3400   10.2430 ha        1 2J7      0.104000
     40 H17         1.3520    2.5490    7.8480 ho        1 2J7      0.241000
     41 H18         1.3110   -2.3930   -2.8400 ho        1 2J7      0.256000
     42 O24         1.1560   -1.8450   -2.0510 oh        1 2J7     -0.286000
@<TRIPOS>BOND
     1    1    2 1   
     2    1   10 1   
     3    1   24 1   
     4    1   25 1   
     5    2    3 1   
     6    2   26 1   
     7    3    5 1   
     8    3   14 1   
     9    4    8 1   
    10    4    9 1   
    11    4   27 1   
    12    4   31 1   
    13    5   11 1   
    14    5   28 1   
    15    6    9 1   
    16    6   10 1   
    17    6   42 1   
    18    7    8 1   
    19    7   10 1   
    20    7   29 1   
    21    8   30 1   
    22   11   12 1   
    23   11   15 1   
    24   12   13 1   
    25   12   33 1   
    26   13   14 1   
    27   14   32 1   
    28   15   16 1   
    29   15   34 1   
    30   16   17 1   
    31   16   35 1   
    32   16   36 1   
    33   17   18 1   
    34   17   22 1   
    35   18   19 1   
    36   18   37 1   
    37   19   20 1   
    38   19   38 1   
    39   20   21 1   
    40   20   39 1   
    41   21   22 1   
    42   22   23 1   
    43   23   40 1   
    44   41   42 1   
@<TRIPOS>SUBSTRUCTURE
     1 2J7         1 TEMP              0 ****  ****    0 ROOT
