@<TRIPOS>MOLECULE
2J7
   42    44     1     0     0
SMALL
bcc


@<TRIPOS>ATOM
      1 C7         -2.5830    0.3340   -0.1510 c3        1 2J7      0.241100
      2 N8         -2.4370   -1.0320    0.3070 nh        1 2J7     -0.849900
      3 C9         -1.2190   -1.6850    0.0700 ca        1 2J7      0.685200
      4 C2         -6.6680    1.6510   -0.4830 ca        1 2J7     -0.085000
      5 C10        -0.0060   -0.9450   -0.0350 ca        1 2J7     -0.472600
      6 C4         -4.7980    0.9970    0.8980 ca        1 2J7      0.154100
      7 C6         -4.5880    0.9760   -1.5070 ca        1 2J7     -0.078000
      8 C1         -5.9010    1.4160   -1.6280 ca        1 2J7     -0.169000
      9 C3         -6.1290    1.4440    0.7790 ca        1 2J7     -0.162000
     10 C5         -4.0150    0.7650   -0.2460 ca        1 2J7     -0.201300
     11 C11         1.2110   -1.6700   -0.1780 ca        1 2J7      0.685200
     12 N12         1.2160   -3.0490   -0.1970 nb        1 2J7     -0.777000
     13 C13         0.0030   -3.6390   -0.1040 ca        1 2J7      0.690900
     14 N14        -1.2130   -3.0630    0.0190 nb        1 2J7     -0.777000
     15 N15         2.4250   -0.9970   -0.3810 nh        1 2J7     -0.849900
     16 C16         2.5620    0.3450    0.1460 c3        1 2J7      0.241100
     17 C17         3.9900    0.7810    0.2630 ca        1 2J7     -0.201300
     18 C18         4.5620    0.9320    1.5330 ca        1 2J7     -0.078000
     19 C19         5.8720    1.3750    1.6760 ca        1 2J7     -0.169000
     20 C20         6.6370    1.6730    0.5450 ca        1 2J7     -0.085000
     21 C21         6.0980    1.5270   -0.7260 ca        1 2J7     -0.162000
     22 C22         4.7700    1.0760   -0.8680 ca        1 2J7      0.154100
     23 O23         4.3260    0.9690   -2.1620 oh        1 2J7     -0.497100
     24 H1         -2.0430    1.0000    0.5860 h1        1 2J7      0.050200
     25 H2         -2.0840    0.4810   -1.1540 h1        1 2J7      0.050200
     26 H3         -3.2550   -1.5990    0.1990 hn        1 2J7      0.431800
     27 H4         -7.7080    2.0000   -0.5810 ha        1 2J7      0.138000
     28 H5         -0.0100    0.1500   -0.0070 ha        1 2J7      0.149000
     29 H6         -3.9870    0.7920   -2.4110 ha        1 2J7      0.135000
     30 H7         -6.3370    1.5800   -2.6240 ha        1 2J7      0.138000
     31 H8         -6.7160    1.6210    1.6910 ha        1 2J7      0.154000
     32 H9          0.0070   -4.7500   -0.1320 h5        1 2J7      0.052100
     33 H10         3.2470   -1.5630   -0.3010 hn        1 2J7      0.431800
     34 H11         2.0160    1.0440   -0.5560 h1        1 2J7      0.050200
     35 H12         2.0610    0.4380    1.1560 h1        1 2J7      0.050200
     36 H13         3.9620    0.6980    2.4270 ha        1 2J7      0.135000
     37 H14         6.3070    1.4910    2.6790 ha        1 2J7      0.138000
     38 H15         7.6730    2.0240    0.6610 ha        1 2J7      0.138000
     39 H16         6.6840    1.7540   -1.6280 ha        1 2J7      0.154000
     40 H17         3.4320    0.5990   -2.1630 ho        1 2J7      0.434000
     41 H18        -3.4550    0.4640    2.1670 ho        1 2J7      0.434000
     42 O24        -4.3530    0.8270    2.1850 oh        1 2J7     -0.497100
@<TRIPOS>BOND
     1    1    2 1   
     2    1   10 1   
     3    1   24 1   
     4    1   25 1   
     5    2    3 1   
     6    2   26 1   
     7    3    5 ar  
     8    3   14 ar  
     9    4    8 ar  
    10    4    9 ar  
    11    4   27 1   
    12    5   11 ar  
    13    5   28 1   
    14    6    9 ar  
    15    6   10 ar  
    16    6   42 1   
    17    7    8 ar  
    18    7   10 ar  
    19    7   29 1   
    20    8   30 1   
    21    9   31 1   
    22   11   12 ar  
    23   11   15 1   
    24   12   13 ar  
    25   13   14 ar  
    26   13   32 1   
    27   15   16 1   
    28   15   33 1   
    29   16   17 1   
    30   16   34 1   
    31   16   35 1   
    32   17   18 ar  
    33   17   22 ar  
    34   18   19 ar  
    35   18   36 1   
    36   19   20 ar  
    37   19   37 1   
    38   20   21 ar  
    39   20   38 1   
    40   21   22 ar  
    41   21   39 1   
    42   22   23 1   
    43   23   40 1   
    44   41   42 1   
@<TRIPOS>SUBSTRUCTURE
     1 2J7         1 TEMP              0 ****  ****    0 ROOT
