@<TRIPOS>MOLECULE
2J7
   44    45     1     0     0
SMALL
bcc


@<TRIPOS>ATOM
      1 C7       -299.5240  -99.6410 -339.4960 c2        1 2J7      0.054000
      2 N8        155.5680   53.9150  184.9100 n3        1 2J7     -0.350000
      3 C9        155.6470   52.8800  184.0270 c2        1 2J7      0.239000
      4 C2       -300.5140 -102.4730 -342.4410 ca        1 2J7      0.089000
      5 C10       155.9060   53.1330  182.6330 c2        1 2J7     -0.351000
      6 C4       -299.8280 -102.0100 -340.1680 ca        1 2J7      0.275000
      7 C6       -300.2140 -100.1690 -341.7700 ca        1 2J7     -0.016000
      8 C1       -300.5360 -101.0780 -342.7310 ca        1 2J7     -0.172000
      9 C3       -300.1670 -102.9310 -341.1870 ca        1 2J7     -0.226000
     10 C5       -299.8390 -100.5790 -340.4280 ca        1 2J7     -0.206000
     11 C11       155.9790   52.0110  181.7810 c2        1 2J7      0.079000
     12 N12       155.8150   50.7340  182.1880 n2        1 2J7     -0.253000
     13 C13       155.5670   50.5070  183.5000 c1        1 2J7      0.073000
     14 N14       155.4840   51.5470  184.4090 n3        1 2J7     -0.220000
     15 N15       156.2670   52.2460  180.3420 n4        1 2J7     -0.005000
     16 C16       155.0970   51.8750  179.4740 c3        1 2J7     -0.065000
     17 C17       155.3800   52.0850  178.0270 c2        1 2J7     -0.212000
     18 C18       155.0150   50.9650  177.1230 c3        1 2J7     -0.139000
     19 C19       155.2290   51.2280  175.6840 c2        1 2J7     -0.019000
     20 C20       155.6980   52.4150  175.2150 c2        1 2J7     -0.218000
     21 C21       155.9960   53.4980  176.0750 c1        1 2J7     -0.049000
     22 C22       155.8730   53.2430  177.4990 c2        1 2J7      0.047000
     23 O23       156.2590   54.2520  178.3480 oh        1 2J7     -0.311000
     24 H1       -299.2310  -99.8770 -338.4600 ha        1 2J7      0.166500
     25 H2       -299.5470  -98.5620 -339.7370 ha        1 2J7      0.166500
     26 H3        155.3940   53.7690  185.8760 hn        1 2J7      0.262000
     27 H4       -300.1470 -104.0110 -340.9500 ha        1 2J7      0.205000
     28 H5        156.0370   54.1630  182.2810 ha        1 2J7      0.171000
     29 H6       -300.2280  -99.0850 -341.9850 ha        1 2J7      0.178000
     30 H7       -300.8200 -100.7530 -343.7480 ha        1 2J7      0.191000
     31 H8       -300.7800 -103.1930 -343.2390 ha        1 2J7      0.191000
     32 H9        155.3030   51.3050  185.3640 hn        1 2J7      0.281000
     33 H10       156.4950   53.2420  180.1970 hn        1 2J7      0.266500
     34 H11       154.2290   52.5240  179.7910 hx        1 2J7      0.158500
     35 H12       154.8390   50.7940  179.6820 hx        1 2J7      0.158500
     36 H13       155.6100   50.0470  177.4090 hc        1 2J7      0.152500
     37 H14       153.9260   50.7020  177.2790 hc        1 2J7      0.152500
     38 H15       154.9660   50.3970  175.0040 ha        1 2J7      0.160000
     39 H16       155.8400   52.5810  174.1310 ha        1 2J7      0.181000
     40 H17       156.5140   55.0160  177.7950 ho        1 2J7      0.285000
     41 H18      -299.2810 -101.8800 -338.3220 ho        1 2J7      0.263000
     42 H82       155.6950   54.8450  184.5850 hn        1 2J7      0.262000
     43 H152      157.0800   51.6810  180.0650 hn        1 2J7      0.266500
     44 O24      -299.5060 -102.5560 -338.9870 oh        1 2J7     -0.160000
@<TRIPOS>BOND
     1    1   10 1   
     2    1   24 1   
     3    1   25 1   
     4    2    3 1   
     5    2   26 1   
     6    2   42 1   
     7    3    5 1   
     8    3   14 1   
     9    4    8 1   
    10    4    9 1   
    11    4   31 1   
    12    5   11 1   
    13    5   28 1   
    14    6    9 1   
    15    6   10 1   
    16    6   44 1   
    17    7    8 1   
    18    7   10 1   
    19    7   29 1   
    20    8   30 1   
    21    9   27 1   
    22   11   12 1   
    23   11   15 1   
    24   12   13 1   
    25   13   14 1   
    26   14   32 1   
    27   15   16 1   
    28   15   33 1   
    29   15   43 1   
    30   16   17 1   
    31   16   34 1   
    32   16   35 1   
    33   17   18 1   
    34   17   22 1   
    35   18   19 1   
    36   18   36 1   
    37   18   37 1   
    38   19   20 1   
    39   19   38 1   
    40   20   21 1   
    41   20   39 1   
    42   21   22 1   
    43   22   23 1   
    44   23   40 1   
    45   41   44 1   
@<TRIPOS>SUBSTRUCTURE
     1 2J7         1 TEMP              0 ****  ****    0 ROOT
