@<TRIPOS>MOLECULE
2J7
   42    36     1     0     0
SMALL
bcc


@<TRIPOS>ATOM
      1 C7         -1.0480   -0.8810   -3.1270 c3        1 2J7      0.008000
      2 N8         -0.3040    0.2340   -2.6370 n3        1 2J7     -0.271000
      3 C9          0.2440    0.2040   -1.3150 c2        1 2J7      0.170000
      4 C2         -3.2840   -1.0120   -6.7270 c1        1 2J7     -0.135000
      5 C10        -0.0520    0.3220    0.0170 c2        1 2J7     -0.360000
      6 C4         -1.1290   -0.8380   -5.6540 c1        1 2J7      0.085000
      7 C6         -3.1240   -0.3980   -4.4050 c1        1 2J7     -0.080000
      8 C1         -3.8980   -0.6630   -5.5440 c1        1 2J7     -0.135000
      9 C3         -1.8960   -1.1020   -6.7890 c1        1 2J7     -0.210000
     10 C5         -1.7460   -0.4880   -4.4700 c1        1 2J7     -0.120000
     11 C11         0.9510    0.5640    0.9230 c1        1 2J7      0.181000
     12 N12         2.2130    0.6840    0.5040 n2        1 2J7     -0.261000
     13 C13         2.5060    0.5660   -0.8280 c1        1 2J7      0.028000
     14 N14         1.5080    0.3250   -1.7320 n1        1 2J7     -0.258000
     15 N15         0.6500    0.6270    2.3370 n2        1 2J7     -0.299000
     16 C16         1.6270    1.1660    3.2580 c3        1 2J7      0.017000
     17 C17         1.2970    0.7060    4.6820 c1        1 2J7     -0.123000
     18 C18         0.2040    1.2520    5.3500 c1        1 2J7     -0.135000
     19 C19        -0.0330    0.9270    6.6830 c1        1 2J7     -0.135000
     20 C20         0.8180    0.0630    7.3440 c1        1 2J7     -0.135000
     21 C21         1.9180   -0.4870    6.6720 c1        1 2J7     -0.135000
     22 C22         2.1530   -0.1630    5.3450 c1        1 2J7      0.099000
     23 O23         3.3100   -0.6930    4.6680 oh        1 2J7     -0.245000
     24 O24         0.2700   -0.8650   -5.7320 oh        1 2J7     -0.256000
     25 H1         -1.7250   -1.1350   -2.4700 h1        1 2J7      0.090000
     26 H2         -0.4450   -1.6320   -3.2810 h1        1 2J7      0.090000
     27 H3         -0.1490    0.9420   -3.1720 hn        1 2J7      0.227000
     28 H4         -3.8290   -1.2000   -7.5330 ha        1 2J7      0.135667
     29 H5         -0.9830    0.2330    0.3240 ha        1 2J7      0.144000
     30 H6         -3.5590   -0.1490   -3.5660 ha        1 2J7      0.139000
     31 H7         -4.8820   -0.5980   -5.4970 ha        1 2J7      0.135667
     32 H8         -1.4550   -1.3520   -7.6330 ha        1 2J7      0.137000
     33 H9          3.4460    0.6560   -1.1390 ha        1 2J7      0.183000
     34 H10        -0.1990    0.4010    2.6410 hn        1 2J7      0.217000
     35 H11         1.6050    2.1410    3.2200 h1        1 2J7      0.110500
     36 H12         2.5210    0.8480    3.0100 h1        1 2J7      0.110500
     37 H13        -0.4030    1.8690    4.8790 ha        1 2J7      0.135667
     38 H14        -0.8170    1.3200    7.1620 ha        1 2J7      0.135667
     39 H15         0.6530   -0.1640    8.2730 ha        1 2J7      0.135667
     40 H16         2.5290   -1.1080    7.1450 ha        1 2J7      0.135667
     41 H17         3.9950   -0.7570    5.2480 ho        1 2J7      0.220000
     42 H18         0.5430   -0.3640   -6.4340 ho        1 2J7      0.225000
@<TRIPOS>BOND
     1    1    2 1   
     2    1   10 1   
     3    1   25 1   
     4    1   26 1   
     5    2    3 1   
     6    2   27 1   
     7    3    5 1   
     8    3   14 1   
     9    4    8 1   
    10    4   28 1   
    11    5   11 1   
    12    5   29 1   
    13    6    9 1   
    14    6   24 1   
    15    7   10 1   
    16    7   30 1   
    17    8   31 1   
    18    9   32 1   
    19   11   12 1   
    20   12   13 1   
    21   13   33 1   
    22   15   16 1   
    23   15   34 1   
    24   16   17 1   
    25   16   35 1   
    26   16   36 1   
    27   17   22 1   
    28   18   19 1   
    29   18   37 1   
    30   19   38 1   
    31   20   21 1   
    32   20   39 1   
    33   21   40 1   
    34   22   23 1   
    35   23   41 1   
    36   24   42 1   
@<TRIPOS>SUBSTRUCTURE
     1 2J7         1 TEMP              0 ****  ****    0 ROOT
