@<TRIPOS>MOLECULE
2J7
   42    44     1     0     0
SMALL
bcc


@<TRIPOS>ATOM
      1 C7         -0.0330   -0.0030   -0.0120 c3        1 2J7      0.016000
      2 N8          1.4090   -0.1430    0.0870 n3        1 2J7     -0.317000
      3 C9          2.0480    0.0330    1.3000 c2        1 2J7      0.228000
      4 C2         -1.4810    0.1130   -4.1260 c1        1 2J7     -0.073000
      5 C10         1.3490    0.0850    2.5130 c2        1 2J7     -0.372000
      6 C4         -0.5880   -1.1810   -2.1680 c2        1 2J7      0.143000
      7 C6         -0.9120    1.2140   -2.0310 c2        1 2J7      0.022000
      8 C1         -1.3750    1.2660   -3.3150 c2        1 2J7     -0.252000
      9 C3         -1.1000   -1.1760   -3.5720 c3        1 2J7     -0.197000
     10 C5         -0.5010   -0.0240   -1.4300 c2        1 2J7     -0.312000
     11 C11         2.0480    0.1860    3.7770 c2        1 2J7      0.242000
     12 N12         3.4600    0.2600    3.7080 n3        1 2J7     -0.265000
     13 C13         4.1400    0.2170    2.5280 c1        1 2J7      0.099000
     14 N14         3.4590    0.1060    1.3500 n3        1 2J7     -0.266000
     15 N15         1.4040    0.1830    4.9490 n3        1 2J7     -0.194000
     16 C16        -0.0570    0.1870    5.0870 c3        1 2J7      0.037000
     17 C17        -0.4360    0.0750    6.5160 c2        1 2J7     -0.234000
     18 C18        -1.2700   -0.9730    6.9480 c2        1 2J7     -0.163000
     19 C19        -1.6530   -1.0500    8.2790 c2        1 2J7     -0.172000
     20 C20        -1.2030   -0.0890    9.2030 c2        1 2J7     -0.111000
     21 C21        -0.3640    0.9420    8.8250 c1        1 2J7     -0.439000
     22 C22         0.0100    0.9960    7.4800 c2        1 2J7      0.061000
     23 O23         0.8820    1.9930    7.0570 oh        1 2J7     -0.352000
     24 H1         -0.5010   -0.8540    0.5670 h1        1 2J7      0.104500
     25 H2         -0.3630    0.9580    0.4830 h1        1 2J7      0.104500
     26 H3          1.9230    0.0240   -0.7520 hn        1 2J7      0.239000
     27 H4         -0.3260   -1.6390   -4.2540 hc        1 2J7      0.182500
     28 H5          0.2510    0.0520    2.5320 ha        1 2J7      0.183000
     29 H6         -0.8410    2.1250   -1.4120 ha        1 2J7      0.135000
     30 H7         -1.6850    2.2280   -3.7570 ha        1 2J7      0.159000
     31 H8         -2.0050   -1.8550   -3.6350 hc        1 2J7      0.182500
     32 H9          4.0060    0.0650    0.5160 hn        1 2J7      0.277000
     33 H10         4.0060    0.3570    4.5410 hn        1 2J7      0.288000
     34 H11         1.8960    0.3340    5.8190 hn        1 2J7      0.289000
     35 H12        -0.4290    1.1630    4.6570 h1        1 2J7      0.094000
     36 H13        -0.4740   -0.6680    4.4820 h1        1 2J7      0.094000
     37 H14        -1.6230   -1.7170    6.2210 ha        1 2J7      0.090000
     38 H15        -2.3120   -1.8670    8.6040 ha        1 2J7      0.098000
     39 H16        -1.5280   -0.1680   10.2510 ha        1 2J7      0.106000
     40 H17         1.0090    2.5660    7.8300 ho        1 2J7      0.242000
     41 H18         0.0530   -2.3830   -0.8080 ho        1 2J7      0.234000
     42 O24        -0.2280   -2.4160   -1.7370 oh        1 2J7     -0.229000
@<TRIPOS>BOND
     1    1    2 1   
     2    1   10 1   
     3    1   24 1   
     4    1   25 1   
     5    2    3 1   
     6    2   26 1   
     7    3    5 1   
     8    3   14 1   
     9    4    8 1   
    10    4    9 1   
    11    5   11 1   
    12    5   28 1   
    13    6    9 1   
    14    6   10 1   
    15    6   42 1   
    16    7    8 1   
    17    7   10 1   
    18    7   29 1   
    19    8   30 1   
    20    9   27 1   
    21    9   31 1   
    22   11   12 1   
    23   11   15 1   
    24   12   13 1   
    25   12   33 1   
    26   13   14 1   
    27   14   32 1   
    28   15   16 1   
    29   15   34 1   
    30   16   17 1   
    31   16   35 1   
    32   16   36 1   
    33   17   18 1   
    34   17   22 1   
    35   18   19 1   
    36   18   37 1   
    37   19   20 1   
    38   19   38 1   
    39   20   21 1   
    40   20   39 1   
    41   21   22 1   
    42   22   23 1   
    43   23   40 1   
    44   41   42 1   
@<TRIPOS>SUBSTRUCTURE
     1 2J7         1 TEMP              0 ****  ****    0 ROOT
