@<TRIPOS>MOLECULE
2J8
   66    63     1     0     0
SMALL
bcc


@<TRIPOS>ATOM
      1 SE1        -3.7260    0.6030   -2.8470 ss        1 2J8      0.111367
      2 SE2        -1.3500   -0.9890    3.0570 ss        1 2J8      0.111367
      3 SE3         4.0640   -1.3240   -1.7160 ss        1 2J8      0.111367
      4 C01         2.1260    0.2510   -2.2420 cg        1 2J8     -0.087000
      5 C02         0.8520    0.8510   -2.9400 c1        1 2J8      0.613167
      6 N03        -0.0220   -0.0170   -3.7090 n3        1 2J8     -0.366067
      7 C04        -1.1950    0.6770   -4.0460 c3        1 2J8      0.040700
      8 C05        -2.1140    0.7420   -2.8320 c2        1 2J8      0.261533
      9 C07        -4.2020    0.4950   -1.3250 c1        1 2J8     -0.187900
     10 C08        -2.9910    0.5200   -0.4760 cg        1 2J8     -0.087000
     11 C09        -2.9340    0.1790    1.0530 c1        1 2J8      0.613167
     12 N10        -3.4080    1.3420    1.8320 n3        1 2J8     -0.366067
     13 C11        -2.6510    1.4460    3.0690 c3        1 2J8      0.040700
     14 C12        -1.4160    0.6160    2.9700 c2        1 2J8      0.261533
     15 C14         0.1980   -1.4000    3.0180 c1        1 2J8     -0.187900
     16 C15         0.9820   -0.1700    2.8550 cg        1 2J8     -0.087000
     17 C16         2.5490   -0.0900    2.6910 c1        1 2J8      0.613167
     18 N17         3.0190   -1.2080    1.8590 n3        1 2J8     -0.366067
     19 C18         4.1120   -0.7910    1.0730 c3        1 2J8      0.040700
     20 C19         3.6410   -0.4840   -0.3270 c2        1 2J8      0.261533
     21 C21         3.1210   -0.8110   -2.8750 c1        1 2J8     -0.187900
     22 N22         2.6060    0.5460   -0.7080 ne        1 2J8     -0.431700
     23 N23        -0.0420    1.1170    2.9870 ne        1 2J8     -0.431700
     24 N24        -1.6920    0.8490   -1.4390 ne        1 2J8     -0.431700
     25 O25         0.5110    1.9750   -2.6950 o         1 2J8     -0.589833
     26 O26        -2.0370   -0.5170    1.4850 o         1 2J8     -0.589833
     27 O27         3.1040    0.9970    2.6260 o         1 2J8     -0.589833
     28 C28        -1.9050   -0.0500   -5.1830 c3        1 2J8     -0.071700
     29 C29        -2.8130    0.9330   -5.9290 c3        1 2J8     -0.092767
     30 C30        -0.8760   -0.6130   -6.1420 c3        1 2J8     -0.092767
     31 C31        -3.5020    0.9510    4.2270 c3        1 2J8     -0.071700
     32 C32        -4.9420    1.4700    4.0640 c3        1 2J8     -0.092767
     33 C33        -2.9250    1.4600    5.5320 c3        1 2J8     -0.092767
     34 C34         5.1690   -1.9170    1.0230 c3        1 2J8     -0.071700
     35 C35         5.4540   -2.4060    2.4290 c3        1 2J8     -0.092767
     36 C36         6.4540   -1.3830    0.4000 c3        1 2J8     -0.092767
     37 HN03       -0.0580   -0.9420   -3.5180 hn        1 2J8      0.288367
     38 H04        -0.9700    1.5730   -4.3270 h1        1 2J8      0.095700
     39 H07        -5.1380    0.4950   -1.0060 DU        1 2J8      0.200000
     40 HN10       -3.6900    2.0930    1.4050 hn        1 2J8      0.288367
     41 H11        -2.4060    2.3740    3.2220 h1        1 2J8      0.095700
     42 H14         0.5550   -2.3100    3.0630 DU        1 2J8      0.200000
     43 HN17        2.4200   -1.8130    1.5260 hn        1 2J8      0.288367
     44 H18         4.5090    0.0120    1.4660 h1        1 2J8      0.095700
     45 H21         3.0650   -1.1810   -3.7690 DU        1 2J8      0.200000
     46 H28        -2.4420   -0.7770   -4.8190 hc        1 2J8      0.062700
     47 H29        -3.2040    1.5650   -5.2920 hc        1 2J8      0.040756
     48 H29A       -2.2800    1.4280   -6.6030 hc        1 2J8      0.040756
     49 H29B       -3.5290    0.4390   -6.3780 hc        1 2J8      0.040756
     50 H30        -0.2190    0.0820   -6.3610 hc        1 2J8      0.040756
     51 H30A       -1.3190   -0.9090   -6.9570 hc        1 2J8      0.040756
     52 H30B       -0.4180   -1.3770   -5.7210 hc        1 2J8      0.040756
     53 H31        -3.5060   -0.0310    4.2330 hc        1 2J8      0.062700
     54 H32        -5.3420    1.0790    3.2570 hc        1 2J8      0.040756
     55 H32A       -5.4790    1.2100    4.8580 hc        1 2J8      0.040756
     56 H32B       -4.9310    2.4440    3.9840 hc        1 2J8      0.040756
     57 H33        -2.0480    1.0500    5.6830 hc        1 2J8      0.040756
     58 H33A       -3.5300    1.2240    6.2720 hc        1 2J8      0.040756
     59 H33B       -2.8280    2.4280    5.4870 hc        1 2J8      0.040756
     60 H34         4.8290   -2.6600    0.4820 hc        1 2J8      0.062700
     61 H35         4.6810   -2.9060    2.7650 hc        1 2J8      0.040756
     62 H35A        6.2410   -2.9910    2.4180 hc        1 2J8      0.040756
     63 H35B        5.6260   -1.6380    3.0150 hc        1 2J8      0.040756
     64 H36         6.6220   -0.4740    0.7250 hc        1 2J8      0.040756
     65 H36A        7.2070   -1.9670    0.6510 hc        1 2J8      0.040756
     66 H36B        6.3630   -1.3690   -0.5760 hc        1 2J8      0.040756
@<TRIPOS>BOND
     1    1    8 1   
     2    1    9 1   
     3    2   14 1   
     4    2   15 1   
     5    3   20 1   
     6    3   21 1   
     7    4   21 3   
     8    4   22 1   
     9    5    6 2   
    10    5   25 2   
    11    6    7 1   
    12    6   37 1   
    13    7    8 1   
    14    7   28 1   
    15    7   38 1   
    16    8   24 2   
    17    9   10 3   
    18   10   24 1   
    19   11   12 2   
    20   11   26 2   
    21   12   13 1   
    22   12   40 1   
    23   13   14 1   
    24   13   31 1   
    25   13   41 1   
    26   14   23 2   
    27   15   16 3   
    28   16   23 1   
    29   17   18 2   
    30   17   27 2   
    31   18   19 1   
    32   18   43 1   
    33   19   20 1   
    34   19   34 1   
    35   19   44 1   
    36   20   22 2   
    37   28   29 1   
    38   28   30 1   
    39   28   46 1   
    40   29   47 1   
    41   29   48 1   
    42   29   49 1   
    43   30   50 1   
    44   30   51 1   
    45   30   52 1   
    46   31   32 1   
    47   31   33 1   
    48   31   53 1   
    49   32   54 1   
    50   32   55 1   
    51   32   56 1   
    52   33   57 1   
    53   33   58 1   
    54   33   59 1   
    55   34   35 1   
    56   34   36 1   
    57   34   60 1   
    58   35   61 1   
    59   35   62 1   
    60   35   63 1   
    61   36   64 1   
    62   36   65 1   
    63   36   66 1   
@<TRIPOS>SUBSTRUCTURE
     1 2J8         1 TEMP              0 ****  ****    0 ROOT
