@<TRIPOS>MOLECULE
2J8
   69    69     1     0     0
SMALL
bcc


@<TRIPOS>ATOM
      1 SE1       -96.1450   89.9990 -293.2990 s4        1 2J8      0.948000
      2 SE2       180.3860 -162.2370  533.8100 sh        1 2J8      1.238000
      3 SE3       -98.1980   92.2930 -300.5300 s4        1 2J8      0.976000
      4 C01       -96.7760   91.5990 -298.5620 c2        1 2J8     -0.242000
      5 C02       -96.4100   91.1080 -297.2540 c2        1 2J8      0.399000
      6 N03       -94.9440   90.6940 -297.0890 n4        1 2J8     -0.114000
      7 C04       -94.6870   89.8900 -295.8470 c3        1 2J8      0.003000
      8 C05       -95.0190   90.6760 -294.6080 c2        1 2J8     -0.335000
      9 C07       -95.9420   91.4210 -292.3850 c1        1 2J8     -0.256000
     10 C08       -95.0520   92.2610 -293.0030 c2        1 2J8     -0.240000
     11 C09       -94.6380   93.4580 -292.4280 c1        1 2J8      0.535000
     12 N10       181.9000 -160.1950  528.0710 n4        1 2J8      0.014000
     13 C11       182.4280 -161.0000  529.1690 c2        1 2J8     -0.242000
     14 C12       181.5870 -161.8490  529.7630 c1        1 2J8      0.071000
     15 C14       180.0230 -162.2900  532.4780 c1        1 2J8     -1.008000
     16 C15       179.6770 -162.4130  531.1020 c3        1 2J8      0.089000
     17 C16       178.8610 -161.1870  530.6500 c2        1 2J8      0.211000
     18 N17       -94.5750   93.2160 -302.0870 n2        1 2J8     -0.143000
     19 C18       -95.6370   92.5110 -301.9850 c2        1 2J8      0.035000
     20 C19       -96.3220   92.2070 -300.6980 c2        1 2J8     -0.284000
     21 C21       -98.0550   91.8760 -298.9160 c1        1 2J8     -0.411000
     22 N22       -95.7780   91.8080 -299.5960 n2        1 2J8     -0.107000
     23 N23       180.7940 -162.6800  530.1840 n2        1 2J8     -0.057000
     24 N24       -94.5340   91.8350 -294.2870 n2        1 2J8     -0.005000
     25 O26       -94.3220   94.4420 -291.9130 o         1 2J8      0.133000
     26 O27       179.2540 -160.4220  529.7670 o         1 2J8     -0.333000
     27 C28       -93.2250   89.3760 -295.7770 c3        1 2J8     -0.116000
     28 C29       -93.1010   88.4210 -294.6060 c3        1 2J8     -0.237000
     29 C30       -92.8250   88.6750 -297.0590 c3        1 2J8     -0.237000
     30 C31       183.8730 -160.8470  529.5290 c3        1 2J8     -0.043000
     31 C32       184.7700 -161.2780  528.3850 c3        1 2J8     -0.227500
     32 C33       184.1930 -159.4300  529.9620 c3        1 2J8     -0.227500
     33 C34       -96.3140   91.9110 -303.2070 c3        1 2J8     -0.088000
     34 C35       -96.7820   90.4980 -302.9390 c3        1 2J8     -0.212500
     35 C36       -97.4530   92.8000 -303.6600 c3        1 2J8     -0.212500
     36 H04       -95.3810   88.9940 -295.9020 hx        1 2J8      0.161000
     37 H07       -97.3410   90.2630 -293.8700 hs        1 2J8      0.097000
     38 HN10      182.3520 -159.2730  528.1090 hn        1 2J8      0.256667
     39 H11       182.1160 -160.6370  527.1720 hn        1 2J8      0.256667
     40 H14       179.3310 -161.9630  534.5250 hs        1 2J8     -0.267000
     41 HN17      177.8970 -161.0590  531.1860 h4        1 2J8      0.154000
     42 H18       179.0120 -163.3320  530.9680 h1        1 2J8      0.179000
     43 H21       -98.3560   93.6080 -300.4160 hs        1 2J8      0.040000
     44 H28       -93.6090   87.9510 -297.3910 hc        1 2J8      0.106000
     45 H29       -92.5400   90.2550 -295.6090 hc        1 2J8      0.129000
     46 H29A      -93.4510   88.8970 -293.6580 hc        1 2J8      0.106000
     47 H29B      -92.0260   88.1350 -294.4730 hc        1 2J8      0.106000
     48 H30       -93.6880   87.4870 -294.7840 hc        1 2J8      0.106000
     49 H30A      -92.6130   89.4010 -297.8810 hc        1 2J8      0.106000
     50 H30B      -91.8810   88.0940 -296.8840 hc        1 2J8      0.106000
     51 H31       184.0590 -161.5360  530.4060 hc        1 2J8      0.134000
     52 H32       185.8370 -161.2520  528.7170 hc        1 2J8      0.090833
     53 H32A      184.6650 -160.5950  527.5080 hc        1 2J8      0.090833
     54 H32B      184.5280 -162.3200  528.0620 hc        1 2J8      0.090833
     55 H33       184.2010 -158.7270  529.0930 hc        1 2J8      0.090833
     56 H33A      185.2110 -159.4040  530.4250 hc        1 2J8      0.090833
     57 H33B      183.4540 -159.0670  530.7150 hc        1 2J8      0.090833
     58 H34       -95.5530   91.8710 -304.0450 hc        1 2J8      0.161000
     59 H35       -97.1970   90.0560 -303.8790 hc        1 2J8      0.087167
     60 H35A      -97.5890   90.4770 -302.1630 hc        1 2J8      0.087167
     61 H35B      -95.9350   89.8570 -302.5940 hc        1 2J8      0.087167
     62 H36       -98.2440   92.8760 -302.8700 hc        1 2J8      0.087167
     63 H36A      -97.9230   92.3710 -304.5790 hc        1 2J8      0.087167
     64 H36B      -97.0840   93.8270 -303.8990 hc        1 2J8      0.087167
     65 O25       -97.0950   90.9650 -296.2480 o         1 2J8     -0.254000
     66 H031      -94.6650   90.1210 -297.9010 hn        1 2J8      0.275500
     67 H102      180.8810 -160.0810  528.1710 hn        1 2J8      0.256667
     68 H172      -94.1660   93.5870 -301.2570 hn        1 2J8      0.168000
     69 HN03      -94.3610   91.5400 -297.0920 hn        1 2J8      0.275500
@<TRIPOS>BOND
     1    1    8 1   
     2    1    9 1   
     3    1   37 1   
     4    2   15 1   
     5    2   40 1   
     6    3   20 1   
     7    3   21 1   
     8    3   43 1   
     9    4    5 1   
    10    4   21 1   
    11    4   22 1   
    12    5    6 1   
    13    5   65 1   
    14    6    7 1   
    15    6   66 1   
    16    6   69 1   
    17    7    8 1   
    18    7   27 1   
    19    7   36 1   
    20    8   24 1   
    21    9   10 1   
    22   10   11 1   
    23   10   24 1   
    24   11   25 1   
    25   12   13 1   
    26   12   38 1   
    27   12   39 1   
    28   12   67 1   
    29   13   14 1   
    30   13   30 1   
    31   14   23 1   
    32   15   16 1   
    33   16   17 1   
    34   16   23 1   
    35   16   42 1   
    36   17   26 1   
    37   17   41 1   
    38   18   19 1   
    39   18   68 1   
    40   19   20 1   
    41   19   33 1   
    42   20   22 1   
    43   27   28 1   
    44   27   29 1   
    45   27   45 1   
    46   28   46 1   
    47   28   47 1   
    48   28   48 1   
    49   29   44 1   
    50   29   49 1   
    51   29   50 1   
    52   30   31 1   
    53   30   32 1   
    54   30   51 1   
    55   31   52 1   
    56   31   53 1   
    57   31   54 1   
    58   32   55 1   
    59   32   56 1   
    60   32   57 1   
    61   33   34 1   
    62   33   35 1   
    63   33   58 1   
    64   34   59 1   
    65   34   60 1   
    66   34   61 1   
    67   35   62 1   
    68   35   63 1   
    69   35   64 1   
@<TRIPOS>SUBSTRUCTURE
     1 2J8         1 TEMP              0 ****  ****    0 ROOT
