@<TRIPOS>MOLECULE
2J8
   66    69     1     0     0
SMALL
bcc


@<TRIPOS>ATOM
      1 SE1        -2.1430    3.8870   -1.6350 ss        1 2J8     -0.031633
      2 SE2         4.7440   -0.1790   -1.2840 ss        1 2J8     -0.031633
      3 SE3        -2.5370   -3.8810   -1.4000 ss        1 2J8     -0.031633
      4 C01        -2.8970   -1.4950   -0.6860 cc        1 2J8      0.276800
      5 C02        -3.4610   -0.1170   -0.6240 c         1 2J8      0.594600
      6 N03        -3.0520    0.7070    0.4130 n         1 2J8     -0.527233
      7 C04        -3.2190    2.1420    0.3290 c3        1 2J8      0.073400
      8 C05        -2.0080    2.7950   -0.3090 cc        1 2J8      0.355033
      9 C07        -0.4920    4.0160   -1.7400 cc        1 2J8     -0.196733
     10 C08         0.1260    3.2210   -0.7720 cd        1 2J8      0.276800
     11 C09         1.6060    3.0660   -0.7030 c         1 2J8      0.594600
     12 N10         2.1440    2.3600    0.3640 n         1 2J8     -0.527233
     13 C11         3.4810    1.8130    0.2780 c3        1 2J8      0.073400
     14 C12         3.4880    0.3910   -0.2460 cc        1 2J8      0.355033
     15 C14         3.9970   -1.6550   -1.4340 cc        1 2J8     -0.196733
     16 C15         2.8140   -1.6820   -0.6960 cd        1 2J8      0.276800
     17 C16         1.8940   -2.8540   -0.7070 c         1 2J8      0.594600
     18 N17         0.9520   -2.9530    0.3050 n         1 2J8     -0.527233
     19 C18        -0.1830   -3.8410    0.1730 c3        1 2J8      0.073400
     20 C19        -1.4220   -3.1220   -0.3200 cd        1 2J8      0.355033
     21 C21        -3.4550   -2.4990   -1.4760 cd        1 2J8     -0.196733
     22 N22        -1.7340   -1.8630   -0.0170 nc        1 2J8     -0.620000
     23 N23         2.5310   -0.5060   -0.0080 nd        1 2J8     -0.620000
     24 N24        -0.7530    2.5320    0.0570 nd        1 2J8     -0.620000
     25 O26         2.3310    3.5950   -1.5700 o         1 2J8     -0.606767
     26 O27         2.0180   -3.7400   -1.5780 o         1 2J8     -0.606767
     27 C28        -3.4750    2.7880    1.7140 c3        1 2J8     -0.067033
     28 C29        -3.8110    4.2550    1.5390 c3        1 2J8     -0.094433
     29 C30        -4.6040    2.0880    2.4430 c3        1 2J8     -0.094433
     30 C31         4.2290    1.9050    1.6320 c3        1 2J8     -0.067033
     31 C32         3.7440    0.8930    2.6440 c3        1 2J8     -0.094433
     32 C33         5.7190    1.7660    1.4000 c3        1 2J8     -0.094433
     33 C34        -0.4780   -4.6010    1.4920 c3        1 2J8     -0.067033
     34 C35        -1.1180   -3.7280    2.5460 c3        1 2J8     -0.094433
     35 C36        -1.3360   -5.8140    1.2000 c3        1 2J8     -0.094433
     36 HN03       -2.3030    0.4010    0.9950 hn        1 2J8      0.330500
     37 H04        -4.1170    2.3500   -0.3320 h1        1 2J8      0.097033
     38 H07         0.0570    4.6190   -2.4650 h4        1 2J8      0.204333
     39 HN10        1.5220    1.8710    0.9700 hn        1 2J8      0.330500
     40 H11         4.0580    2.4440   -0.4700 h1        1 2J8      0.097033
     41 H14         4.3560   -2.4930   -2.0340 h4        1 2J8      0.204333
     42 HN17        0.8190   -2.1730    0.9100 hn        1 2J8      0.330500
     43 H18         0.0830   -4.6200   -0.6110 h1        1 2J8      0.097033
     44 H21        -4.3620   -2.3690   -2.0690 h4        1 2J8      0.204333
     45 H28        -2.5360    2.7010    2.3280 hc        1 2J8      0.067033
     46 H29        -4.7670    4.3760    0.9750 hc        1 2J8      0.039922
     47 H29A       -3.9300    4.7370    2.5400 hc        1 2J8      0.039922
     48 H29B       -3.0000    4.7870    0.9860 hc        1 2J8      0.039922
     49 H30        -5.5010    1.9980    1.7840 hc        1 2J8      0.039922
     50 H30A       -4.2980    1.0660    2.7690 hc        1 2J8      0.039922
     51 H30B       -4.8880    2.6730    3.3520 hc        1 2J8      0.039922
     52 H31         4.0400    2.9370    2.0480 hc        1 2J8      0.067033
     53 H32         4.0380   -0.1420    2.3470 hc        1 2J8      0.039922
     54 H32A        4.1970    1.1110    3.6430 hc        1 2J8      0.039922
     55 H32B        2.6340    0.9290    2.7470 hc        1 2J8      0.039922
     56 H33         6.1030    2.6200    0.7910 hc        1 2J8      0.039922
     57 H33A        6.2580    1.7580    2.3780 hc        1 2J8      0.039922
     58 H33B        5.9510    0.8140    0.8610 hc        1 2J8      0.039922
     59 H34         0.5120   -4.9670    1.8920 hc        1 2J8      0.067033
     60 H35        -2.1640   -3.4600    2.2620 hc        1 2J8      0.039922
     61 H35A       -1.1500   -4.2740    3.5200 hc        1 2J8      0.039922
     62 H35B       -0.5390   -2.7840    2.6900 hc        1 2J8      0.039922
     63 H36        -0.7830   -6.5410    0.5570 hc        1 2J8      0.039922
     64 H36A       -1.6120   -6.3230    2.1550 hc        1 2J8      0.039922
     65 H36B       -2.2770   -5.5180    0.6730 hc        1 2J8      0.039922
     66 O25        -4.3100    0.2530   -1.4610 o         1 2J8     -0.606767
@<TRIPOS>BOND
     1    1    8 1   
     2    1    9 1   
     3    2   14 1   
     4    2   15 1   
     5    3   20 1   
     6    3   21 1   
     7    4    5 1   
     8    4   21 2   
     9    4   22 1   
    10    5    6 1   
    11    5   66 2   
    12    6    7 1   
    13    6   36 1   
    14    7    8 1   
    15    7   27 1   
    16    7   37 1   
    17    8   24 2   
    18    9   10 2   
    19    9   38 1   
    20   10   11 1   
    21   10   24 1   
    22   11   12 1   
    23   11   25 2   
    24   12   13 1   
    25   12   39 1   
    26   13   14 1   
    27   13   30 1   
    28   13   40 1   
    29   14   23 2   
    30   15   16 2   
    31   15   41 1   
    32   16   17 1   
    33   16   23 1   
    34   17   18 1   
    35   17   26 2   
    36   18   19 1   
    37   18   42 1   
    38   19   20 1   
    39   19   33 1   
    40   19   43 1   
    41   20   22 2   
    42   21   44 1   
    43   27   28 1   
    44   27   29 1   
    45   27   45 1   
    46   28   46 1   
    47   28   47 1   
    48   28   48 1   
    49   29   49 1   
    50   29   50 1   
    51   29   51 1   
    52   30   31 1   
    53   30   32 1   
    54   30   52 1   
    55   31   53 1   
    56   31   54 1   
    57   31   55 1   
    58   32   56 1   
    59   32   57 1   
    60   32   58 1   
    61   33   34 1   
    62   33   35 1   
    63   33   59 1   
    64   34   60 1   
    65   34   61 1   
    66   34   62 1   
    67   35   63 1   
    68   35   64 1   
    69   35   65 1   
@<TRIPOS>SUBSTRUCTURE
     1 2J8         1 TEMP              0 ****  ****    0 ROOT
