@<TRIPOS>MOLECULE
2J8
   69    67     1     0     0
SMALL
bcc


@<TRIPOS>ATOM
      1 SE1        -0.6030   -1.0190   -0.6540 sh        1 2J8      1.198000
      2 SE2         6.1500    1.6740    7.9220 sh        1 2J8      1.249000
      3 SE3         8.0540   -0.4040   -1.2940 s4        1 2J8      1.091000
      4 C01         5.7010    0.3530   -0.8260 c2        1 2J8     -0.109000
      5 C02         4.2830    0.6610   -1.0350 c2        1 2J8      0.360000
      6 N03         3.6870   -0.1310   -2.1600 n4        1 2J8     -0.094000
      7 C04         2.1590   -0.1380   -2.1840 c3        1 2J8     -0.005000
      8 C05         1.5740   -0.7350   -0.9690 c1        1 2J8     -0.362000
      9 C07        -0.0800   -1.4880    0.6660 c1        1 2J8     -0.814000
     10 C08         1.1550   -1.6510    1.0920 c2        1 2J8      0.045000
     11 C09         1.6090   -2.2550    2.3590 c2        1 2J8      0.317000
     12 N10         3.5390   -0.8010    5.5240 n3        1 2J8     -0.137000
     13 C11         4.2520   -0.5490    6.5940 c2        1 2J8      0.265000
     14 C12         5.5240    0.1670    6.5020 c1        1 2J8     -0.349000
     15 C14         7.3840    1.6740    7.0250 c1        1 2J8     -0.638000
     16 C15         7.6440    0.8540    6.0190 c2        1 2J8      0.004000
     17 C16         8.8630    0.7440    5.3230 c1        1 2J8      0.545000
     18 N17         7.8240    0.5030    2.9150 n3        1 2J8     -0.378000
     19 C18         8.5150    0.3800    1.6310 c3        1 2J8      0.029000
     20 C19         7.5690    0.2860    0.4590 c2        1 2J8     -0.346000
     21 C21         6.5380   -0.1290   -1.7470 c1        1 2J8     -0.697000
     22 N22         6.3140    0.5980    0.4650 n2        1 2J8     -0.069000
     23 N23         6.5120   -0.0290    5.7060 n2        1 2J8     -0.013000
     24 N24         2.1270   -1.1650    0.1030 n2        1 2J8     -0.120000
     25 O26         2.3370   -1.6750    3.1710 o         1 2J8     -0.383000
     26 O27         9.9170    0.6960    4.8570 o         1 2J8      0.152000
     27 C28         1.7840   -0.7670   -3.4550 c1        1 2J8     -0.067000
     28 C29         0.4750   -1.1040   -3.8840 c3        1 2J8     -0.264000
     29 C30         5.2900    0.8230   -5.0290 c3        1 2J8     -0.299000
     30 C31         3.8020   -0.9510    7.9880 c3        1 2J8     -0.122000
     31 C32         4.9670   -1.5240    8.7700 c3        1 2J8     -0.219500
     32 C33         3.2020    0.2550    8.6870 c3        1 2J8     -0.219500
     33 C34         9.5280   -0.7900    1.6490 c3        1 2J8     -0.111000
     34 C35         8.8640   -2.1340    1.4550 c3        1 2J8     -0.216500
     35 C36        10.6280   -0.5700    0.6330 c3        1 2J8     -0.216500
     36 H04         1.8480    0.9640   -2.2110 hx        1 2J8      0.195000
     37 H07        -0.8510    0.2540   -0.4280 hs        1 2J8     -0.060000
     38 HN10        1.2060   -3.2770    2.5490 h4        1 2J8      0.152000
     39 H11         3.8290   -0.5650    4.5850 hn        1 2J8      0.306500
     40 H14         5.4740    2.7080    7.4260 hs        1 2J8      0.019000
     41 HN17        7.2700   -0.3200    3.0730 hn        1 2J8      0.162000
     42 H18         9.1030    1.3420    1.4840 h1        1 2J8      0.139000
     43 H21         8.6460    0.6820   -1.7740 hs        1 2J8      0.013000
     44 H28         4.5240    0.0650   -5.3060 hc        1 2J8      0.076500
     45 H29        -0.3570   -0.9580   -3.1450 hc        1 2J8      0.152333
     46 H29A        0.2500   -0.5070   -4.8220 hc        1 2J8      0.152333
     47 H29B        0.4830   -2.1810   -4.2340 hc        1 2J8      0.152333
     48 H30         4.7950    1.7820   -4.7580 hc        1 2J8      0.076500
     49 H30A        5.9540    0.9970   -5.9060 hc        1 2J8      0.076500
     50 H30B        5.9040    0.4540   -4.1760 hc        1 2J8      0.076500
     51 H31         5.4040   -2.4140    8.2540 hc        1 2J8      0.109333
     52 H32         3.0030   -1.7510    7.9150 hc        1 2J8      0.165000
     53 H32A        4.6050   -1.8530    9.7790 hc        1 2J8      0.109333
     54 H32B        5.7670   -0.7570    8.9190 hc        1 2J8      0.109333
     55 H33         3.9620    1.0710    8.7960 hc        1 2J8      0.109333
     56 H33A        2.3160    0.6530    8.1350 hc        1 2J8      0.109333
     57 H33B        2.8660   -0.0460    9.7140 hc        1 2J8      0.109333
     58 H34        10.0220   -0.7870    2.6660 hc        1 2J8      0.103000
     59 H35         8.0740   -2.3090    2.2240 hc        1 2J8      0.089833
     60 H35A        8.3930   -2.2060    0.4420 hc        1 2J8      0.089833
     61 H35B        9.6240   -2.9510    1.5390 hc        1 2J8      0.089833
     62 H36        10.2360   -0.6220   -0.4140 hc        1 2J8      0.089833
     63 H36A       11.1210    0.4210    0.7790 hc        1 2J8      0.089833
     64 H36B       11.4060   -1.3680    0.7400 hc        1 2J8      0.089833
     65 O25         3.5880    1.4790   -0.4490 o         1 2J8     -0.187000
     66 H031        4.0290   -1.0990   -2.0970 hn        1 2J8      0.280000
     67 H102        2.6490   -1.2820    5.5730 hn        1 2J8      0.306500
     68 H172        7.2130    1.2990    2.8910 hn        1 2J8      0.162000
     69 HN03        4.0330    0.2420   -3.0660 hn        1 2J8      0.280000
@<TRIPOS>BOND
     1    1    9 1   
     2    1   37 1   
     3    2   15 1   
     4    2   40 1   
     5    3   20 1   
     6    3   21 1   
     7    3   43 1   
     8    4    5 1   
     9    4   21 1   
    10    4   22 1   
    11    5    6 1   
    12    5   65 1   
    13    6    7 1   
    14    6   66 1   
    15    6   69 1   
    16    7    8 1   
    17    7   27 1   
    18    7   36 1   
    19    8   24 1   
    20    9   10 1   
    21   10   11 1   
    22   10   24 1   
    23   11   25 1   
    24   11   38 1   
    25   12   13 1   
    26   12   39 1   
    27   12   67 1   
    28   13   14 1   
    29   13   30 1   
    30   14   23 1   
    31   15   16 1   
    32   16   17 1   
    33   16   23 1   
    34   17   26 1   
    35   18   19 1   
    36   18   41 1   
    37   18   68 1   
    38   19   20 1   
    39   19   33 1   
    40   19   42 1   
    41   20   22 1   
    42   27   28 1   
    43   28   45 1   
    44   28   46 1   
    45   28   47 1   
    46   29   44 1   
    47   29   48 1   
    48   29   49 1   
    49   29   50 1   
    50   30   31 1   
    51   30   32 1   
    52   30   52 1   
    53   31   51 1   
    54   31   53 1   
    55   31   54 1   
    56   32   55 1   
    57   32   56 1   
    58   32   57 1   
    59   33   34 1   
    60   33   35 1   
    61   33   58 1   
    62   34   59 1   
    63   34   60 1   
    64   34   61 1   
    65   35   62 1   
    66   35   63 1   
    67   35   64 1   
@<TRIPOS>SUBSTRUCTURE
     1 2J8         1 TEMP              0 ****  ****    0 ROOT
