@<TRIPOS>MOLECULE
2J8
   69    69     1     0     0
SMALL
bcc


@<TRIPOS>ATOM
      1 SE1        -0.0890   -0.6800    0.0810 sh        1 2J8      1.233000
      2 SE2         4.3310    0.8000    7.8860 ss        1 2J8      0.820000
      3 SE3         8.8500    2.4430   -1.5630 sh        1 2J8      1.204000
      4 C01         6.5880    1.2630   -1.0910 c2        1 2J8      0.040000
      5 C02         5.1730    1.0140   -1.4290 c2        1 2J8      0.314000
      6 N03         4.4630   -0.0230   -0.5920 ny        1 2J8     -0.106000
      7 C04         3.0020   -0.2540   -0.9650 c3        1 2J8      0.014000
      8 C05         2.1410   -0.4260    0.2240 c1        1 2J8     -0.341000
      9 C07         0.1090   -0.7120    1.5630 c1        1 2J8     -0.704000
     10 C08         1.1770   -0.5280    2.3070 c2        1 2J8      0.031000
     11 C09         1.2380   -0.4160    3.7740 c2        1 2J8      0.320000
     12 N10         2.6280   -0.3430    4.3530 ny        1 2J8     -0.093000
     13 C11         2.7020   -0.2940    5.8660 c3        1 2J8      0.023000
     14 C12         4.0340    0.2550    6.2980 c2        1 2J8     -0.445000
     15 C14         5.8730    1.2000    7.5100 c2        1 2J8     -0.433000
     16 C15         6.1570    0.9120    6.1600 c2        1 2J8     -0.187000
     17 C16         7.4690    1.1760    5.5510 c2        1 2J8      0.305000
     18 N17         9.7080    0.5720    2.1550 n8        1 2J8     -0.201000
     19 C18         9.5970    0.2820    0.8720 c2        1 2J8      0.273000
     20 C19         8.4950    0.7550    0.0920 c1        1 2J8     -0.340000
     21 C21         7.3990    2.1470   -1.6250 c1        1 2J8     -0.649000
     22 N22         7.2710    0.4520   -0.0680 n2        1 2J8     -0.089000
     23 N23         5.0940    0.3660    5.4710 n2        1 2J8     -0.105000
     24 N24         2.3870   -0.3900    1.4810 n2        1 2J8     -0.182000
     25 O26         0.2890   -0.3710    4.5380 o         1 2J8     -0.108000
     26 O27         7.7230    1.0130    4.3520 o         1 2J8     -0.370000
     27 C28         2.8120   -1.4520   -1.9350 c3        1 2J8     -0.114000
     28 C29         1.5920   -1.1740   -2.7960 c3        1 2J8     -0.231000
     29 C30         3.9990   -1.7160   -2.8370 c3        1 2J8     -0.231000
     30 C31         2.3930   -1.6810    6.4810 c3        1 2J8     -0.121000
     31 C32         3.4950   -2.6860    6.2420 c3        1 2J8     -0.225500
     32 C33         2.1070   -1.5210    7.9610 c3        1 2J8     -0.225500
     33 C34        10.6970   -0.4470    0.1170 c3        1 2J8     -0.112000
     34 C35        10.1030   -1.4260   -0.8730 c3        1 2J8     -0.220000
     35 C36        11.5850    0.5730   -0.5740 c3        1 2J8     -0.220000
     36 H04         2.6550    0.6960   -1.4940 hx        1 2J8      0.189000
     37 H07        -0.0750   -1.9710   -0.2160 hs        1 2J8     -0.024000
     38 HN10        3.0770    0.4990    3.9700 hn        1 2J8      0.266000
     39 H11         1.8890    0.4260    6.2000 hx        1 2J8      0.168000
     40 H14         6.5980    1.6300    8.2100 h4        1 2J8      0.223000
     41 HN17        8.2360    1.5480    6.2690 h4        1 2J8      0.137000
     42 H18         8.9740    1.0230    2.6780 hn        1 2J8      0.295000
     43 H21         8.8910    3.4980   -0.7620 hs        1 2J8     -0.019000
     44 H28         4.8380   -2.2140   -2.2930 hc        1 2J8      0.103333
     45 H29         2.6280   -2.3750   -1.3150 hc        1 2J8      0.117000
     46 H29A        1.3120   -2.0980   -3.3630 hc        1 2J8      0.103333
     47 H29B        0.7180   -0.8650   -2.1700 hc        1 2J8      0.103333
     48 H30         1.8000   -0.3610   -3.5350 hc        1 2J8      0.103333
     49 H30A        3.6860   -2.4160   -3.6580 hc        1 2J8      0.103333
     50 H30B        4.3620   -0.7770   -3.3200 hc        1 2J8      0.103333
     51 H31         3.6230   -2.9060    5.1550 hc        1 2J8      0.100833
     52 H32         1.4420   -2.0600    6.0010 hc        1 2J8      0.121000
     53 H32A        4.4700   -2.3220    6.6500 hc        1 2J8      0.100833
     54 H32B        3.2420   -3.6470    6.7580 hc        1 2J8      0.100833
     55 H33         1.8420   -2.5180    8.3970 hc        1 2J8      0.100833
     56 H33A        3.0020   -1.1350    8.5100 hc        1 2J8      0.100833
     57 H33B        1.2460   -0.8290    8.1300 hc        1 2J8      0.100833
     58 H34        11.3320   -1.0320    0.8490 hc        1 2J8      0.154000
     59 H35         9.4450   -2.1660   -0.3570 hc        1 2J8      0.106333
     60 H35A       10.9330   -1.9870   -1.3760 hc        1 2J8      0.106333
     61 H35B        9.5130   -0.8980   -1.6610 hc        1 2J8      0.106333
     62 H36        10.9850    1.2130   -1.2700 hc        1 2J8      0.106333
     63 H36A       12.3640    0.0370   -1.1750 hc        1 2J8      0.106333
     64 H36B       12.1060    1.2260    0.1670 hc        1 2J8      0.106333
     65 O25         4.5440    1.5870   -2.3040 o         1 2J8     -0.111000
     66 H031        4.5350    0.2800    0.3870 hn        1 2J8      0.268000
     67 H102        3.1640   -1.1620    4.0350 hn        1 2J8      0.266000
     68 H172       10.5360    0.3210    2.6660 hn        1 2J8      0.295000
     69 HN03        4.9730   -0.9130   -0.6840 hn        1 2J8      0.268000
@<TRIPOS>BOND
     1    1    9 1   
     2    1   37 1   
     3    2   14 1   
     4    2   15 1   
     5    3   21 1   
     6    3   43 1   
     7    4    5 1   
     8    4   21 1   
     9    4   22 1   
    10    5    6 1   
    11    5   65 1   
    12    6    7 1   
    13    6   66 1   
    14    6   69 1   
    15    7    8 1   
    16    7   27 1   
    17    7   36 1   
    18    8   24 1   
    19    9   10 1   
    20   10   11 1   
    21   10   24 1   
    22   11   12 1   
    23   11   25 1   
    24   12   13 1   
    25   12   38 1   
    26   12   67 1   
    27   13   14 1   
    28   13   30 1   
    29   13   39 1   
    30   14   23 1   
    31   15   16 1   
    32   15   40 1   
    33   16   17 1   
    34   16   23 1   
    35   17   26 1   
    36   17   41 1   
    37   18   19 1   
    38   18   42 1   
    39   18   68 1   
    40   19   20 1   
    41   19   33 1   
    42   20   22 1   
    43   27   28 1   
    44   27   29 1   
    45   27   45 1   
    46   28   46 1   
    47   28   47 1   
    48   28   48 1   
    49   29   44 1   
    50   29   49 1   
    51   29   50 1   
    52   30   31 1   
    53   30   32 1   
    54   30   52 1   
    55   31   51 1   
    56   31   53 1   
    57   31   54 1   
    58   32   55 1   
    59   32   56 1   
    60   32   57 1   
    61   33   34 1   
    62   33   35 1   
    63   33   58 1   
    64   34   59 1   
    65   34   60 1   
    66   34   61 1   
    67   35   62 1   
    68   35   63 1   
    69   35   64 1   
@<TRIPOS>SUBSTRUCTURE
     1 2J8         1 TEMP              0 ****  ****    0 ROOT
