@<TRIPOS>MOLECULE
2J9
   27    29     1     0     0
SMALL
bcc


@<TRIPOS>ATOM
      1 CAG        -3.2610   -1.9730   -0.5320 cx        1 2J9     -0.125400
      2 CAH        -4.0710   -0.8020   -0.0720 cx        1 2J9     -0.125400
      3 CAN        -2.6990   -1.0460    0.5340 cx        1 2J9      0.149500
      4 NAO        -1.6030   -0.1710    0.2770 nh        1 2J9     -0.694000
      5 CAI        -1.8040    1.2430    0.6140 c3        1 2J9      0.509000
      6 NAJ        -0.9060    2.1290   -0.0680 n3        1 2J9     -0.904100
      7 SAP         0.7010    1.9040    0.0750 sy        1 2J9      1.527200
      8 OAA         1.1570    2.3400    1.3270 o         1 2J9     -0.649800
      9 OAB         1.3470    2.4770   -1.0360 o         1 2J9     -0.649800
     10 CAM         0.7910    0.2190    0.0060 ca        1 2J9     -0.430500
     11 CAL        -0.3120   -0.6660    0.1300 ca        1 2J9      0.294600
     12 CAE        -0.0780   -2.0700    0.0650 ca        1 2J9     -0.195000
     13 CAD         1.1920   -2.5710   -0.1220 ca        1 2J9     -0.066000
     14 CAK         2.2880   -1.6880   -0.2530 ca        1 2J9      0.057900
     15 FAC         3.5360   -2.1860   -0.4410 f         1 2J9     -0.137900
     16 CAF         2.0740   -0.3120   -0.1890 ca        1 2J9     -0.027000
     17 H1         -3.5510   -2.9930   -0.2220 hc        1 2J9      0.082200
     18 H2         -2.8320   -1.9560   -1.5500 hc        1 2J9      0.082200
     19 H3         -4.2240    0.0420   -0.7680 hc        1 2J9      0.082200
     20 H4         -4.9500   -0.9680    0.5760 hc        1 2J9      0.082200
     21 H5         -2.6750   -1.4440    1.5770 h1        1 2J9      0.081700
     22 H6         -2.8770    1.5040    0.3670 h2        1 2J9      0.067700
     23 H7         -1.6490    1.3700    1.7330 h2        1 2J9      0.067700
     24 H8         -1.3110    2.6860   -0.7790 hn        1 2J9      0.457800
     25 H9         -0.9230   -2.7710    0.1600 ha        1 2J9      0.148000
     26 H10         1.3670   -3.6570   -0.1710 ha        1 2J9      0.151000
     27 H11         2.9330    0.3740   -0.3020 ha        1 2J9      0.164000
@<TRIPOS>BOND
     1    1    2 1   
     2    1    3 1   
     3    1   17 1   
     4    1   18 1   
     5    2    3 1   
     6    2   19 1   
     7    2   20 1   
     8    3    4 1   
     9    3   21 1   
    10    4    5 1   
    11    4   11 1   
    12    5    6 1   
    13    5   22 1   
    14    5   23 1   
    15    6    7 1   
    16    6   24 1   
    17    7    8 2   
    18    7    9 2   
    19    7   10 1   
    20   10   11 ar  
    21   10   16 ar  
    22   11   12 ar  
    23   12   13 ar  
    24   12   25 1   
    25   13   14 ar  
    26   13   26 1   
    27   14   15 1   
    28   14   16 ar  
    29   16   27 1   
@<TRIPOS>SUBSTRUCTURE
     1 2J9         1 TEMP              0 ****  ****    0 ROOT
