@<TRIPOS>MOLECULE
2J9
   27    29     1     0     0
SMALL
bcc


@<TRIPOS>ATOM
      1 CAG        -0.0780    0.1570    0.2100 cx        1 2J9     -0.125400
      2 CAH         1.2940   -0.2560   -0.2200 cx        1 2J9     -0.125400
      3 CAN         1.0350    0.0650    1.2410 cx        1 2J9      0.149500
      4 NAO         1.0580   -0.9500    2.2440 nh        1 2J9     -0.694000
      5 CAI         2.2930   -1.7340    2.3490 c3        1 2J9      0.509000
      6 NAJ         2.1170   -2.9970    3.0070 n3        1 2J9     -0.904100
      7 SAP         1.4840   -3.0360    4.5070 sy        1 2J9      1.527200
      8 OAA         2.4290   -2.6260    5.4590 o         1 2J9     -0.649800
      9 OAB         0.9100   -4.3000    4.7320 o         1 2J9     -0.649800
     10 CAM         0.2820   -1.8560    4.3730 ca        1 2J9     -0.430500
     11 CAL         0.1690   -0.9190    3.3120 ca        1 2J9      0.294600
     12 CAE        -0.8950    0.0280    3.3420 ca        1 2J9     -0.195000
     13 CAD        -1.8070    0.0400    4.3760 ca        1 2J9     -0.066000
     14 CAK        -1.6960   -0.8980    5.4270 ca        1 2J9      0.057900
     15 FAC        -2.5980   -0.8850    6.4400 f         1 2J9     -0.137900
     16 CAF        -0.6600   -1.8290    5.4120 ca        1 2J9     -0.027000
     17 H1         -0.8850   -0.5980    0.2100 hc        1 2J9      0.082200
     18 H2         -0.4520    1.1630   -0.0500 hc        1 2J9      0.082200
     19 H3          1.4580   -1.3020   -0.5350 hc        1 2J9      0.082200
     20 H4          1.9220    0.4510   -0.7930 hc        1 2J9      0.082200
     21 H5          1.4410    1.0320    1.6230 h1        1 2J9      0.081700
     22 H6          3.0540   -1.1280    2.9400 h2        1 2J9      0.067700
     23 H7          2.6910   -1.8880    1.3020 h2        1 2J9      0.067700
     24 H8          2.1710   -3.7950    2.4230 hn        1 2J9      0.457800
     25 H9         -0.9970    0.7620    2.5270 ha        1 2J9      0.148000
     26 H10        -2.6260    0.7760    4.3940 ha        1 2J9      0.151000
     27 H11        -0.5830   -2.5680    6.2300 ha        1 2J9      0.164000
@<TRIPOS>BOND
     1    1    2 1   
     2    1    3 1   
     3    1   17 1   
     4    1   18 1   
     5    2    3 1   
     6    2   19 1   
     7    2   20 1   
     8    3    4 1   
     9    3   21 1   
    10    4    5 1   
    11    4   11 1   
    12    5    6 1   
    13    5   22 1   
    14    5   23 1   
    15    6    7 1   
    16    6   24 1   
    17    7    8 2   
    18    7    9 2   
    19    7   10 1   
    20   10   11 ar  
    21   10   16 ar  
    22   11   12 ar  
    23   12   13 ar  
    24   12   25 1   
    25   13   14 ar  
    26   13   26 1   
    27   14   15 1   
    28   14   16 ar  
    29   16   27 1   
@<TRIPOS>SUBSTRUCTURE
     1 2J9         1 TEMP              0 ****  ****    0 ROOT
