@<TRIPOS>MOLECULE
2J9
   27    26     1     0     0
SMALL
bcc


@<TRIPOS>ATOM
      1 CAG        -2.0550   -1.9540   -0.6130 cx        1 2J9     -0.204000
      2 CAH        -1.8060   -1.3930   -1.1060 cx        1 2J9     -0.204000
      3 CAN        -1.3010   -1.5980   -0.5080 cx        1 2J9     -0.048000
      4 NAO        -1.0430   -0.2040    0.0910 n3        1 2J9     -0.296000
      5 CAI        -1.2930   -0.2380    1.5250 c3        1 2J9      0.114000
      6 NAJ        -0.8010    0.8170    2.2900 n3        1 2J9     -0.877000
      7 SAP         0.6560    1.1580    2.1710 s4        1 2J9      2.082800
      8 OAA         1.3980    0.3390    3.0940 o         1 2J9     -0.537400
      9 OAB         0.8400    2.5450    2.5160 o         1 2J9     -0.537400
     10 CAM         1.2450    0.9240    0.5590 c1        1 2J9     -0.875000
     11 CAL         0.3520    0.3340   -0.4100 c2        1 2J9      0.213000
     12 CAE         0.7190    0.2830   -1.7510 c1        1 2J9     -0.195000
     13 CAD         1.9570    0.8070   -2.1610 c1        1 2J9     -0.066000
     14 CAK         2.8350    1.3880   -1.2070 c1        1 2J9      0.023000
     15 FAC         4.0150    1.8930   -1.6020 f         1 2J9     -0.103000
     16 CAF         2.4670    1.4400    0.1510 c1        1 2J9     -0.027000
     17 H1         -2.7520   -1.6810    0.0310 hc        1 2J9      0.121500
     18 H2         -2.0490   -2.8760   -0.9730 hc        1 2J9      0.121500
     19 H3         -1.5460   -1.7050   -2.0090 hc        1 2J9      0.121500
     20 H4         -2.2480   -0.5140   -1.0070 hc        1 2J9      0.121500
     21 H5         -0.5230   -2.0640   -0.9020 h1        1 2J9      0.121000
     22 H6         -2.2670   -0.2760    1.6590 h2        1 2J9      0.107000
     23 H7         -0.9050   -1.0700    1.8780 h2        1 2J9      0.107000
     24 H8         -1.2930    1.1430    2.9930 hn        1 2J9      0.253000
     25 H9          0.1140   -0.1170   -2.4100 ha        1 2J9      0.148000
     26 H10         2.2110    0.7780   -3.1090 ha        1 2J9      0.151000
     27 H11         3.0750    1.8420    0.8090 ha        1 2J9      0.164000
@<TRIPOS>BOND
     1    1    2 1   
     2    1    3 1   
     3    1   17 1   
     4    1   18 1   
     5    2    3 1   
     6    2   19 1   
     7    2   20 1   
     8    3    4 1   
     9    3   21 1   
    10    4    5 1   
    11    4   11 1   
    12    5    6 1   
    13    5   22 1   
    14    5   23 1   
    15    6    7 1   
    16    6   24 1   
    17    7    8 1   
    18    7    9 1   
    19   10   11 1   
    20   10   16 1   
    21   11   12 1   
    22   12   25 1   
    23   13   14 1   
    24   13   26 1   
    25   14   15 1   
    26   16   27 1   
@<TRIPOS>SUBSTRUCTURE
     1 2J9         1 TEMP              0 ****  ****    0 ROOT
