@<TRIPOS>MOLECULE
2J9
   27    29     1     0     0
SMALL
bcc


@<TRIPOS>ATOM
      1 CAG        -0.0840    0.1550    0.2090 cx        1 2J9     -0.125400
      2 CAH         1.2900   -0.2530   -0.2220 cx        1 2J9     -0.125400
      3 CAN         1.0290    0.0650    1.2410 cx        1 2J9      0.148500
      4 NAO         1.0540   -0.9520    2.2410 nh        1 2J9     -0.693000
      5 CAI         2.2930   -1.7310    2.3470 c3        1 2J9      0.509000
      6 NAJ         2.1230   -2.9930    3.0070 n7        1 2J9     -0.904100
      7 SAP         1.4930   -3.0300    4.5090 sy        1 2J9      1.527200
      8 OAA         2.4380   -2.6140    5.4580 o         1 2J9     -0.649800
      9 OAB         0.9240   -4.2960    4.7380 o         1 2J9     -0.649800
     10 CAM         0.2860   -1.8560    4.3750 ca        1 2J9     -0.430500
     11 CAL         0.1670   -0.9220    3.3120 ca        1 2J9      0.294600
     12 CAE        -0.8990    0.0220    3.3420 ca        1 2J9     -0.195000
     13 CAD        -1.8100    0.0330    4.3770 ca        1 2J9     -0.066000
     14 CAK        -1.6940   -0.9020    5.4300 ca        1 2J9      0.057900
     15 FAC        -2.5940   -0.8910    6.4440 f         1 2J9     -0.137900
     16 CAF        -0.6540   -1.8310    5.4140 ca        1 2J9     -0.027000
     17 H1         -0.8880   -0.6020    0.2070 hc        1 2J9      0.082200
     18 H2         -0.4600    1.1610   -0.0500 hc        1 2J9      0.082200
     19 H3          1.9170    0.4560   -0.7920 hc        1 2J9      0.082200
     20 H4          1.4570   -1.2980   -0.5380 hc        1 2J9      0.082200
     21 H5          1.4320    1.0330    1.6250 h1        1 2J9      0.081700
     22 H6          3.0520   -1.1200    2.9340 h2        1 2J9      0.067700
     23 H7          2.6890   -1.8860    1.2990 h2        1 2J9      0.067700
     24 H8          2.1780   -3.7920    2.4250 hn        1 2J9      0.458800
     25 H9         -1.0060    0.7540    2.5260 ha        1 2J9      0.148000
     26 H10        -2.6310    0.7660    4.3950 ha        1 2J9      0.151000
     27 H11        -0.5740   -2.5670    6.2350 ha        1 2J9      0.164000
@<TRIPOS>BOND
     1    1    2 1   
     2    1    3 1   
     3    1   17 1   
     4    1   18 1   
     5    2    3 1   
     6    2   19 1   
     7    2   20 1   
     8    3    4 1   
     9    3   21 1   
    10    4    5 1   
    11    4   11 1   
    12    5    6 1   
    13    5   22 1   
    14    5   23 1   
    15    6    7 1   
    16    6   24 1   
    17    7    8 2   
    18    7    9 2   
    19    7   10 1   
    20   10   11 ar  
    21   10   16 ar  
    22   11   12 ar  
    23   12   13 ar  
    24   12   25 1   
    25   13   14 ar  
    26   13   26 1   
    27   14   15 1   
    28   14   16 ar  
    29   16   27 1   
@<TRIPOS>SUBSTRUCTURE
     1 2J9         1 TEMP              0 ****  ****    0 ROOT
