@<TRIPOS>MOLECULE
2J9
   27    29     1     0     0
SMALL
bcc


@<TRIPOS>ATOM
      1 CAG        -0.0850    0.1540    0.2060 cx        1 2J9     -0.125400
      2 CAH         1.2900   -0.2520   -0.2230 cx        1 2J9     -0.125400
      3 CAN         1.0260    0.0630    1.2400 cx        1 2J9      0.148500
      4 NAO         1.0500   -0.9560    2.2380 nh        1 2J9     -0.692000
      5 CAI         2.2920   -1.7310    2.3450 c3        1 2J9      0.509000
      6 NAJ         2.1260   -2.9910    3.0100 n3        1 2J9     -0.904100
      7 SAP         1.4980   -3.0260    4.5130 sy        1 2J9      1.527200
      8 OAA         2.4420   -2.6030    5.4600 o         1 2J9     -0.649800
      9 OAB         0.9330   -4.2920    4.7470 o         1 2J9     -0.649800
     10 CAM         0.2880   -1.8550    4.3760 ca        1 2J9     -0.430500
     11 CAL         0.1660   -0.9240    3.3110 ca        1 2J9      0.293600
     12 CAE        -0.9030    0.0180    3.3400 ca        1 2J9     -0.194000
     13 CAD        -1.8120    0.0290    4.3760 ca        1 2J9     -0.066000
     14 CAK        -1.6940   -0.9030    5.4310 ca        1 2J9      0.057900
     15 FAC        -2.5930   -0.8910    6.4460 f         1 2J9     -0.137900
     16 CAF        -0.6520   -1.8290    5.4170 ca        1 2J9     -0.027000
     17 H1         -0.4620    1.1600   -0.0510 hc        1 2J9      0.082200
     18 H2         -0.8890   -0.6040    0.2030 hc        1 2J9      0.082200
     19 H3          1.4580   -1.2970   -0.5400 hc        1 2J9      0.082200
     20 H4          1.9170    0.4580   -0.7920 hc        1 2J9      0.082200
     21 H5          1.4280    1.0310    1.6250 h1        1 2J9      0.081700
     22 H6          2.6870   -1.8880    1.2980 h2        1 2J9      0.067700
     23 H7          3.0500   -1.1160    2.9300 h2        1 2J9      0.067700
     24 H8          2.1820   -3.7920    2.4310 hn        1 2J9      0.458800
     25 H9         -1.0120    0.7480    2.5220 ha        1 2J9      0.148000
     26 H10        -2.6350    0.7610    4.3930 ha        1 2J9      0.151000
     27 H11        -0.5690   -2.5630    6.2390 ha        1 2J9      0.164000
@<TRIPOS>BOND
     1    1    2 1   
     2    1    3 1   
     3    1   17 1   
     4    1   18 1   
     5    2    3 1   
     6    2   19 1   
     7    2   20 1   
     8    3    4 1   
     9    3   21 1   
    10    4    5 1   
    11    4   11 1   
    12    5    6 1   
    13    5   22 1   
    14    5   23 1   
    15    6    7 1   
    16    6   24 1   
    17    7    8 2   
    18    7    9 2   
    19    7   10 1   
    20   10   11 ar  
    21   10   16 ar  
    22   11   12 ar  
    23   12   13 ar  
    24   12   25 1   
    25   13   14 ar  
    26   13   26 1   
    27   14   15 1   
    28   14   16 ar  
    29   16   27 1   
@<TRIPOS>SUBSTRUCTURE
     1 2J9         1 TEMP              0 ****  ****    0 ROOT
