@<TRIPOS>MOLECULE
2JA
   26    25     1     0     0
SMALL
bcc


@<TRIPOS>ATOM
      1 OAE         1.0920   -0.3770   -1.4460 o         1 2JA     -0.967167
      2 PAN         2.1110   -0.1970   -0.3510 p5        1 2JA      1.461900
      3 OAF         1.7510   -0.8470    0.9580 o         1 2JA     -0.967167
      4 OAB         3.5310   -0.4280   -0.8000 o         1 2JA     -0.967167
      5 OAL         2.0630    1.5390   -0.0210 os        1 2JA     -0.822800
      6 PAO         2.0830    3.1050    0.0680 p5        1 2JA      1.483600
      7 OAG         3.1600    3.6740    0.9470 o         1 2JA     -0.955000
      8 OAC         0.7400    3.7460    0.2650 o         1 2JA     -0.955000
      9 CAK         2.5610    3.5760   -1.5660 c3        1 2JA     -0.316600
     10 CAI         2.6440    5.0650   -1.5060 c3        1 2JA     -0.073200
     11 CAH         3.0660    5.7170   -2.7600 c2        1 2JA     -0.012200
     12 CAM         3.2140    7.0420   -2.9550 c2        1 2JA     -0.330400
     13 CAA         2.9540    8.0530   -1.9070 c3        1 2JA     -0.023900
     14 CAJ         3.6360    7.5910   -4.2750 c3        1 2JA      0.195600
     15 OAD         4.8890    8.2710   -4.2310 oh        1 2JA     -0.651800
     16 H4          3.5330    3.1020   -1.8130 hc        1 2JA      0.052200
     17 H5          1.7980    3.2200   -2.2890 hc        1 2JA      0.052200
     18 H6          1.6320    5.4470   -1.1800 hc        1 2JA      0.092700
     19 H7          3.3590    5.3250   -0.6670 hc        1 2JA      0.092700
     20 H8          3.2750    5.0220   -3.5950 ha        1 2JA      0.107000
     21 H11         1.9950    8.5920   -2.1130 hc        1 2JA      0.022367
     22 H12         2.8770    7.5710   -0.8990 hc        1 2JA      0.022367
     23 H13         3.7760    8.8120   -1.8840 hc        1 2JA      0.022367
     24 H14         3.7190    6.7780   -5.0480 h1        1 2JA      0.016200
     25 H15         2.9080    8.3670   -4.6410 h1        1 2JA      0.016200
     26 H16         5.3970    7.8770   -3.5130 ho        1 2JA      0.406000
@<TRIPOS>BOND
     1    1    2 1   
     2    2    3 1   
     3    2    4 1   
     4    2    5 1   
     5    5    6 1   
     6    6    7 1   
     7    6    8 1   
     8    6    9 1   
     9    9   10 1   
    10    9   16 1   
    11    9   17 1   
    12   10   11 1   
    13   10   18 1   
    14   10   19 1   
    15   11   12 2   
    16   11   20 1   
    17   12   13 1   
    18   12   14 1   
    19   13   21 1   
    20   13   22 1   
    21   13   23 1   
    22   14   15 1   
    23   14   24 1   
    24   14   25 1   
    25   15   26 1   
@<TRIPOS>SUBSTRUCTURE
     1 2JA         1 TEMP              0 ****  ****    0 ROOT
