@<TRIPOS>MOLECULE
2JA
   26    25     1     0     0
SMALL
bcc


@<TRIPOS>ATOM
      1 OAE         1.0380   -0.3640   -1.5380 o         1 2JA     -0.967167
      2 PAN         2.0310   -0.2030   -0.4160 p5        1 2JA      1.461900
      3 OAF         1.6310   -0.8620    0.8770 o         1 2JA     -0.967167
      4 OAB         3.4590   -0.4440   -0.8310 o         1 2JA     -0.967167
      5 OAL         1.9890    1.5300   -0.0710 os        1 2JA     -0.822800
      6 PAO         2.0220    3.0950    0.0330 p5        1 2JA      1.483600
      7 OAG         3.0800    3.6460    0.9440 o         1 2JA     -0.955000
      8 OAC         0.6800    3.7460    0.2010 o         1 2JA     -0.955000
      9 CAK         2.5440    3.5760   -1.5840 c3        1 2JA     -0.316600
     10 CAI         2.6390    5.0640   -1.5080 c3        1 2JA     -0.073200
     11 CAH         3.0970    5.7230   -2.7460 c2        1 2JA     -0.012200
     12 CAM         3.2620    7.0490   -2.9250 c2        1 2JA     -0.330400
     13 CAA         2.9850    8.0520   -1.8740 c3        1 2JA     -0.023900
     14 CAJ         3.7210    7.6060   -4.2280 c3        1 2JA      0.195600
     15 OAD         4.9780    8.2740   -4.1480 oh        1 2JA     -0.651800
     16 H4          3.5190    3.0970   -1.8110 hc        1 2JA      0.052200
     17 H5          1.7980    3.2330   -2.3300 hc        1 2JA      0.052200
     18 H6          1.6220    5.4520   -1.2050 hc        1 2JA      0.092700
     19 H7          3.3340    5.3100   -0.6490 hc        1 2JA      0.092700
     20 H8          3.3200    5.0340   -3.5820 ha        1 2JA      0.107000
     21 H11         2.0360    8.6030   -2.0990 hc        1 2JA      0.022367
     22 H12         2.8780    7.5620   -0.8730 hc        1 2JA      0.022367
     23 H13         3.8140    8.8030   -1.8230 hc        1 2JA      0.022367
     24 H14         3.8160    6.8000   -5.0070 h1        1 2JA      0.016200
     25 H15         3.0090    8.3920   -4.6050 h1        1 2JA      0.016200
     26 H16         5.4650    7.8690   -3.4210 ho        1 2JA      0.406000
@<TRIPOS>BOND
     1    1    2 1   
     2    2    3 1   
     3    2    4 1   
     4    2    5 1   
     5    5    6 1   
     6    6    7 1   
     7    6    8 1   
     8    6    9 1   
     9    9   10 1   
    10    9   16 1   
    11    9   17 1   
    12   10   11 1   
    13   10   18 1   
    14   10   19 1   
    15   11   12 2   
    16   11   20 1   
    17   12   13 1   
    18   12   14 1   
    19   13   21 1   
    20   13   22 1   
    21   13   23 1   
    22   14   15 1   
    23   14   24 1   
    24   14   25 1   
    25   15   26 1   
@<TRIPOS>SUBSTRUCTURE
     1 2JA         1 TEMP              0 ****  ****    0 ROOT
