@<TRIPOS>MOLECULE
2JC
   15    14     1     0     0
SMALL
bcc


@<TRIPOS>ATOM
      1 N           0.9610   -0.0810   -0.7850 n3        1 2JC     -0.806200
      2 CA         -0.3070   -0.7530   -0.5560 c3        1 2JC      0.020800
      3 C          -1.1930   -0.1850    0.5820 c         1 2JC      0.884600
      4 O          -0.9510    0.9800    1.0130 o         1 2JC     -0.849800
      5 C1          3.2170    0.4170    0.1370 c3        1 2JC     -0.090100
      6 C3          1.9630   -0.4390    0.2070 c3        1 2JC      0.154800
      7 O1         -2.1250   -0.9230    1.0080 o         1 2JC     -0.849800
      8 H1          0.7930    0.9120   -0.7170 hn        1 2JC      0.356800
      9 H3         -0.8940   -0.6660   -1.5120 h1        1 2JC      0.030700
     10 H4         -0.1270   -1.8430   -0.3590 h1        1 2JC      0.030700
     11 H5          3.6870    0.3640   -0.8740 hc        1 2JC      0.021367
     12 H6          2.9830    1.4850    0.3620 hc        1 2JC      0.021367
     13 H7          1.5520   -0.3780    1.2590 h1        1 2JC      0.026200
     14 H8          2.2470   -1.5140    0.0220 h1        1 2JC      0.026200
     15 H2          3.9550    0.0500    0.8910 hc        1 2JC      0.021367
@<TRIPOS>BOND
     1    1    2 1   
     2    1    6 1   
     3    1    8 1   
     4    2    3 1   
     5    2    9 1   
     6    2   10 1   
     7    3    4 1   
     8    3    7 1   
     9    5    6 1   
    10    5   11 1   
    11    5   12 1   
    12    5   15 1   
    13    6   13 1   
    14    6   14 1   
@<TRIPOS>SUBSTRUCTURE
     1 2JC         1 TEMP              0 ****  ****    0 ROOT
