@<TRIPOS>MOLECULE
2JC
   15    14     1     0     0
SMALL
bcc


@<TRIPOS>ATOM
      1 N          -0.0960    0.0120    0.3960 n3        1 2JC     -0.806200
      2 CA          1.3280    0.0290    0.4280 c3        1 2JC      0.020800
      3 C           1.8150   -0.7900    1.6040 c         1 2JC      0.884600
      4 O           2.2690   -0.2130    2.6270 o         1 2JC     -0.849800
      5 C1         -2.0080    0.0690   -1.0500 c3        1 2JC     -0.090100
      6 C3         -0.5460    0.4220   -0.8920 c3        1 2JC      0.154800
      7 O1          1.7670   -2.0470    1.5580 o         1 2JC     -0.849800
      8 H1         -0.4220    0.5860    1.0300 hn        1 2JC      0.356800
      9 H3          1.6780   -0.3530   -0.4030 h1        1 2JC      0.030700
     10 H4          1.6420    0.9520    0.5210 h1        1 2JC      0.030700
     11 H5         -2.3070    0.3120   -1.9510 hc        1 2JC      0.021367
     12 H6         -2.1290   -0.8940   -0.9140 hc        1 2JC      0.021367
     13 H7         -0.0230   -0.0360   -1.5820 h1        1 2JC      0.026200
     14 H8         -0.4320    1.3900   -0.9850 h1        1 2JC      0.026200
     15 H2         -2.5370    0.5610   -0.3870 hc        1 2JC      0.021367
@<TRIPOS>BOND
     1    1    2 1   
     2    1    6 1   
     3    1    8 1   
     4    2    3 1   
     5    2    9 1   
     6    2   10 1   
     7    3    4 1   
     8    3    7 1   
     9    5    6 1   
    10    5   11 1   
    11    5   12 1   
    12    5   15 1   
    13    6   13 1   
    14    6   14 1   
@<TRIPOS>SUBSTRUCTURE
     1 2JC         1 TEMP              0 ****  ****    0 ROOT
