@<TRIPOS>MOLECULE
2JD
   24    22     1     0     0
SMALL
bcc


@<TRIPOS>ATOM
      1 C16         0.1110   -0.0290    0.1960 c         1 2JD      0.894600
      2 O3         -0.6390    0.2580    1.1830 o         1 2JD     -0.877300
      3 C17         1.6420    0.0060    0.4280 c3        1 2JD      0.065300
      4 O4          1.8890   -0.3590    1.7890 oh        1 2JD     -0.639800
      5 C18         2.2920    1.3290    0.1110 c2        1 2JD     -0.114400
      6 C19         3.6400    1.2570   -0.5710 c3        1 2JD      0.241600
      7 C20         1.3510    1.3100   -3.4130 c3        1 2JD     -0.134800
      8 C21         1.7140    2.4850    0.4480 c2        1 2JD     -0.262000
      9 P           5.7750    2.7540   -1.0190 p5        1 2JD      1.321900
     10 O1P         6.2080    2.1850    0.3090 o         1 2JD     -0.944167
     11 O2P         4.0670    2.4680   -1.0650 os        1 2JD     -0.576200
     12 O3P         5.8470    4.2560   -1.1350 o         1 2JD     -0.944167
     13 H15         2.1250   -0.8140   -0.1720 h1        1 2JD      0.050700
     14 H16         1.2620    0.1590    2.3120 ho        1 2JD      0.399000
     15 H17         3.5230    0.5070   -1.4170 h1        1 2JD      0.004700
     16 H18         4.3920    0.8500    0.1690 h1        1 2JD      0.004700
     17 H19         2.2410    1.7300   -2.8830 hc        1 2JD      0.032700
     18 H20         1.6860    0.6410   -4.2360 hc        1 2JD      0.032700
     19 H21         0.7420    2.1360   -3.8410 hc        1 2JD      0.032700
     20 H22         2.1980    3.4420    0.2170 ha        1 2JD      0.100000
     21 H23         0.7430    0.7310   -2.6770 hc        1 2JD      0.032700
     22 H24         0.7370    2.5230    0.9460 ha        1 2JD      0.100000
     23 OXT         6.2800    1.9920   -2.2200 o         1 2JD     -0.944167
     24 O1         -0.3540   -0.4070   -0.9190 o         1 2JD     -0.877300
@<TRIPOS>BOND
     1    1    2 1   
     2    1    3 1   
     3    1   24 1   
     4    3    4 1   
     5    3    5 1   
     6    3   13 1   
     7    4   14 1   
     8    5    6 1   
     9    5    8 2   
    10    6   11 1   
    11    6   15 1   
    12    6   16 1   
    13    7   17 1   
    14    7   18 1   
    15    7   19 1   
    16    7   21 1   
    17    8   20 1   
    18    8   22 1   
    19    9   10 1   
    20    9   11 1   
    21    9   12 1   
    22    9   23 1   
@<TRIPOS>SUBSTRUCTURE
     1 2JD         1 TEMP              0 ****  ****    0 ROOT
