@<TRIPOS>MOLECULE
2JD
   24    23     1     0     0
SMALL
bcc


@<TRIPOS>ATOM
      1 C16        -0.0220   -0.2320   -0.2410 c         1 2JD      0.889600
      2 O3         -0.7590    0.1530    0.7250 o         1 2JD     -0.883800
      3 C17         1.5080   -0.0490   -0.0990 c3        1 2JD      0.046100
      4 O4          1.8400   -0.1760    1.2820 oh        1 2JD     -0.635800
      5 C18         2.0500    1.2700   -0.6900 c3        1 2JD     -0.088000
      6 C19         3.6000    1.3350   -0.5410 c3        1 2JD      0.225400
      7 C20         1.6990    1.3270   -2.1660 c3        1 2JD     -0.066600
      8 C21         1.4360    2.4560    0.0310 c3        1 2JD     -0.066600
      9 P           5.6920    2.5950   -1.5690 p5        1 2JD      1.323900
     10 O1P         6.5740    2.5200   -0.3460 o         1 2JD     -0.946500
     11 O2P         4.0930    2.5640   -0.9140 os        1 2JD     -0.582200
     12 O3P         5.7070    3.9240   -2.2830 o         1 2JD     -0.946500
     13 H15         2.0350   -0.9090   -0.5950 h1        1 2JD      0.047700
     14 H16         1.2000    0.3750    1.7540 ho        1 2JD      0.397000
     15 H17         4.0650    0.5200   -1.1650 h1        1 2JD     -0.002300
     16 H18         3.8150    1.1300    0.5520 h1        1 2JD     -0.002300
     17 H19         2.1340    0.4460   -2.6950 hc        1 2JD      0.020200
     18 H20         2.1320    2.2560   -2.6090 hc        1 2JD      0.020200
     19 H21         0.5910    1.3150   -2.3090 hc        1 2JD      0.020200
     20 H22         1.8080    3.4010   -0.4320 hc        1 2JD      0.020200
     21 H23         0.3210    2.4130   -0.0200 hc        1 2JD      0.020200
     22 H24         1.7450    2.4470    1.1050 hc        1 2JD      0.020200
     23 OXT         5.7540    1.3810   -2.4630 o         1 2JD     -0.946500
     24 O1         -0.5070   -0.8140   -1.2570 o         1 2JD     -0.883800
@<TRIPOS>BOND
     1    1    2 1   
     2    1    3 1   
     3    1   24 1   
     4    3    4 1   
     5    3    5 1   
     6    3   13 1   
     7    4   14 1   
     8    5    6 1   
     9    5    7 1   
    10    5    8 1   
    11    6   11 1   
    12    6   15 1   
    13    6   16 1   
    14    7   17 1   
    15    7   18 1   
    16    7   19 1   
    17    8   20 1   
    18    8   21 1   
    19    8   22 1   
    20    9   10 1   
    21    9   11 1   
    22    9   12 1   
    23    9   23 1   
@<TRIPOS>SUBSTRUCTURE
     1 2JD         1 TEMP              0 ****  ****    0 ROOT
