@<TRIPOS>MOLECULE
2JE
   21    21     1     0     0
SMALL
bcc


@<TRIPOS>ATOM
      1 C4         -0.6450    0.5090    0.2640 cc        1 2JE     -0.112600
      2 N3          0.7100    0.4290    0.0180 na        1 2JE     -0.307900
      3 C2          1.3090   -0.1380    1.1650 cc        1 2JE      0.422400
      4 N4          0.4000   -0.4170    2.1090 nd        1 2JE     -0.624000
      5 C5         -0.8420   -0.0200    1.5680 cd        1 2JE      0.168800
      6 O6         -3.1740    0.3180    1.8090 o         1 2JE     -0.654100
      7 C22        -2.1040   -0.1590    2.2490 c         1 2JE      0.512200
      8 S1         -1.9950   -1.0180    3.7430 ss        1 2JE     -0.070700
      9 C11        -3.6740   -1.2690    4.1980 c3        1 2JE     -0.112300
     10 C12        -4.3850   -0.1010    4.8540 c3        1 2JE      0.113800
     11 N1         -4.8420    0.9320    3.8790 n4        1 2JE     -0.840600
     12 H1         -1.3720    0.9040   -0.4500 h4        1 2JE      0.205000
     13 H2          1.1760    0.7070   -0.8090 hn        1 2JE      0.325700
     14 H3          2.3910   -0.3140    1.2390 h5        1 2JE      0.089100
     15 H5         -4.2670   -1.6590    3.3290 h1        1 2JE      0.125700
     16 H6         -3.6270   -2.0980    4.9610 h1        1 2JE      0.125700
     17 H7         -5.3010   -0.4780    5.3990 hx        1 2JE      0.115200
     18 H8         -3.7030    0.4050    5.5990 hx        1 2JE      0.115200
     19 H9         -5.4150    1.6370    4.3470 hn        1 2JE      0.467467
     20 H4         -5.3810    0.4900    3.1230 hn        1 2JE      0.467467
     21 H13        -4.0280    1.3850    3.4330 hn        1 2JE      0.467467
@<TRIPOS>BOND
     1    1    2 1   
     2    1    5 2   
     3    1   12 1   
     4    2    3 1   
     5    2   13 1   
     6    3    4 2   
     7    3   14 1   
     8    4    5 1   
     9    5    7 1   
    10    6    7 2   
    11    7    8 1   
    12    8    9 1   
    13    9   10 1   
    14    9   15 1   
    15    9   16 1   
    16   10   11 1   
    17   10   17 1   
    18   10   18 1   
    19   11   19 1   
    20   11   20 1   
    21   11   21 1   
@<TRIPOS>SUBSTRUCTURE
     1 2JE         1 TEMP              0 ****  ****    0 ROOT
