@<TRIPOS>MOLECULE
2JE
   21    21     1     0     0
SMALL
bcc


@<TRIPOS>ATOM
      1 C4         -0.5770   -0.7300    0.3730 cc        1 2JE     -0.112600
      2 N3          0.7720   -0.5860    0.1230 na        1 2JE     -0.307900
      3 C2          1.3110    0.1880    1.1750 cc        1 2JE      0.422400
      4 N4          0.3690    0.5360    2.0630 nd        1 2JE     -0.624000
      5 C5         -0.8310   -0.0290    1.5830 cd        1 2JE      0.168800
      6 O6         -3.1350   -0.5010    1.8630 o         1 2JE     -0.654100
      7 C22        -2.1110    0.1140    2.2310 c         1 2JE      0.512200
      8 S1         -2.0880    1.1930    3.5790 ss        1 2JE     -0.070700
      9 C11        -3.7870    1.3820    3.9850 c3        1 2JE     -0.112300
     10 C12        -4.4200    0.2750    4.8060 c3        1 2JE      0.113800
     11 N1         -4.7840   -0.9240    3.9950 n4        1 2JE     -0.840600
     12 H1         -1.2620   -1.2800   -0.2760 h4        1 2JE      0.205000
     13 H2          1.2700   -0.9480   -0.6510 hn        1 2JE      0.325700
     14 H3          2.3750    0.4540    1.2260 h5        1 2JE      0.089100
     15 H5         -4.3940    1.5920    3.0660 h1        1 2JE      0.125700
     16 H6         -3.8130    2.3170    4.6150 h1        1 2JE      0.125700
     17 H7         -5.3690    0.6590    5.2840 hx        1 2JE      0.115200
     18 H8         -3.7130   -0.0600    5.6210 hx        1 2JE      0.115200
     19 H9         -3.9310   -1.3760    3.6270 hn        1 2JE      0.467467
     20 H4         -5.3100   -1.5920    4.5620 hn        1 2JE      0.467467
     21 H13        -5.3420   -0.6420    3.1800 hn        1 2JE      0.467467
@<TRIPOS>BOND
     1    1    2 1   
     2    1    5 2   
     3    1   12 1   
     4    2    3 1   
     5    2   13 1   
     6    3    4 2   
     7    3   14 1   
     8    4    5 1   
     9    5    7 1   
    10    6    7 2   
    11    7    8 1   
    12    8    9 1   
    13    9   10 1   
    14    9   15 1   
    15    9   16 1   
    16   10   11 1   
    17   10   17 1   
    18   10   18 1   
    19   11   19 1   
    20   11   20 1   
    21   11   21 1   
@<TRIPOS>SUBSTRUCTURE
     1 2JE         1 TEMP              0 ****  ****    0 ROOT
