@<TRIPOS>MOLECULE
2JE
   21    21     1     0     0
SMALL
bcc


@<TRIPOS>ATOM
      1 C4         -0.5520    0.4850    0.3260 cc        1 2JE     -0.112600
      2 N3          0.8090    0.3850    0.1290 na        1 2JE     -0.307900
      3 C2          1.3580   -0.1920    1.2960 cc        1 2JE      0.422400
      4 N4          0.4110   -0.4590    2.2060 nd        1 2JE     -0.624000
      5 C5         -0.8040   -0.0420    1.6220 cd        1 2JE      0.168800
      6 O6         -3.1370    0.3320    1.7800 o         1 2JE     -0.654100
      7 C22        -2.0920   -0.1610    2.2570 c         1 2JE      0.512200
      8 S1         -2.0500   -1.0240    3.7520 ss        1 2JE     -0.070700
      9 C11        -3.7480   -1.2500    4.1460 c3        1 2JE     -0.112300
     10 C12        -4.4640   -0.0720    4.7780 c3        1 2JE      0.113800
     11 N1         -4.8690    0.9700    3.7890 nz        1 2JE     -0.840600
     12 H1         -1.2470    0.8930   -0.4120 h4        1 2JE      0.205000
     13 H2          1.3090    0.6570   -0.6800 hn        1 2JE      0.325700
     14 H3          2.4330   -0.3850    1.4090 h5        1 2JE      0.089100
     15 H5         -3.7410   -2.0810    4.9090 h1        1 2JE      0.125700
     16 H6         -4.3150   -1.6290    3.2560 h1        1 2JE      0.125700
     17 H7         -3.8010    0.4220    5.5480 hx        1 2JE      0.115200
     18 H8         -5.4040   -0.4350    5.2890 hx        1 2JE      0.115200
     19 H9         -5.3870    0.5370    3.0140 hn        1 2JE      0.467467
     20 H4         -5.4480    1.6820    4.2380 hn        1 2JE      0.467467
     21 H13        -4.0320    1.4100    3.3740 hn        1 2JE      0.467467
@<TRIPOS>BOND
     1    1    2 1   
     2    1    5 2   
     3    1   12 1   
     4    2    3 1   
     5    2   13 1   
     6    3    4 2   
     7    3   14 1   
     8    4    5 1   
     9    5    7 1   
    10    6    7 2   
    11    7    8 1   
    12    8    9 1   
    13    9   10 1   
    14    9   15 1   
    15    9   16 1   
    16   10   11 1   
    17   10   17 1   
    18   10   18 1   
    19   11   19 1   
    20   11   20 1   
    21   11   21 1   
@<TRIPOS>SUBSTRUCTURE
     1 2JE         1 TEMP              0 ****  ****    0 ROOT
