@<TRIPOS>MOLECULE
2JH
   22    22     1     0     0
SMALL
bcc


@<TRIPOS>ATOM
      1 N           0.6560    1.7340    0.4470 n3        1 2JH     -0.891800
      2 CA          0.8710    0.2930    0.4080 c3        1 2JH      0.020500
      3 CB         -0.2820   -0.4800   -0.2360 c3        1 2JH     -0.058400
      4 C1          2.1970   -0.1460   -0.2980 c         1 2JH      0.887600
      5 O           2.9530    0.7560   -0.7610 o         1 2JH     -0.845300
      6 CG         -1.5820   -0.3370    0.5040 cy        1 2JH     -0.058700
      7 CD1        -2.4630    0.8790    0.1160 cy        1 2JH     -0.090400
      8 CD2        -2.7100   -1.2860    0.0210 cy        1 2JH     -0.090400
      9 CE         -3.5890   -0.0720   -0.3380 cy        1 2JH     -0.104400
     10 H1          1.5560    2.1650    0.5870 hn        1 2JH      0.329300
     11 H2          0.3400    2.0350   -0.4590 hn        1 2JH      0.329300
     12 H4          0.9610   -0.0390    1.4840 h1        1 2JH      0.040700
     13 H5         -0.4090   -0.1570   -1.3020 hc        1 2JH      0.049700
     14 H6          0.0240   -1.5620   -0.2490 hc        1 2JH      0.049700
     15 H8         -1.4130   -0.4010    1.6050 hc        1 2JH      0.052700
     16 H9         -2.7320    1.5300    0.9730 hc        1 2JH      0.041700
     17 H10        -2.0350    1.4980   -0.7000 hc        1 2JH      0.041700
     18 H11        -2.4240   -1.9100   -0.8520 hc        1 2JH      0.041700
     19 H12        -3.1310   -1.9320    0.8190 hc        1 2JH      0.041700
     20 H13        -4.5200    0.0070    0.2630 hc        1 2JH      0.030200
     21 H14        -3.8400    0.0030   -1.4170 hc        1 2JH      0.030200
     22 O1          2.4480   -1.3820   -0.3480 o         1 2JH     -0.845300
@<TRIPOS>BOND
     1    1    2 1   
     2    1   10 1   
     3    1   11 1   
     4    2    3 1   
     5    2    4 1   
     6    2   12 1   
     7    3    6 1   
     8    3   13 1   
     9    3   14 1   
    10    4    5 1   
    11    4   22 1   
    12    6    7 1   
    13    6    8 1   
    14    6   15 1   
    15    7    9 1   
    16    7   16 1   
    17    7   17 1   
    18    8    9 1   
    19    8   18 1   
    20    8   19 1   
    21    9   20 1   
    22    9   21 1   
@<TRIPOS>SUBSTRUCTURE
     1 2JH         1 TEMP              0 ****  ****    0 ROOT
