@<TRIPOS>MOLECULE
2JH
   22    22     1     0     0
SMALL
bcc


@<TRIPOS>ATOM
      1 N          -2.1160   -0.6150   -1.4480 n3        1 2JH     -0.891800
      2 CA         -0.6940   -0.6150   -1.4480 c3        1 2JH      0.020500
      3 CB         -0.1900   -0.6150   -0.0220 c3        1 2JH     -0.058400
      4 C1         -0.1900   -1.8490   -2.1600 c         1 2JH      0.887600
      5 O           0.5540   -1.7330   -3.1700 o         1 2JH     -0.845300
      6 CG          0.2980    0.7150    0.3210 cy        1 2JH     -0.058700
      7 CD1        -0.2320    1.2060    1.6270 cy        1 2JH     -0.090400
      8 CD2         1.6840    0.6960    0.8890 cy        1 2JH     -0.090400
      9 CE          1.1540    1.1880    2.1970 cy        1 2JH     -0.104400
     10 H1         -2.4200    0.1260   -1.8840 hn        1 2JH      0.329300
     11 H2         -2.4200   -1.3630   -1.8710 hn        1 2JH      0.329300
     12 H4         -0.3680    0.1820   -1.9080 h1        1 2JH      0.040700
     13 H5         -0.9180   -0.8600    0.5800 hc        1 2JH      0.049700
     14 H6          0.5370   -1.2610    0.0660 hc        1 2JH      0.049700
     15 H8          0.1940    1.3670   -0.3980 hc        1 2JH      0.052700
     16 H9         -0.8260    0.5640    2.0600 hc        1 2JH      0.041700
     17 H10        -0.6050    2.1070    1.5690 hc        1 2JH      0.041700
     18 H11         2.2780    1.3390    0.4560 hc        1 2JH      0.041700
     19 H12         2.0560   -0.2040    0.9470 hc        1 2JH      0.041700
     20 H13         1.2590    0.5360    2.9160 hc        1 2JH      0.030200
     21 H14         1.4810    2.0800    2.4250 hc        1 2JH      0.030200
     22 O1         -0.5160   -2.9920   -1.7460 o         1 2JH     -0.845300
@<TRIPOS>BOND
     1    1    2 1   
     2    1   10 1   
     3    1   11 1   
     4    2    3 1   
     5    2    4 1   
     6    2   12 1   
     7    3    6 1   
     8    3   13 1   
     9    3   14 1   
    10    4    5 1   
    11    4   22 1   
    12    6    7 1   
    13    6    8 1   
    14    6   15 1   
    15    7    9 1   
    16    7   16 1   
    17    7   17 1   
    18    8    9 1   
    19    8   18 1   
    20    8   19 1   
    21    9   20 1   
    22    9   21 1   
@<TRIPOS>SUBSTRUCTURE
     1 2JH         1 TEMP              0 ****  ****    0 ROOT
