@<TRIPOS>MOLECULE
2JK
   26    27     1     0     0
SMALL
bcc


@<TRIPOS>ATOM
      1 O1          0.0000    0.0000    0.0000 o         1 2JK     -0.623500
      2 C2          1.3470    0.0000    0.0000 c2        1 2JK      0.430000
      3 O2          1.9540    0.0000    1.0510 o         1 2JK     -0.623500
      4 C1          2.0880   -0.0000   -1.2830 c2        1 2JK     -0.043000
      5 N1          1.4110    0.0000   -2.4170 n2        1 2JK     -0.038000
      6 C10         2.0290    0.0010   -3.5990 ca        1 2JK      0.093000
      7 C9          1.2940    0.0020   -4.8000 ca        1 2JK     -0.278000
      8 C8          1.9480    0.0020   -5.9920 ca        1 2JK     -1.481000
      9 Cl2         1.1550    0.0030   -7.2730 cl        1 2JK      4.271000
     10 C7          3.3400    0.0040   -6.0490 ca        1 2JK     -0.058000
     11 C6          4.0860    0.0020   -4.9080 ca        1 2JK     -1.781000
     12 Cl1         5.5910    0.0020   -4.9880 cl        1 2JK      4.275000
     13 C5          3.4460    0.0010   -3.6610 ca        1 2JK      0.067000
     14 C4          4.1860    0.0010   -2.4570 c2        1 2JK     -0.032000
     15 O3          5.5420   -0.0000   -2.4710 oh        1 2JK     -0.346000
     16 C3          3.4870    0.0060   -1.2650 c2        1 2JK     -0.223000
     17 H2          0.2150    0.0950   -4.7740 ha        1 2JK      0.120000
     18 H3          1.3130    0.9390   -7.7950 ha        1 2JK     -0.855667
     19 H4          1.4790   -0.8190   -7.8990 ha        1 2JK     -0.855667
     20 H5          0.1020   -0.1100   -7.0460 ha        1 2JK     -0.855667
     21 H6          3.8360    0.0040   -7.0120 ha        1 2JK      0.068000
     22 H7          5.8970    0.0160   -6.0270 ha        1 2JK     -0.861000
     23 H8          5.9770   -0.8890   -4.5090 ha        1 2JK     -0.861000
     24 H9          5.9790    0.8800   -4.4860 ha        1 2JK     -0.861000
     25 H10         5.8640   -0.4610   -1.7140 ho        1 2JK      0.225000
     26 H11         4.0160    0.1340   -0.3270 ha        1 2JK      0.129000
@<TRIPOS>BOND
     1    1    2 1   
     2    2    3 1   
     3    2    4 1   
     4    4    5 1   
     5    4   16 1   
     6    5    6 1   
     7    6    7 1   
     8    6   13 1   
     9    7    8 1   
    10    7   17 1   
    11    8    9 1   
    12    8   10 1   
    13    9   18 1   
    14    9   19 1   
    15    9   20 1   
    16   10   11 1   
    17   10   21 1   
    18   11   12 1   
    19   11   13 1   
    20   12   22 1   
    21   12   23 1   
    22   12   24 1   
    23   13   14 1   
    24   14   15 1   
    25   14   16 1   
    26   15   25 1   
    27   16   26 1   
@<TRIPOS>SUBSTRUCTURE
     1 2JK         1 TEMP              0 ****  ****    0 ROOT
