@<TRIPOS>MOLECULE
2JL
   44    47     1     0     0
SMALL
bcc


@<TRIPOS>ATOM
      1 N           0.8620   -0.6150   -0.8100 n7        1 2JL     -0.777200
      2 CA          1.1900    0.5370    0.0460 c3        1 2JL      0.055200
      3 CAF        -1.7470   -8.5760    6.7700 ca        1 2JL     -0.161000
      4 CAG        -0.5670   -8.8030    6.0410 ca        1 2JL     -0.149000
      5 CAH         1.8710   -4.4290    3.2650 ca        1 2JL     -0.093000
      6 CAI        -2.2980   -7.3110    6.8000 ca        1 2JL     -0.122000
      7 CAJ         0.0420   -7.7700    5.3570 ca        1 2JL     -0.123000
      8 CAK         1.3120   -5.5020    3.9230 ca        1 2JL     -0.148000
      9 CAL        -2.2700   -4.9290    6.1420 ca        1 2JL     -0.161000
     10 CAM        -1.6930   -3.8960    5.4770 ca        1 2JL     -0.085000
     11 CAN         0.0960   -2.9900    4.0440 ca        1 2JL     -0.132000
     12 CAO        -0.1020   -1.4790   -0.1550 c3        1 2JL      0.151800
     13 CAP        -0.0980   -1.4240    1.3950 c3        1 2JL      0.019000
     14 CAU         1.2620   -3.1500    3.3020 ca        1 2JL     -0.059600
     15 CAV        -1.6900   -6.2400    6.1080 ca        1 2JL     -0.044000
     16 CAW        -0.4860   -4.0790    4.7210 ca        1 2JL     -0.039000
     17 CAX        -0.4980   -6.4610    5.3700 ca        1 2JL      0.003000
     18 CAY         0.1160   -5.3630    4.6680 ca        1 2JL     -0.064000
     19 C          -0.0280    1.5150    0.1580 c         1 2JL      0.933600
     20 O          -1.1310    1.1360    0.6570 o         1 2JL     -0.867800
     21 NAZ         1.1800   -1.0420    1.9880 n         1 2JL     -0.174400
     22 OAC         3.2040   -1.9550    2.7240 o         1 2JL     -0.710100
     23 CB          1.7600    0.0780    1.3750 ce        1 2JL     -0.287400
     24 CG          2.8530    0.8270    1.9020 c         1 2JL      0.596800
     25 OD1         3.2690    0.7300    3.2230 oh        1 2JL     -0.651100
     26 OD2         3.5480    1.6850    1.3110 o         1 2JL     -0.648000
     27 OXT         0.1300    2.6780   -0.3120 o         1 2JL     -0.867800
     28 H1          1.7150   -1.1370   -0.9430 hn        1 2JL      0.312800
     29 H3          2.0030    1.1230   -0.4800 h1        1 2JL      0.072700
     30 H6          2.8140   -4.5330    2.7050 ha        1 2JL      0.148000
     31 H7         -3.2210   -7.1190    7.3650 ha        1 2JL      0.115000
     32 H8          0.9640   -7.9700    4.7920 ha        1 2JL      0.128000
     33 H9          1.8110   -6.4790    3.8700 ha        1 2JL      0.108000
     34 H10        -3.1950   -4.7900    6.7200 ha        1 2JL      0.114000
     35 H11        -2.1360   -2.8870    5.4960 ha        1 2JL      0.133000
     36 H12        -0.3840   -1.9990    4.1040 ha        1 2JL      0.154000
     37 H13        -1.1230   -1.1320   -0.4810 h1        1 2JL      0.024200
     38 H14         0.0430   -2.5430   -0.4910 h1        1 2JL      0.024200
     39 H15        -0.4380   -2.4240    1.7740 h1        1 2JL      0.070700
     40 H16        -0.8360   -0.6230    1.7070 h1        1 2JL      0.070700
     41 H17         2.9430   -0.0830    3.6190 ho        1 2JL      0.410000
     42 CAT         1.9460   -2.0430    2.5790 c         1 2JL      0.498700
     43 H4         -2.2220   -9.4060    7.3090 ha        1 2JL      0.109000
     44 H5         -0.1320   -9.8120    6.0180 ha        1 2JL      0.111000
@<TRIPOS>BOND
     1    1    2 1   
     2    1   12 1   
     3    1   28 1   
     4    2   19 1   
     5    2   23 1   
     6    2   29 1   
     7    3    4 ar  
     8    3    6 ar  
     9    3   43 1   
    10    4    7 ar  
    11    4   44 1   
    12    5    8 ar  
    13    5   14 ar  
    14    5   30 1   
    15    6   15 ar  
    16    6   31 1   
    17    7   17 ar  
    18    7   32 1   
    19    8   18 ar  
    20    8   33 1   
    21    9   10 ar  
    22    9   15 ar  
    23    9   34 1   
    24   10   16 ar  
    25   10   35 1   
    26   11   14 ar  
    27   11   16 ar  
    28   11   36 1   
    29   12   13 1   
    30   12   37 1   
    31   12   38 1   
    32   13   21 1   
    33   13   39 1   
    34   13   40 1   
    35   14   42 1   
    36   15   17 ar  
    37   16   18 ar  
    38   17   18 ar  
    39   19   20 1   
    40   19   27 1   
    41   21   23 2   
    42   21   42 1   
    43   22   42 2   
    44   23   24 1   
    45   24   25 1   
    46   24   26 2   
    47   25   41 1   
@<TRIPOS>SUBSTRUCTURE
     1 2JL         1 TEMP              0 ****  ****    0 ROOT
