@<TRIPOS>MOLECULE
2JM
   21    22     1     0     0
SMALL
bcc


@<TRIPOS>ATOM
      1 C4          0.0070    0.4310    0.0880 ca        1 2JM      0.169100
      2 C5          1.4150    0.4060    0.0780 ca        1 2JM     -0.115900
      3 C6          2.0980   -0.1440    1.1670 ca        1 2JM     -0.055000
      4 C10        -2.1670   -0.1420    1.1960 cc        1 2JM     -0.002300
      5 C13        -4.2930    0.6110    0.9440 cc        1 2JM     -0.048200
      6 BR1        -5.6680    1.7640    0.5300 br        1 2JM     -0.007100
      7 C12        -4.3780   -0.7050    1.4440 cd        1 2JM     -0.053900
      8 BR2        -5.9120   -1.6230    1.8220 br        1 2JM     -0.015100
      9 C11        -3.0320   -1.1860    1.5990 cd        1 2JM     -0.081900
     10 BR3        -2.5920   -2.8680    2.1760 br        1 2JM     -0.028100
     11 N14        -2.9500    0.9460    0.8160 na        1 2JM     -0.123100
     12 C3         -0.7130   -0.1130    1.1790 ca        1 2JM     -0.060000
     13 C2          0.0020   -0.6360    2.2620 ca        1 2JM     -0.053000
     14 O2         -0.7390    0.9890   -0.9210 oh        1 2JM     -0.506100
     15 BR8         2.4080    1.0870   -1.3590 br        1 2JM     -0.078100
     16 C1          1.3960   -0.6540    2.2540 ca        1 2JM     -0.164000
     17 H1          3.2000   -0.1720    1.1690 ha        1 2JM      0.152000
     18 H2         -2.5940    1.7610    0.3760 hn        1 2JM      0.322700
     19 H3         -0.5460   -1.0370    3.1300 ha        1 2JM      0.158000
     20 H4         -0.1500    1.1920   -1.6680 ho        1 2JM      0.442000
     21 H5          1.9420   -1.0760    3.1110 ha        1 2JM      0.148000
@<TRIPOS>BOND
     1    1    2 ar  
     2    1   12 ar  
     3    1   14 1   
     4    2    3 ar  
     5    2   15 1   
     6    3   16 ar  
     7    3   17 1   
     8    4    9 2   
     9    4   11 1   
    10    4   12 1   
    11    5    6 1   
    12    5    7 2   
    13    5   11 1   
    14    7    8 1   
    15    7    9 1   
    16    9   10 1   
    17   11   18 1   
    18   12   13 ar  
    19   13   16 ar  
    20   13   19 1   
    21   14   20 1   
    22   16   21 1   
@<TRIPOS>SUBSTRUCTURE
     1 2JM         1 TEMP              0 ****  ****    0 ROOT
