@<TRIPOS>MOLECULE
2JQ
   33    34     1     0     0
SMALL
bcc


@<TRIPOS>ATOM
      1 C13        -0.1210   -1.0730    0.4290 ca        1 2JQ     -0.125000
      2 C15        -0.0320    0.8130    1.9480 ca        1 2JQ     -0.070000
      3 C17         2.0660    1.7340    2.9210 c         1 2JQ      0.910200
      4 C20        -2.2760    0.0640    1.0580 c3        1 2JQ      0.687200
      5 O01         3.9510   -1.6660    1.4470 o         1 2JQ     -0.583100
      6 C02         3.4920   -0.5200    1.2940 c         1 2JQ      0.686700
      7 N03         4.2740    0.6060    1.0560 n         1 2JQ     -0.549400
      8 C04         5.6780    0.6470    1.0490 ca        1 2JQ      0.556200
      9 C05         6.3050    1.8550    1.5070 ca        1 2JQ     -0.280300
     10 C06         7.6860    1.9490    1.4540 ca        1 2JQ     -0.080000
     11 C07         8.4340    0.8750    0.9670 ca        1 2JQ     -0.301300
     12 C08         7.7530   -0.2800    0.5380 ca        1 2JQ      0.428600
     13 C09         8.5510   -1.4360    0.0190 c3        1 2JQ     -0.142400
     14 N10         6.4050   -0.4040    0.5650 nb        1 2JQ     -0.685000
     15 C11         2.0090   -0.2870    1.2860 ca        1 2JQ     -0.105600
     16 C12         1.2600   -1.1850    0.5040 ca        1 2JQ     -0.103000
     17 C14        -0.7650   -0.0640    1.1560 ca        1 2JQ     -0.167300
     18 C16         1.3690    0.7170    2.0150 ca        1 2JQ     -0.086600
     19 O18         2.7660    2.6340    2.3690 o         1 2JQ     -0.806800
     20 O19         1.8680    1.6410    4.1570 o         1 2JQ     -0.806800
     21 F21        -2.7210    0.7550   -0.0470 f         1 2JQ     -0.249967
     22 F22        -2.9540   -1.1310    0.9750 f         1 2JQ     -0.249967
     23 F23        -2.8850    0.7090    2.1070 f         1 2JQ     -0.249967
     24 H1         -0.7090   -1.7710   -0.1830 ha        1 2JQ      0.132000
     25 H2         -0.5390    1.5900    2.5450 ha        1 2JQ      0.160000
     26 H3          3.8300    1.5050    1.2070 hn        1 2JQ      0.381500
     27 H4          5.6890    2.6770    1.9040 ha        1 2JQ      0.173000
     28 H5          8.1900    2.8620    1.8030 ha        1 2JQ      0.125000
     29 H6          9.5280    0.9250    0.9240 ha        1 2JQ      0.126000
     30 H7          8.3640   -2.3470    0.6400 hc        1 2JQ      0.044033
     31 H8          8.2650   -1.6680   -1.0360 hc        1 2JQ      0.044033
     32 H9          9.6420   -1.1960    0.0510 hc        1 2JQ      0.044033
     33 H10         1.7830   -1.9870   -0.0400 ha        1 2JQ      0.144000
@<TRIPOS>BOND
     1    1   16 ar  
     2    1   17 ar  
     3    1   24 1   
     4    2   17 ar  
     5    2   18 ar  
     6    2   25 1   
     7    3   18 1   
     8    3   19 1   
     9    3   20 1   
    10    4   17 1   
    11    4   21 1   
    12    4   22 1   
    13    4   23 1   
    14    5    6 2   
    15    6    7 1   
    16    6   15 1   
    17    7    8 1   
    18    7   26 1   
    19    8    9 ar  
    20    8   14 ar  
    21    9   10 ar  
    22    9   27 1   
    23   10   11 ar  
    24   10   28 1   
    25   11   12 ar  
    26   11   29 1   
    27   12   13 1   
    28   12   14 ar  
    29   13   30 1   
    30   13   31 1   
    31   13   32 1   
    32   15   16 ar  
    33   15   18 ar  
    34   16   33 1   
@<TRIPOS>SUBSTRUCTURE
     1 2JQ         1 TEMP              0 ****  ****    0 ROOT
