@<TRIPOS>MOLECULE
2JQ
   33    34     1     0     0
SMALL
bcc


@<TRIPOS>ATOM
      1 C13        -0.1060   -1.1890    0.5950 ca        1 2JQ     -0.125000
      2 C15        -0.0460    0.9310    1.7660 ca        1 2JQ     -0.070000
      3 C17         2.0340    2.0150    2.6000 c         1 2JQ      0.910200
      4 C20        -2.2770    0.0140    1.0140 c3        1 2JQ      0.687200
      5 O01         3.9450   -1.5840    1.7750 o         1 2JQ     -0.583100
      6 C02         3.4900   -0.4840    1.4160 c         1 2JQ      0.686700
      7 N03         4.2770    0.5860    1.0000 ns        1 2JQ     -0.549400
      8 C04         5.6810    0.6290    1.0110 ca        1 2JQ      0.556200
      9 C05         6.3000    1.8990    1.2650 ca        1 2JQ     -0.280300
     10 C06         7.6820    1.9850    1.2220 ca        1 2JQ     -0.080000
     11 C07         8.4380    0.8450    0.9420 ca        1 2JQ     -0.301300
     12 C08         7.7640   -0.3680    0.7060 ca        1 2JQ      0.428600
     13 C09         8.5710   -1.5940    0.4090 c3        1 2JQ     -0.142400
     14 N10         6.4160   -0.4890    0.7300 nb        1 2JQ     -0.685000
     15 C11         2.0080   -0.2600    1.3410 ca        1 2JQ     -0.104600
     16 C12         1.2740   -1.2810    0.7110 ca        1 2JQ     -0.103000
     17 C14        -0.7640   -0.0730    1.1270 ca        1 2JQ     -0.168300
     18 C16         1.3540    0.8540    1.8730 ca        1 2JQ     -0.087600
     19 O18         2.7470    2.8060    1.9130 o         1 2JQ     -0.807300
     20 O19         1.8090    2.1420    3.8280 o         1 2JQ     -0.807300
     21 F21        -2.8030    1.2810    1.0940 f         1 2JQ     -0.249967
     22 F22        -2.7960   -0.4760   -0.1640 f         1 2JQ     -0.249967
     23 F23        -2.9670   -0.6850    1.9770 f         1 2JQ     -0.249967
     24 H1         -0.6820   -1.9790    0.0930 ha        1 2JQ      0.132000
     25 H2         -0.5620    1.8010    2.2040 ha        1 2JQ      0.160000
     26 H3          3.8310    1.4970    0.9840 hn        1 2JQ      0.381500
     27 H4          5.6780    2.7760    1.5020 ha        1 2JQ      0.173000
     28 H5          8.1810    2.9460    1.4170 ha        1 2JQ      0.125000
     29 H6          9.5330    0.8900    0.9100 ha        1 2JQ      0.126000
     30 H7          8.3130   -1.9970   -0.6010 hc        1 2JQ      0.044033
     31 H8          8.3620   -2.3900    1.1670 hc        1 2JQ      0.044033
     32 H9          9.6610   -1.3530    0.4320 hc        1 2JQ      0.044033
     33 H10         1.8070   -2.1620    0.3210 ha        1 2JQ      0.144000
@<TRIPOS>BOND
     1    1   16 ar  
     2    1   17 ar  
     3    1   24 1   
     4    2   17 ar  
     5    2   18 ar  
     6    2   25 1   
     7    3   18 1   
     8    3   19 1   
     9    3   20 1   
    10    4   17 1   
    11    4   21 1   
    12    4   22 1   
    13    4   23 1   
    14    5    6 2   
    15    6    7 1   
    16    6   15 1   
    17    7    8 1   
    18    7   26 1   
    19    8    9 ar  
    20    8   14 ar  
    21    9   10 ar  
    22    9   27 1   
    23   10   11 ar  
    24   10   28 1   
    25   11   12 ar  
    26   11   29 1   
    27   12   13 1   
    28   12   14 ar  
    29   13   30 1   
    30   13   31 1   
    31   13   32 1   
    32   15   16 ar  
    33   15   18 ar  
    34   16   33 1   
@<TRIPOS>SUBSTRUCTURE
     1 2JQ         1 TEMP              0 ****  ****    0 ROOT
