@<TRIPOS>MOLECULE
2JQ
   33    34     1     0     0
SMALL
bcc


@<TRIPOS>ATOM
      1 C13         2.5970    0.7170    1.4510 ca        1 2JQ     -0.125000
      2 C15         2.5190    0.1370   -0.9010 ca        1 2JQ     -0.070000
      3 C17         0.4590   -0.5740   -2.1030 c         1 2JQ      0.910200
      4 C20         4.7270    0.8270    0.1150 c3        1 2JQ      0.687200
      5 O01        -1.3190   -0.8930    1.6430 o         1 2JQ     -0.583100
      6 C02        -0.9530   -0.2200    0.6630 c         1 2JQ      0.686700
      7 N03        -1.8270    0.3860   -0.2350 n         1 2JQ     -0.549400
      8 C04        -3.2270    0.2570   -0.2370 ca        1 2JQ      0.556200
      9 C05        -3.8890    0.2870   -1.5100 ca        1 2JQ     -0.280300
     10 C06        -5.2730    0.2240   -1.5400 ca        1 2JQ     -0.080000
     11 C07        -5.9880    0.1260   -0.3440 ca        1 2JQ     -0.301300
     12 C08        -5.2710    0.0990    0.8670 ca        1 2JQ      0.428600
     13 C09        -6.0330   -0.0100    2.1520 c3        1 2JQ     -0.142400
     14 N10        -3.9200    0.1690    0.9370 nb        1 2JQ     -0.685000
     15 C11         0.5040    0.0470    0.4220 ca        1 2JQ     -0.104600
     16 C12         1.2380    0.4540    1.5500 ca        1 2JQ     -0.103000
     17 C14         3.2350    0.5570    0.2140 ca        1 2JQ     -0.168300
     18 C16         1.1380   -0.1150   -0.8120 ca        1 2JQ     -0.087600
     19 O18        -0.3490    0.2270   -2.6630 o         1 2JQ     -0.807300
     20 O19         0.7750   -1.7000   -2.5560 o         1 2JQ     -0.807300
     21 F21         5.1900    1.1280   -1.1440 f         1 2JQ     -0.249967
     22 F22         5.1750    1.8800    0.8820 f         1 2JQ     -0.249967
     23 F23         5.5300   -0.2170    0.5140 f         1 2JQ     -0.249967
     24 H1          3.1720    1.0460    2.3280 ha        1 2JQ      0.132000
     25 H2          3.0220   -0.0100   -1.8710 ha        1 2JQ      0.160000
     26 H3         -1.4330    0.6790   -1.1230 hn        1 2JQ      0.381500
     27 H4         -3.2970    0.3450   -2.4370 ha        1 2JQ      0.173000
     28 H5         -5.8040    0.2410   -2.5030 ha        1 2JQ      0.125000
     29 H6         -7.0820    0.0670   -0.3460 ha        1 2JQ      0.126000
     30 H7         -5.7220   -0.9260    2.7120 hc        1 2JQ      0.044033
     31 H8         -5.8360    0.8800    2.8000 hc        1 2JQ      0.044033
     32 H9         -7.1290   -0.0680    1.9460 hc        1 2JQ      0.044033
     33 H10         0.7230    0.5510    2.5180 ha        1 2JQ      0.144000
@<TRIPOS>BOND
     1    1   16 ar  
     2    1   17 ar  
     3    1   24 1   
     4    2   17 ar  
     5    2   18 ar  
     6    2   25 1   
     7    3   18 1   
     8    3   19 1   
     9    3   20 1   
    10    4   17 1   
    11    4   21 1   
    12    4   22 1   
    13    4   23 1   
    14    5    6 2   
    15    6    7 1   
    16    6   15 1   
    17    7    8 1   
    18    7   26 1   
    19    8    9 ar  
    20    8   14 ar  
    21    9   10 ar  
    22    9   27 1   
    23   10   11 ar  
    24   10   28 1   
    25   11   12 ar  
    26   11   29 1   
    27   12   13 1   
    28   12   14 ar  
    29   13   30 1   
    30   13   31 1   
    31   13   32 1   
    32   15   16 ar  
    33   15   18 ar  
    34   16   33 1   
@<TRIPOS>SUBSTRUCTURE
     1 2JQ         1 TEMP              0 ****  ****    0 ROOT
