@<TRIPOS>MOLECULE
2JQ
   34    35     1     0     0
SMALL
bcc


@<TRIPOS>ATOM
      1 C13        -0.0700    0.1330   -0.0630 ca        1 2JQ     -0.064000
      2 C15         0.0290    0.1440    2.3590 ca        1 2JQ     -0.037000
      3 C17         2.1300   -0.1330    3.6070 c         1 2JQ      0.637700
      4 C20        -2.2120    0.4640    1.2350 c3        1 2JQ      0.689200
      5 O01         4.0190   -1.4820    1.3090 o         1 2JQ     -0.547100
      6 C02         3.5330   -0.3950    0.9580 c         1 2JQ      0.678700
      7 N03         4.2530    0.6400    0.3830 n         1 2JQ     -0.550400
      8 C04         5.6650    0.7380    0.3250 ca        1 2JQ      0.529200
      9 C05         6.2310    1.5380   -0.7110 ca        1 2JQ     -0.281300
     10 C06         7.6160    1.6490   -0.7760 ca        1 2JQ     -0.068000
     11 C07         8.4050    0.9830    0.1590 ca        1 2JQ     -0.266300
     12 C08         7.7720    0.2140    1.1610 ca        1 2JQ      0.447600
     13 C09         8.6160   -0.4980    2.1700 c3        1 2JQ     -0.152400
     14 N10         6.4270    0.0950    1.2550 nb        1 2JQ     -0.668000
     15 C11         2.0540   -0.1510    1.0660 ca        1 2JQ     -0.093600
     16 C12         1.3100   -0.0510   -0.1150 ca        1 2JQ     -0.120000
     17 C14        -0.7040    0.2340    1.1770 ca        1 2JQ     -0.160300
     18 C16         1.4150   -0.0630    2.3090 ca        1 2JQ     -0.134600
     19 O18         2.0310    0.7000    4.5110 o         1 2JQ     -0.480000
     20 O19         2.9200   -1.1940    3.9120 oh        1 2JQ     -0.562100
     21 F21        -2.5740    1.7890    1.1930 f         1 2JQ     -0.230300
     22 F22        -2.9100   -0.1090    0.2000 f         1 2JQ     -0.230300
     23 F23        -2.8190   -0.0210    2.3660 f         1 2JQ     -0.230300
     24 H1         -0.6600    0.1970   -0.9920 ha        1 2JQ      0.163000
     25 H2         -0.4740    0.2380    3.3380 ha        1 2JQ      0.178000
     26 H3          3.7600    1.4570    0.1000 hn        1 2JQ      0.330500
     27 H4          5.5950    2.0540   -1.4430 ha        1 2JQ      0.143000
     28 H5          8.0820    2.2580   -1.5650 ha        1 2JQ      0.142000
     29 H6          9.5000    1.0510    0.1240 ha        1 2JQ      0.148000
     30 H7          8.4460   -1.6020    2.1080 hc        1 2JQ      0.059033
     31 H8          8.3550   -0.1630    3.2050 hc        1 2JQ      0.059033
     32 H9          9.6970   -0.2880    1.9850 hc        1 2JQ      0.059033
     33 H10         1.8150   -0.1320   -1.0910 ha        1 2JQ      0.157000
     34 H032        3.0250   -1.7840    3.1470 ho        1 2JQ      0.458000
@<TRIPOS>BOND
     1    1   16 ar  
     2    1   17 ar  
     3    1   24 1   
     4    2   17 ar  
     5    2   18 ar  
     6    2   25 1   
     7    3   18 1   
     8    3   19 2   
     9    3   20 1   
    10    4   17 1   
    11    4   21 1   
    12    4   22 1   
    13    4   23 1   
    14    5    6 2   
    15    6    7 1   
    16    6   15 1   
    17    7    8 1   
    18    7   26 1   
    19    8    9 ar  
    20    8   14 ar  
    21    9   10 ar  
    22    9   27 1   
    23   10   11 ar  
    24   10   28 1   
    25   11   12 ar  
    26   11   29 1   
    27   12   13 1   
    28   12   14 ar  
    29   13   30 1   
    30   13   31 1   
    31   13   32 1   
    32   15   16 ar  
    33   15   18 ar  
    34   16   33 1   
    35   20   34 1   
@<TRIPOS>SUBSTRUCTURE
     1 2JQ         1 TEMP              0 ****  ****    0 ROOT
