@<TRIPOS>MOLECULE
2JQ
   33    27     1     0     0
SMALL
bcc


@<TRIPOS>ATOM
      1 C13        -3.6350    1.3060    0.6080 c1        1 2JQ     -0.129000
      2 C15        -3.5540   -0.6690   -0.7540 c1        1 2JQ     -0.071000
      3 C17        -1.7150   -1.3040   -2.0820 c1        1 2JQ      0.357000
      4 C20        -5.7870    0.1180    0.0870 c3        1 2JQ      0.465000
      5 O01         0.5150    1.1690   -1.2310 o         1 2JQ     -0.394000
      6 C02        -0.0210    0.6160   -0.2920 c1        1 2JQ      0.366000
      7 N03         0.7680    0.0700    0.7540 n3        1 2JQ     -0.306000
      8 C04         2.1830    0.1700    0.7030 c2        1 2JQ      0.154000
      9 C05         2.8230    1.2440    1.3000 c2        1 2JQ     -0.202000
     10 C06         4.1860    1.3100    1.3020 c1        1 2JQ     -0.082000
     11 C07         4.9170    0.3180    0.7170 c1        1 2JQ     -0.234000
     12 C08         4.2750   -0.7550    0.1200 c1        1 2JQ      0.010000
     13 C09         5.0850   -1.8740   -0.4950 c3        1 2JQ     -0.167000
     14 N10         2.9140   -0.8200    0.1180 n1        1 2JQ     -0.178000
     15 C11        -1.5310    0.5140   -0.2340 c1        1 2JQ     -0.088000
     16 C12        -2.2590    1.4370    0.5000 c1        1 2JQ     -0.100000
     17 C14        -4.2820    0.2530   -0.0190 c1        1 2JQ     -0.157000
     18 C16        -2.1780   -0.5390   -0.8610 c1        1 2JQ     -0.060000
     19 O18        -1.9840   -0.8730   -3.2340 o         1 2JQ     -0.515000
     20 O19        -1.0420   -2.3590   -1.9460 os        1 2JQ     -0.556000
     21 F21        -6.3690    0.8250   -0.8910 f         1 2JQ     -0.178000
     22 F22        -6.1930    0.5830    1.2760 f         1 2JQ     -0.178000
     23 F23        -6.1290   -1.1710   -0.0290 f         1 2JQ     -0.178000
     24 H1         -4.1480    1.9560    1.1250 ha        1 2JQ      0.132000
     25 H2         -4.0100   -1.4110   -1.1950 ha        1 2JQ      0.161000
     26 H3          0.3650   -0.3440    1.4600 hn        1 2JQ      0.309000
     27 H4          2.3000    1.9570    1.7100 ha        1 2JQ      0.176000
     28 H5          4.6380    2.0660    1.7230 ha        1 2JQ      0.124000
     29 H6          5.8910    0.3690    0.7090 ha        1 2JQ      0.126000
     30 H7          5.6240   -1.5190   -1.2330 hc        1 2JQ      0.084333
     31 H8          5.6760   -2.2610    0.1840 hc        1 2JQ      0.084333
     32 H9          4.4810   -2.5660   -0.8360 hc        1 2JQ      0.084333
     33 H10        -1.8040    2.1830    0.9350 ha        1 2JQ      0.143000
@<TRIPOS>BOND
     1    1   17 1   
     2    1   24 1   
     3    2   18 1   
     4    2   25 1   
     5    3   18 1   
     6    3   19 1   
     7    4   17 1   
     8    4   21 1   
     9    4   22 1   
    10    4   23 1   
    11    5    6 1   
    12    6    7 1   
    13    7    8 1   
    14    7   26 1   
    15    8    9 1   
    16    8   14 1   
    17    9   10 1   
    18    9   27 1   
    19   10   28 1   
    20   11   12 1   
    21   11   29 1   
    22   12   13 1   
    23   13   30 1   
    24   13   31 1   
    25   13   32 1   
    26   15   16 1   
    27   16   33 1   
@<TRIPOS>SUBSTRUCTURE
     1 2JQ         1 TEMP              0 ****  ****    0 ROOT
