@<TRIPOS>MOLECULE
2JR
   50    54     1     0     0
SMALL
bcc


@<TRIPOS>ATOM
      1 CAH        -0.1240   -0.1290   -0.1110 c3        1 2JR     -0.062400
      2 CAI         1.3780    0.0490   -0.1160 c3        1 2JR     -0.072400
      3 CAJ         1.9290    0.1530    1.2900 c3        1 2JR     -0.073400
      4 CAT         1.5160   -1.0360    2.1310 c3        1 2JR     -0.072400
      5 CAS         0.0130   -1.2150    2.1380 c3        1 2JR     -0.062400
      6 CAR        -0.5720   -1.3760    0.7050 c3        1 2JR      0.294500
      7 NAU        -0.0590   -2.5990    0.0830 n3        1 2JR     -0.741600
      8 CAV        -0.2750   -3.8440    0.8160 c3        1 2JR      0.164800
      9 CAY        -0.3930   -4.9900   -0.2030 c3        1 2JR     -0.087400
     10 CAX        -0.4800   -4.3280   -1.5730 c3        1 2JR     -0.087400
     11 CAW        -0.4090   -2.8130   -1.3190 c3        1 2JR      0.164800
     12 CAQ        -2.0750   -1.3020    0.8330 cc        1 2JR     -0.221700
     13 SAP        -3.1900   -2.4650    0.3390 ss        1 2JR     -0.106300
     14 CAG        -2.7590   -0.2250    1.3950 cd        1 2JR      0.330200
     15 NAF        -4.1350   -0.3300    1.4310 nd        1 2JR     -0.639000
     16 CAO        -4.5110   -1.4970    0.8910 cc        1 2JR      0.460900
     17 CAN        -5.8810   -1.9600    0.7470 ca        1 2JR     -0.167500
     18 CAM        -6.9520   -1.0820    0.9210 ca        1 2JR     -0.029000
     19 CAL        -8.2510   -1.5640    0.7670 ca        1 2JR     -0.105800
     20 CAK        -9.5610   -0.9590    0.8680 cc        1 2JR     -0.177200
     21 CAA       -10.4940   -1.9560    0.6050 cd        1 2JR     -0.111100
     22 NAB        -9.8430   -3.1670    0.3400 na        1 2JR     -0.192400
     23 CAC        -8.4680   -2.9550    0.4340 ca        1 2JR     -0.038200
     24 CAD        -7.3830   -3.8320    0.2640 ca        1 2JR     -0.146000
     25 CAE        -6.1090   -3.3200    0.4240 ca        1 2JR     -0.104000
     26 H1         -0.5020   -0.2060   -1.1620 hc        1 2JR      0.044700
     27 H2         -0.6030    0.7720    0.3560 hc        1 2JR      0.044700
     28 H3          1.6320    0.9810   -0.6860 hc        1 2JR      0.044700
     29 H4          1.8630   -0.8120   -0.6460 hc        1 2JR      0.044700
     30 H5          1.5570    1.0970    1.7690 hc        1 2JR      0.036200
     31 H6          3.0480    0.2140    1.2520 hc        1 2JR      0.036200
     32 H7          1.8690   -0.8890    3.1860 hc        1 2JR      0.044700
     33 H8          2.0100   -1.9640    1.7380 hc        1 2JR      0.044700
     34 H9         -0.4650   -0.3120    2.6010 hc        1 2JR      0.044700
     35 H10        -0.2620   -2.1020    2.7640 hc        1 2JR      0.044700
     36 H12         0.6100   -3.9970    1.4920 h1        1 2JR      0.041950
     37 H13        -1.2000   -3.8070    1.4590 h1        1 2JR      0.041950
     38 H14         0.4990   -5.6590   -0.1390 hc        1 2JR      0.047450
     39 H15        -1.3000   -5.6070    0.0090 hc        1 2JR      0.047450
     40 H16        -1.4330   -4.5910   -2.0920 hc        1 2JR      0.047450
     41 H17         0.3670   -4.6520   -2.2270 hc        1 2JR      0.047450
     42 H18        -1.3910   -2.3330   -1.5940 h1        1 2JR      0.041950
     43 H19         0.3950   -2.3380   -1.9450 h1        1 2JR      0.041950
     44 H20        -2.3030    0.6840    1.8070 h4        1 2JR      0.042100
     45 H21        -6.7850   -0.0240    1.1750 ha        1 2JR      0.158000
     46 H22        -9.7640    0.0810    1.1050 ha        1 2JR      0.160000
     47 H23       -11.5840   -1.9010    0.5840 h4        1 2JR      0.166000
     48 H24       -10.2780   -4.0250    0.1310 hn        1 2JR      0.298700
     49 H25        -7.5420   -4.8890    0.0140 ha        1 2JR      0.135000
     50 H26        -5.2430   -3.9910    0.3000 ha        1 2JR      0.131000
@<TRIPOS>BOND
     1    1    2 1   
     2    1    6 1   
     3    1   26 1   
     4    1   27 1   
     5    2    3 1   
     6    2   28 1   
     7    2   29 1   
     8    3    4 1   
     9    3   30 1   
    10    3   31 1   
    11    4    5 1   
    12    4   32 1   
    13    4   33 1   
    14    5    6 1   
    15    5   34 1   
    16    5   35 1   
    17    6    7 1   
    18    6   12 1   
    19    7    8 1   
    20    7   11 1   
    21    8    9 1   
    22    8   36 1   
    23    8   37 1   
    24    9   10 1   
    25    9   38 1   
    26    9   39 1   
    27   10   11 1   
    28   10   40 1   
    29   10   41 1   
    30   11   42 1   
    31   11   43 1   
    32   12   13 1   
    33   12   14 2   
    34   13   16 1   
    35   14   15 1   
    36   14   44 1   
    37   15   16 2   
    38   16   17 1   
    39   17   18 ar  
    40   17   25 ar  
    41   18   19 ar  
    42   18   45 1   
    43   19   20 1   
    44   19   23 ar  
    45   20   21 2   
    46   20   46 1   
    47   21   22 1   
    48   21   47 1   
    49   22   23 1   
    50   22   48 1   
    51   23   24 ar  
    52   24   25 ar  
    53   24   49 1   
    54   25   50 1   
@<TRIPOS>SUBSTRUCTURE
     1 2JR         1 TEMP              0 ****  ****    0 ROOT
