@<TRIPOS>MOLECULE
2JR
   50    54     1     0     0
SMALL
bcc


@<TRIPOS>ATOM
      1 CAH        -0.1260   -0.1280   -0.1140 c3        1 2JR     -0.062400
      2 CAI         1.3760    0.0510   -0.1200 c3        1 2JR     -0.072400
      3 CAJ         1.9280    0.1570    1.2860 c3        1 2JR     -0.073400
      4 CAT         1.5160   -1.0320    2.1280 c3        1 2JR     -0.072400
      5 CAS         0.0140   -1.2120    2.1350 c3        1 2JR     -0.062400
      6 CAR        -0.5720   -1.3740    0.7040 c3        1 2JR      0.294500
      7 NAU        -0.0590   -2.5980    0.0820 n3        1 2JR     -0.741600
      8 CAV        -0.2740   -3.8420    0.8160 c3        1 2JR      0.164800
      9 CAY        -0.3920   -4.9890   -0.2010 c3        1 2JR     -0.087400
     10 CAX        -0.4800   -4.3290   -1.5720 c3        1 2JR     -0.087400
     11 CAW        -0.4090   -2.8130   -1.3200 c3        1 2JR      0.164800
     12 CAQ        -2.0750   -1.3010    0.8320 cc        1 2JR     -0.221700
     13 SAP        -3.1900   -2.4650    0.3390 ss        1 2JR     -0.106300
     14 CAG        -2.7600   -0.2240    1.3940 cd        1 2JR      0.330200
     15 NAF        -4.1350   -0.3300    1.4300 nd        1 2JR     -0.639000
     16 CAO        -4.5110   -1.4980    0.8910 cc        1 2JR      0.460900
     17 CAN        -5.8810   -1.9610    0.7490 ca        1 2JR     -0.167500
     18 CAM        -6.9520   -1.0840    0.9240 ca        1 2JR     -0.029000
     19 CAL        -8.2510   -1.5670    0.7710 ca        1 2JR     -0.105800
     20 CAK        -9.5610   -0.9630    0.8740 cc        1 2JR     -0.177200
     21 CAA       -10.4940   -1.9610    0.6110 cd        1 2JR     -0.111100
     22 NAB        -9.8430   -3.1710    0.3440 na        1 2JR     -0.192400
     23 CAC        -8.4680   -2.9580    0.4370 ca        1 2JR     -0.038200
     24 CAD        -7.3820   -3.8340    0.2660 ca        1 2JR     -0.146000
     25 CAE        -6.1090   -3.3220    0.4250 ca        1 2JR     -0.104000
     26 H1         -0.5040   -0.2060   -1.1650 hc        1 2JR      0.044700
     27 H2         -0.6040    0.7730    0.3520 hc        1 2JR      0.044700
     28 H3          1.6290    0.9830   -0.6920 hc        1 2JR      0.044700
     29 H4          1.8620   -0.8100   -0.6500 hc        1 2JR      0.044700
     30 H5          3.0470    0.2190    1.2460 hc        1 2JR      0.036200
     31 H6          1.5560    1.1010    1.7640 hc        1 2JR      0.036200
     32 H7          1.8700   -0.8830    3.1820 hc        1 2JR      0.044700
     33 H8          2.0100   -1.9590    1.7350 hc        1 2JR      0.044700
     34 H9         -0.2600   -2.0990    2.7620 hc        1 2JR      0.044700
     35 H10        -0.4650   -0.3090    2.5980 hc        1 2JR      0.044700
     36 H12         0.6120   -3.9940    1.4920 h1        1 2JR      0.041950
     37 H13        -1.1990   -3.8050    1.4600 h1        1 2JR      0.041950
     38 H14         0.5010   -5.6570   -0.1370 hc        1 2JR      0.047450
     39 H15        -1.2980   -5.6060    0.0120 hc        1 2JR      0.047450
     40 H16         0.3660   -4.6530   -2.2260 hc        1 2JR      0.047450
     41 H17        -1.4330   -4.5930   -2.0900 hc        1 2JR      0.047450
     42 H18         0.3940   -2.3390   -1.9470 h1        1 2JR      0.041950
     43 H19        -1.3920   -2.3340   -1.5940 h1        1 2JR      0.041950
     44 H20        -2.3040    0.6850    1.8040 h4        1 2JR      0.042100
     45 H21        -6.7850   -0.0270    1.1790 ha        1 2JR      0.159000
     46 H22        -9.7650    0.0760    1.1120 ha        1 2JR      0.160000
     47 H23       -11.5840   -1.9070    0.5910 h4        1 2JR      0.166000
     48 H24       -10.2770   -4.0290    0.1360 hn        1 2JR      0.298700
     49 H25        -7.5410   -4.8910    0.0150 ha        1 2JR      0.135000
     50 H26        -5.2420   -3.9920    0.3000 ha        1 2JR      0.131000
@<TRIPOS>BOND
     1    1    2 1   
     2    1    6 1   
     3    1   26 1   
     4    1   27 1   
     5    2    3 1   
     6    2   28 1   
     7    2   29 1   
     8    3    4 1   
     9    3   30 1   
    10    3   31 1   
    11    4    5 1   
    12    4   32 1   
    13    4   33 1   
    14    5    6 1   
    15    5   34 1   
    16    5   35 1   
    17    6    7 1   
    18    6   12 1   
    19    7    8 1   
    20    7   11 1   
    21    8    9 1   
    22    8   36 1   
    23    8   37 1   
    24    9   10 1   
    25    9   38 1   
    26    9   39 1   
    27   10   11 1   
    28   10   40 1   
    29   10   41 1   
    30   11   42 1   
    31   11   43 1   
    32   12   13 1   
    33   12   14 2   
    34   13   16 1   
    35   14   15 1   
    36   14   44 1   
    37   15   16 2   
    38   16   17 1   
    39   17   18 ar  
    40   17   25 ar  
    41   18   19 ar  
    42   18   45 1   
    43   19   20 1   
    44   19   23 ar  
    45   20   21 2   
    46   20   46 1   
    47   21   22 1   
    48   21   47 1   
    49   22   23 1   
    50   22   48 1   
    51   23   24 ar  
    52   24   25 ar  
    53   24   49 1   
    54   25   50 1   
@<TRIPOS>SUBSTRUCTURE
     1 2JR         1 TEMP              0 ****  ****    0 ROOT
