@<TRIPOS>MOLECULE
2JT
   67    66     1     0     0
SMALL
bcc


@<TRIPOS>ATOM
      1 C10        -0.1040    0.2520   -0.1890 c3        1 2JT     -0.079400
      2 C13        -2.6170    0.3160    2.7160 c3        1 2JT     -0.079400
      3 C15        -4.6250    0.2390    4.2020 c3        1 2JT     -0.079400
      4 C17        -6.6320    0.1610    5.6890 c3        1 2JT     -0.079400
      5 C20       -10.1350   -0.1390    7.2440 c3        1 2JT     -0.079400
      6 C21       -10.6470    0.0050    8.6620 c3        1 2JT     -0.079400
      7 C22       -12.1430   -0.2170    8.7310 c3        1 2JT     -0.079400
      8 C24       -14.1510   -0.2940   10.2190 c3        1 2JT     -0.080400
      9 O01         1.3340    0.8770   -2.6780 o         1 2JT     -0.541000
     10 C02         1.8850    0.4550   -1.6610 c         1 2JT      0.644100
     11 O03         3.1340   -0.0990   -1.7780 os        1 2JT     -0.449900
     12 C04         3.7550   -0.0810   -3.0750 c3        1 2JT      0.067100
     13 C05         4.3330    1.3040   -3.3690 c3        1 2JT      0.122400
     14 O06         5.1520    1.7980   -2.3360 oh        1 2JT     -0.601300
     15 C07         4.8230   -1.1760   -3.0140 c3        1 2JT      0.122400
     16 O08         5.7680   -0.9470   -1.9890 oh        1 2JT     -0.601300
     17 C09         1.3950    0.4550   -0.2460 c3        1 2JT     -0.126400
     18 C11        -0.6100    0.3930    1.2300 c3        1 2JT     -0.079400
     19 C12        -2.1060    0.1720    1.2980 c3        1 2JT     -0.079400
     20 C14        -4.1130    0.0950    2.7850 c3        1 2JT     -0.079400
     21 C16        -6.1200    0.0170    4.2710 c3        1 2JT     -0.079400
     22 C18        -8.1280   -0.0610    5.7580 c3        1 2JT     -0.079400
     23 C19        -8.6390    0.0830    7.1750 c3        1 2JT     -0.079400
     24 C23       -12.6550   -0.0730   10.1480 c3        1 2JT     -0.079400
     25 C25       -14.6650   -0.1520   11.6280 c3        1 2JT     -0.092100
     26 H1         -0.6090    1.0020   -0.8540 hc        1 2JT      0.057700
     27 H2         -0.3610   -0.7660   -0.5850 hc        1 2JT      0.057700
     28 H3         -2.3710    1.3400    3.1020 hc        1 2JT      0.040200
     29 H4         -2.0960   -0.4220    3.3810 hc        1 2JT      0.040200
     30 H5         -4.1040   -0.4990    4.8670 hc        1 2JT      0.039700
     31 H6         -4.3780    1.2630    4.5880 hc        1 2JT      0.039700
     32 H7         -6.1110   -0.5770    6.3540 hc        1 2JT      0.039700
     33 H8         -6.3850    1.1850    6.0750 hc        1 2JT      0.039700
     34 H9        -10.3820   -1.1630    6.8580 hc        1 2JT      0.039700
     35 H10       -10.6560    0.6000    6.5790 hc        1 2JT      0.039700
     36 H11       -10.4000    1.0290    9.0480 hc        1 2JT      0.039700
     37 H12       -10.1260   -0.7330    9.3260 hc        1 2JT      0.039700
     38 H13       -12.3890   -1.2410    8.3440 hc        1 2JT      0.039700
     39 H14       -12.6640    0.5220    8.0660 hc        1 2JT      0.039700
     40 H15       -14.3950   -1.3180    9.8300 hc        1 2JT      0.038700
     41 H16       -14.6690    0.4440    9.5520 hc        1 2JT      0.038700
     42 H17         2.9900   -0.3350   -3.8610 h1        1 2JT      0.081700
     43 H18         4.9010    1.2570   -4.3370 h1        1 2JT      0.058200
     44 H19         3.4950    2.0500   -3.4510 h1        1 2JT      0.058200
     45 H20         5.8870    1.1790   -2.2220 ho        1 2JT      0.418000
     46 H21         4.3320   -2.1740   -2.8680 h1        1 2JT      0.058200
     47 H22         5.4180   -1.1750   -3.9660 h1        1 2JT      0.058200
     48 H23         5.2790   -0.8850   -1.1580 ho        1 2JT      0.418000
     49 H24         1.6740    1.4480    0.2010 hc        1 2JT      0.080700
     50 H25         1.9250   -0.3430    0.3370 hc        1 2JT      0.080700
     51 H26        -0.0890   -0.3480    1.8930 hc        1 2JT      0.041700
     52 H27        -0.3630    1.4160    1.6190 hc        1 2JT      0.041700
     53 H28        -2.6260    0.9110    0.6330 hc        1 2JT      0.042700
     54 H29        -2.3530   -0.8520    0.9120 hc        1 2JT      0.042700
     55 H30        -4.6340    0.8330    2.1200 hc        1 2JT      0.040200
     56 H31        -4.3600   -0.9290    2.3980 hc        1 2JT      0.040200
     57 H32        -6.6410    0.7550    3.6060 hc        1 2JT      0.039700
     58 H33        -6.3670   -1.0070    3.8850 hc        1 2JT      0.039700
     59 H34        -8.3740   -1.0850    5.3710 hc        1 2JT      0.039700
     60 H35        -8.6490    0.6780    5.0930 hc        1 2JT      0.039700
     61 H36        -8.3930    1.1070    7.5620 hc        1 2JT      0.039700
     62 H37        -8.1180   -0.6550    7.8400 hc        1 2JT      0.039700
     63 H38       -12.4080    0.9510   10.5350 hc        1 2JT      0.039700
     64 H39       -12.1340   -0.8110   10.8130 hc        1 2JT      0.039700
     65 H40       -14.1770   -0.8970   12.3030 hc        1 2JT      0.032700
     66 H41       -15.7680   -0.3190   11.6570 hc        1 2JT      0.032700
     67 H42       -14.4520    0.8700   12.0240 hc        1 2JT      0.032700
@<TRIPOS>BOND
     1    1   17 1   
     2    1   18 1   
     3    1   26 1   
     4    1   27 1   
     5    2   19 1   
     6    2   20 1   
     7    2   28 1   
     8    2   29 1   
     9    3   20 1   
    10    3   21 1   
    11    3   30 1   
    12    3   31 1   
    13    4   21 1   
    14    4   22 1   
    15    4   32 1   
    16    4   33 1   
    17    5    6 1   
    18    5   23 1   
    19    5   34 1   
    20    5   35 1   
    21    6    7 1   
    22    6   36 1   
    23    6   37 1   
    24    7   24 1   
    25    7   38 1   
    26    7   39 1   
    27    8   24 1   
    28    8   25 1   
    29    8   40 1   
    30    8   41 1   
    31    9   10 2   
    32   10   11 1   
    33   10   17 1   
    34   11   12 1   
    35   12   13 1   
    36   12   15 1   
    37   12   42 1   
    38   13   14 1   
    39   13   43 1   
    40   13   44 1   
    41   14   45 1   
    42   15   16 1   
    43   15   46 1   
    44   15   47 1   
    45   16   48 1   
    46   17   49 1   
    47   17   50 1   
    48   18   19 1   
    49   18   51 1   
    50   18   52 1   
    51   19   53 1   
    52   19   54 1   
    53   20   55 1   
    54   20   56 1   
    55   21   57 1   
    56   21   58 1   
    57   22   23 1   
    58   22   59 1   
    59   22   60 1   
    60   23   61 1   
    61   23   62 1   
    62   24   63 1   
    63   24   64 1   
    64   25   65 1   
    65   25   66 1   
    66   25   67 1   
@<TRIPOS>SUBSTRUCTURE
     1 2JT         1 TEMP              0 ****  ****    0 ROOT
