@<TRIPOS>MOLECULE
2JT
   67    66     1     0     0
SMALL
bcc


@<TRIPOS>ATOM
      1 C10        -0.1030    0.2630   -0.1880 c3        1 2JT     -0.079400
      2 C13        -2.6130    0.3060    2.7200 c3        1 2JT     -0.079400
      3 C15        -4.6210    0.2290    4.2070 c3        1 2JT     -0.079400
      4 C17        -6.6290    0.1520    5.6920 c3        1 2JT     -0.079400
      5 C20       -10.1360   -0.1220    7.2440 c3        1 2JT     -0.079400
      6 C21       -10.6450   -0.0020    8.6640 c3        1 2JT     -0.079400
      7 C22       -12.1440   -0.1980    8.7290 c3        1 2JT     -0.079400
      8 C24       -14.1530   -0.2750   10.2160 c3        1 2JT     -0.080400
      9 O01         1.3440    0.9190   -2.6640 o         1 2JT     -0.541000
     10 C02         1.8880    0.4650   -1.6570 c         1 2JT      0.644100
     11 O03         3.1260   -0.1090   -1.7880 os        1 2JT     -0.449900
     12 C04         3.7460   -0.0750   -3.0850 c3        1 2JT      0.067100
     13 C05         4.3490    1.3050   -3.3500 c3        1 2JT      0.122400
     14 O06         5.1790    1.7620   -2.3070 oh        1 2JT     -0.601300
     15 C07         4.7940   -1.1900   -3.0500 c3        1 2JT      0.122400
     16 O08         5.7440   -1.0020   -2.0220 oh        1 2JT     -0.601300
     17 C09         1.3990    0.4430   -0.2420 c3        1 2JT     -0.126400
     18 C11        -0.6060    0.3820    1.2350 c3        1 2JT     -0.079400
     19 C12        -2.1060    0.1840    1.3000 c3        1 2JT     -0.079400
     20 C14        -4.1120    0.1080    2.7860 c3        1 2JT     -0.079400
     21 C16        -6.1200    0.0320    4.2720 c3        1 2JT     -0.079400
     22 C18        -8.1280   -0.0450    5.7580 c3        1 2JT     -0.079400
     23 C19        -8.6370    0.0750    7.1780 c3        1 2JT     -0.079400
     24 C23       -12.6530   -0.0790   10.1490 c3        1 2JT     -0.079400
     25 C25       -14.6650   -0.1570   11.6280 c3        1 2JT     -0.092100
     26 H1         -0.5960    1.0360   -0.8360 hc        1 2JT      0.057700
     27 H2         -0.3780   -0.7410   -0.6050 hc        1 2JT      0.057700
     28 H3         -2.3490    1.3170    3.1290 hc        1 2JT      0.040200
     29 H4         -2.1040   -0.4560    3.3690 hc        1 2JT      0.040200
     30 H5         -4.1120   -0.5330    4.8540 hc        1 2JT      0.039700
     31 H6         -4.3560    1.2400    4.6160 hc        1 2JT      0.039700
     32 H7         -6.1200   -0.6100    6.3400 hc        1 2JT      0.039700
     33 H8         -6.3640    1.1630    6.1020 hc        1 2JT      0.039700
     34 H9        -10.4010   -1.1320    6.8330 hc        1 2JT      0.039700
     35 H10       -10.6440    0.6410    6.5960 hc        1 2JT      0.039700
     36 H11       -10.3800    1.0080    9.0750 hc        1 2JT      0.039700
     37 H12       -10.1370   -0.7650    9.3110 hc        1 2JT      0.039700
     38 H13       -12.4090   -1.2080    8.3180 hc        1 2JT      0.039700
     39 H14       -12.6520    0.5650    8.0820 hc        1 2JT      0.039700
     40 H15       -14.4160   -1.2840    9.8030 hc        1 2JT      0.038700
     41 H16       -14.6590    0.4890    9.5670 hc        1 2JT      0.038700
     42 H17         2.9760   -0.2960   -3.8750 h1        1 2JT      0.081700
     43 H18         4.9160    1.2690   -4.3190 h1        1 2JT      0.058200
     44 H19         3.5260    2.0690   -3.4140 h1        1 2JT      0.058200
     45 H20         5.9020    1.1260   -2.2070 ho        1 2JT      0.418000
     46 H21         4.2840   -2.1820   -2.9250 h1        1 2JT      0.058200
     47 H22         5.3870   -1.1800   -4.0020 h1        1 2JT      0.058200
     48 H23         5.2560   -0.9490   -1.1880 ho        1 2JT      0.418000
     49 H24         1.6940    1.4210    0.2260 hc        1 2JT      0.080700
     50 H25         1.9160   -0.3770    0.3240 hc        1 2JT      0.080700
     51 H26        -0.0980   -0.3820    1.8800 hc        1 2JT      0.041700
     52 H27        -0.3420    1.3920    1.6460 hc        1 2JT      0.041700
     53 H28        -2.6130    0.9470    0.6520 hc        1 2JT      0.042700
     54 H29        -2.3700   -0.8260    0.8910 hc        1 2JT      0.042700
     55 H30        -4.6210    0.8700    2.1380 hc        1 2JT      0.040200
     56 H31        -4.3770   -0.9020    2.3770 hc        1 2JT      0.040200
     57 H32        -6.6280    0.7940    3.6240 hc        1 2JT      0.039700
     58 H33        -6.3840   -0.9790    3.8620 hc        1 2JT      0.039700
     59 H34        -8.3930   -1.0550    5.3480 hc        1 2JT      0.039700
     60 H35        -8.6360    0.7180    5.1110 hc        1 2JT      0.039700
     61 H36        -8.3720    1.0850    7.5890 hc        1 2JT      0.039700
     62 H37        -8.1290   -0.6880    7.8260 hc        1 2JT      0.039700
     63 H38       -12.3880    0.9310   10.5600 hc        1 2JT      0.039700
     64 H39       -12.1460   -0.8420   10.7960 hc        1 2JT      0.039700
     65 H40       -14.1910   -0.9260   12.2850 hc        1 2JT      0.032700
     66 H41       -15.7710   -0.3040   11.6540 hc        1 2JT      0.032700
     67 H42       -14.4330    0.8520   12.0480 hc        1 2JT      0.032700
@<TRIPOS>BOND
     1    1   17 1   
     2    1   18 1   
     3    1   26 1   
     4    1   27 1   
     5    2   19 1   
     6    2   20 1   
     7    2   28 1   
     8    2   29 1   
     9    3   20 1   
    10    3   21 1   
    11    3   30 1   
    12    3   31 1   
    13    4   21 1   
    14    4   22 1   
    15    4   32 1   
    16    4   33 1   
    17    5    6 1   
    18    5   23 1   
    19    5   34 1   
    20    5   35 1   
    21    6    7 1   
    22    6   36 1   
    23    6   37 1   
    24    7   24 1   
    25    7   38 1   
    26    7   39 1   
    27    8   24 1   
    28    8   25 1   
    29    8   40 1   
    30    8   41 1   
    31    9   10 2   
    32   10   11 1   
    33   10   17 1   
    34   11   12 1   
    35   12   13 1   
    36   12   15 1   
    37   12   42 1   
    38   13   14 1   
    39   13   43 1   
    40   13   44 1   
    41   14   45 1   
    42   15   16 1   
    43   15   46 1   
    44   15   47 1   
    45   16   48 1   
    46   17   49 1   
    47   17   50 1   
    48   18   19 1   
    49   18   51 1   
    50   18   52 1   
    51   19   53 1   
    52   19   54 1   
    53   20   55 1   
    54   20   56 1   
    55   21   57 1   
    56   21   58 1   
    57   22   23 1   
    58   22   59 1   
    59   22   60 1   
    60   23   61 1   
    61   23   62 1   
    62   24   63 1   
    63   24   64 1   
    64   25   65 1   
    65   25   66 1   
    66   25   67 1   
@<TRIPOS>SUBSTRUCTURE
     1 2JT         1 TEMP              0 ****  ****    0 ROOT
