@<TRIPOS>MOLECULE
2JU
   54    49     1     0     0
SMALL
bcc


@<TRIPOS>ATOM
      1 P           1.0040    6.5080    0.3800 p3        1 2JU      2.542000
      2 O1P         2.4160    6.6140   -0.1430 o         1 2JU     -1.253667
      3 O2P         1.0300    6.4270    1.8880 o         1 2JU     -1.253667
      4 O5'         0.3210    5.2090   -0.2050 o         1 2JU     -0.716000
      5 C5'        -0.8900    4.7700    0.3680 c3        1 2JU      0.087000
      6 C4'        -2.0130    5.1660   -0.4960 c3        1 2JU     -0.060000
      7 C3'        -3.1350    4.6020   -0.0730 c3        1 2JU      0.043000
      8 C2'        -3.2430    3.2680   -0.8770 c3        1 2JU     -0.214000
      9 C1'        -2.1480    3.3740   -2.0330 c3        1 2JU      0.148000
     10 O4'        -1.7710    4.6170   -2.0310 os        1 2JU     -0.289000
     11 N1         -1.0510    2.5260   -1.7480 n         1 2JU     -0.262000
     12 C6         -1.2690    1.2670   -1.1320 c2        1 2JU      0.111000
     13 C5         -0.1340    0.3750   -0.8660 c1        1 2JU     -0.319000
     14 C4          1.2200    0.7760   -1.2690 c1        1 2JU      0.380000
     15 O4          2.1460    0.0020   -1.1390 o         1 2JU     -0.351000
     16 N3          1.4350    2.0450   -1.8630 n2        1 2JU     -0.379000
     17 C2          0.2990    2.9210   -2.1490 c2        1 2JU      0.397000
     18 O2          0.4780    3.9770   -2.7210 o         1 2JU     -0.398000
     19 C5M        -0.3420   -0.8980   -0.0790 c2        1 2JU      0.373000
     20 N22         0.7540   -1.7580    0.1770 n         1 2JU     -0.365000
     21 C23         0.6400   -3.1500   -0.0860 c3        1 2JU      0.030000
     22 C24         1.1860   -3.9310    1.0880 c1        1 2JU     -0.146000
     23 C29         1.7970   -5.1720    0.8280 c1        1 2JU     -0.019000
     24 C30         2.6570   -5.3180   -0.2760 c2        1 2JU     -0.115000
     25 C31         3.2640   -6.5420   -0.5260 c1        1 2JU     -0.161000
     26 C32         3.0230   -7.6240    0.3150 c1        1 2JU     -0.130000
     27 C33         2.1750   -7.4810    1.4050 c1        1 2JU     -0.130000
     28 C28         1.5580   -6.2420    1.6590 c1        1 2JU     -0.045000
     29 C27         0.7040   -6.0930    2.7680 c1        1 2JU     -0.130000
     30 C26         0.1030   -4.8680    3.0230 c1        1 2JU     -0.130000
     31 C25         0.3440   -3.7860    2.1820 c1        1 2JU     -0.070000
     32 O21        -1.4580   -1.2120    0.2830 o         1 2JU     -0.390000
     33 O3'        -4.2800    5.4660   -0.3660 oh        1 2JU     -0.389000
     34 H3         -0.9980    5.1760    1.2520 h1        1 2JU      0.028000
     35 H4         -0.8740    3.7950    0.4560 h1        1 2JU      0.028000
     36 H5         -2.1080    6.1390   -0.4990 h1        1 2JU      0.124000
     37 H6         -3.0830    4.4180    0.8860 h1        1 2JU      0.137000
     38 H7         -4.1360    3.1790   -1.2650 hc        1 2JU      0.097500
     39 H8         -3.0490    2.5060   -0.2960 hc        1 2JU      0.097500
     40 H9         -2.5440    3.1410   -2.8970 h2        1 2JU      0.135000
     41 H10        -2.1780    0.9700   -0.9410 h4        1 2JU      0.212000
     42 H11         2.2750    2.2930   -2.1140 hn        1 2JU      0.247000
     43 H12         1.5430   -1.4140    0.4790 hn        1 2JU      0.249000
     44 H13        -0.3020   -3.3810   -0.2220 h1        1 2JU      0.084500
     45 H14         1.1500   -3.3720   -0.8920 h1        1 2JU      0.084500
     46 H15         2.8260   -4.5600   -0.8660 ha        1 2JU      0.128000
     47 H16         3.8610   -6.6430   -1.2920 ha        1 2JU      0.107000
     48 H17         3.4500   -8.4840    0.1390 ha        1 2JU      0.140750
     49 H18         2.0040   -8.2410    1.9930 ha        1 2JU      0.140750
     50 H19         0.5350   -6.8530    3.3580 ha        1 2JU      0.140750
     51 H20        -0.4900   -4.7660    3.7920 ha        1 2JU      0.140750
     52 H21        -0.0790   -2.9250    2.3610 ha        1 2JU      0.238000
     53 H22        -4.8400    5.4610    0.3250 ho        1 2JU      0.297000
     54 O3P         0.2170    7.7250   -0.0440 o         1 2JU     -1.253667
@<TRIPOS>BOND
     1    1    2 1   
     2    1    3 1   
     3    1   54 1   
     4    4    5 1   
     5    5    6 1   
     6    5   34 1   
     7    5   35 1   
     8    6    7 1   
     9    6   10 1   
    10    6   36 1   
    11    7    8 1   
    12    7   33 1   
    13    7   37 1   
    14    8    9 1   
    15    8   38 1   
    16    8   39 1   
    17    9   10 1   
    18    9   11 1   
    19    9   40 1   
    20   11   12 1   
    21   11   17 1   
    22   12   13 1   
    23   12   41 1   
    24   13   19 1   
    25   14   15 1   
    26   16   17 1   
    27   16   42 1   
    28   17   18 1   
    29   19   20 1   
    30   19   32 1   
    31   20   21 1   
    32   20   43 1   
    33   21   22 1   
    34   21   44 1   
    35   21   45 1   
    36   22   31 1   
    37   23   24 1   
    38   23   28 1   
    39   24   25 1   
    40   24   46 1   
    41   25   47 1   
    42   26   27 1   
    43   26   48 1   
    44   27   49 1   
    45   29   30 1   
    46   29   50 1   
    47   30   51 1   
    48   31   52 1   
    49   33   53 1   
@<TRIPOS>SUBSTRUCTURE
     1 2JU         1 TEMP              0 ****  ****    0 ROOT
