@<TRIPOS>MOLECULE
2JW
   47    49     1     0     0
SMALL
bcc


@<TRIPOS>ATOM
      1 O2          0.9950   -2.4390   -2.5740 o         1 2JW     -0.395000
      2 C2          1.6510   -1.6940   -1.8090 c2        1 2JW      0.394000
      3 N3          2.2740   -2.2610   -0.6830 ns        1 2JW     -0.374000
      4 C4          3.0240   -1.5110    0.2410 c2        1 2JW      0.358000
      5 O4          3.5600   -2.1230    1.1860 o         1 2JW     -0.382000
      6 C5          3.1000   -0.0670   -0.0090 c2        1 2JW     -0.253000
      7 CAR         3.8410    0.7570    0.9660 c3        1 2JW     -0.156000
      8 C6          2.4920    0.4640   -1.1110 c2        1 2JW      0.057000
      9 N1          1.7530   -0.2960   -2.0050 n         1 2JW     -0.261000
     10 CAJ         1.3100    0.2650   -3.2920 c3        1 2JW      0.149000
     11 OAF         2.4450    0.5560   -4.1120 os        1 2JW     -0.282000
     12 CAI         0.4690    1.5500   -3.1640 c3        1 2JW     -0.218000
     13 CAG         1.2210    2.6220   -3.9620 c3        1 2JW      0.004000
     14 OAH         1.3650    3.8280   -3.2130 os        1 2JW     -0.206000
     15 CAE         2.5380    1.9640   -4.4030 c3        1 2JW     -0.034000
     16 CAC         3.7950    2.5070   -3.7270 c3        1 2JW     -0.040000
     17 OAD         3.6160    3.7640   -3.0700 os        1 2JW     -0.220000
     18 CAB         2.4400    3.8340   -2.3480 c2        1 2JW     -0.082000
     19 PAA         0.5390    2.3690   -8.5210 p3        1 2JW      2.376000
     20 OBA        -0.8900    2.3290   -8.8750 o         1 2JW     -1.123667
     21 OBC         1.5570    2.3870   -9.5850 o         1 2JW     -1.123667
     22 OBB         0.9490    2.3850   -7.1030 o         1 2JW     -1.123667
     23 CAU         2.3620    4.0640   -1.0060 ca        1 2JW      0.047000
     24 CAV         3.5460    4.1870   -0.1870 ca        1 2JW     -0.248500
     25 CAW         3.4670    4.4770    1.1410 ca        1 2JW     -0.015500
     26 CAX         2.2020    4.6590    1.7780 ca        1 2JW     -0.348000
     27 NCA         2.1230    4.9720    3.1700 no        1 2JW      0.594000
     28 OCA         1.0430    5.1310    3.7110 o         1 2JW     -0.478000
     29 OCB         3.1350    5.0870    3.8390 o         1 2JW     -0.478000
     30 CAY         1.0180    4.5290    0.9880 ca        1 2JW     -0.015500
     31 CAZ         1.0920    4.2420   -0.3400 ca        1 2JW     -0.248500
     32 H1          2.1830   -3.2450   -0.5650 hn        1 2JW      0.246000
     33 H2          3.4480    0.5740    1.9980 hc        1 2JW      0.092000
     34 H3          3.7420    1.8500    0.7330 hc        1 2JW      0.092000
     35 H4          4.9250    0.4800    0.9560 hc        1 2JW      0.092000
     36 H5          2.5420    1.5560   -1.3430 h4        1 2JW      0.210000
     37 H6          0.7470   -0.5560   -3.8310 h2        1 2JW      0.150000
     38 H7         -0.5370    1.3670   -3.6130 hc        1 2JW      0.112500
     39 H8          0.3290    1.8840   -2.1060 hc        1 2JW      0.112500
     40 H9          0.6420    2.9410   -4.8810 h1        1 2JW      0.190000
     41 H10         2.6140    2.0210   -5.5300 h1        1 2JW      0.185000
     42 H11         4.1840    1.7610   -2.9820 h1        1 2JW      0.079500
     43 H12         4.5870    2.7200   -4.4920 h1        1 2JW      0.079500
     44 H15         4.5170    4.0600   -0.6840 ha        1 2JW      0.122000
     45 H16         4.3810    4.5740    1.7490 ha        1 2JW      0.121500
     46 H17         0.0410    4.6660    1.4790 ha        1 2JW      0.121500
     47 H18         0.1860    4.1520   -0.9550 ha        1 2JW      0.122000
@<TRIPOS>BOND
     1    1    2 1   
     2    2    3 1   
     3    2    9 1   
     4    3    4 1   
     5    3   32 1   
     6    4    5 1   
     7    4    6 1   
     8    6    7 1   
     9    6    8 1   
    10    7   33 1   
    11    7   34 1   
    12    7   35 1   
    13    8    9 1   
    14    8   36 1   
    15    9   10 1   
    16   10   11 1   
    17   10   12 1   
    18   10   37 1   
    19   11   15 1   
    20   12   13 1   
    21   12   38 1   
    22   12   39 1   
    23   13   14 1   
    24   13   15 1   
    25   13   40 1   
    26   14   18 1   
    27   15   16 1   
    28   15   41 1   
    29   16   17 1   
    30   16   42 1   
    31   16   43 1   
    32   17   18 1   
    33   18   23 1   
    34   19   20 1   
    35   19   21 1   
    36   19   22 1   
    37   23   24 1   
    38   23   31 1   
    39   24   25 1   
    40   24   44 1   
    41   25   26 1   
    42   25   45 1   
    43   26   27 1   
    44   26   30 1   
    45   27   28 1   
    46   27   29 1   
    47   30   31 1   
    48   30   46 1   
    49   31   47 1   
@<TRIPOS>SUBSTRUCTURE
     1 2JW         1 TEMP              0 ****  ****    0 ROOT
