@<TRIPOS>MOLECULE
2JW
   47    49     1     0     0
SMALL
bcc


@<TRIPOS>ATOM
      1 O2          0.8250   -2.4000   -2.5210 o         1 2JW     -0.395000
      2 C2          1.5300   -1.6750   -1.7800 c2        1 2JW      0.394000
      3 N3          2.1730   -2.2600   -0.6750 n         1 2JW     -0.374000
      4 C4          2.9780   -1.5340    0.2210 c2        1 2JW      0.358000
      5 O4          3.5260   -2.1610    1.1480 o         1 2JW     -0.382000
      6 C5          3.0920   -0.0930   -0.0360 c2        1 2JW     -0.253000
      7 CAR         3.8920    0.7080    0.9110 c3        1 2JW     -0.156000
      8 C6          2.4640    0.4560   -1.1180 c2        1 2JW      0.057000
      9 N1          1.6710   -0.2810   -1.9840 n         1 2JW     -0.261000
     10 CAJ         1.2020    0.2920   -3.2560 c3        1 2JW      0.149000
     11 OAF         2.3170    0.5440   -4.1160 os        1 2JW     -0.282000
     12 CAI         0.4090    1.6030   -3.1030 c3        1 2JW     -0.218000
     13 CAG         1.1670    2.6490   -3.9290 c3        1 2JW      0.004000
     14 OAH         1.3750    3.8510   -3.1890 os        1 2JW     -0.206000
     15 CAE         2.4460    1.9480   -4.4130 c3        1 2JW     -0.034000
     16 CAC         3.7420    2.4510   -3.7820 c3        1 2JW     -0.040000
     17 OAD         3.6260    3.7140   -3.1230 os        1 2JW     -0.220000
     18 CAB         2.4790    3.8240   -2.3610 c2        1 2JW     -0.082000
     19 PAA         0.3220    2.4120   -8.4610 p3        1 2JW      2.376000
     20 OBA        -1.1190    2.4190   -8.7670 o         1 2JW     -1.123667
     21 OBC         1.3030    2.3960   -9.5600 o         1 2JW     -1.123667
     22 OBB         0.7800    2.4170   -7.0590 o         1 2JW     -1.123667
     23 CAU         2.4550    4.0580   -1.0180 ca        1 2JW      0.047000
     24 CAV         3.6700    4.1440   -0.2400 ca        1 2JW     -0.248500
     25 CAW         3.6450    4.4380    1.0890 ca        1 2JW     -0.015500
     26 CAX         2.4100    4.6620    1.7680 ca        1 2JW     -0.348000
     27 NCA         2.3880    4.9800    3.1620 no        1 2JW      0.594000
     28 OCA         1.3330    5.1760    3.7380 o         1 2JW     -0.478000
     29 OCB         3.4260    5.0630    3.7950 o         1 2JW     -0.478000
     30 CAY         1.1960    4.5700    1.0200 ca        1 2JW     -0.015500
     31 CAZ         1.2150    4.2780   -0.3090 ca        1 2JW     -0.248500
     32 H1          2.0550   -3.2400   -0.5510 hn        1 2JW      0.246000
     33 H2          4.9650    0.3950    0.8650 hc        1 2JW      0.092000
     34 H3          3.5290    0.5400    1.9560 hc        1 2JW      0.092000
     35 H4          3.8210    1.8030    0.6780 hc        1 2JW      0.092000
     36 H5          2.5410    1.5450   -1.3540 h4        1 2JW      0.210000
     37 H6          0.5950   -0.5110   -3.7740 h2        1 2JW      0.150000
     38 H7         -0.6180    1.4530   -3.5170 hc        1 2JW      0.112500
     39 H8          0.3150    1.9430   -2.0420 hc        1 2JW      0.112500
     40 H9          0.5680    2.9850   -4.8290 h1        1 2JW      0.190000
     41 H10         2.4850    2.0000   -5.5420 h1        1 2JW      0.185000
     42 H11         4.1320    1.6940   -3.0490 h1        1 2JW      0.079500
     43 H12         4.5140    2.6370   -4.5750 h1        1 2JW      0.079500
     44 H15         4.6180    3.9850   -0.7700 ha        1 2JW      0.122000
     45 H16         4.5820    4.5070    1.6650 ha        1 2JW      0.121500
     46 H17         0.2410    4.7400    1.5440 ha        1 2JW      0.121500
     47 H18         0.2850    4.2160   -0.8920 ha        1 2JW      0.122000
@<TRIPOS>BOND
     1    1    2 1   
     2    2    3 1   
     3    2    9 1   
     4    3    4 1   
     5    3   32 1   
     6    4    5 1   
     7    4    6 1   
     8    6    7 1   
     9    6    8 1   
    10    7   33 1   
    11    7   34 1   
    12    7   35 1   
    13    8    9 1   
    14    8   36 1   
    15    9   10 1   
    16   10   11 1   
    17   10   12 1   
    18   10   37 1   
    19   11   15 1   
    20   12   13 1   
    21   12   38 1   
    22   12   39 1   
    23   13   14 1   
    24   13   15 1   
    25   13   40 1   
    26   14   18 1   
    27   15   16 1   
    28   15   41 1   
    29   16   17 1   
    30   16   42 1   
    31   16   43 1   
    32   17   18 1   
    33   18   23 1   
    34   19   20 1   
    35   19   21 1   
    36   19   22 1   
    37   23   24 1   
    38   23   31 1   
    39   24   25 1   
    40   24   44 1   
    41   25   26 1   
    42   25   45 1   
    43   26   27 1   
    44   26   30 1   
    45   27   28 1   
    46   27   29 1   
    47   30   31 1   
    48   30   46 1   
    49   31   47 1   
@<TRIPOS>SUBSTRUCTURE
     1 2JW         1 TEMP              0 ****  ****    0 ROOT
