@<TRIPOS>MOLECULE
2JW
   47    49     1     0     0
SMALL
bcc


@<TRIPOS>ATOM
      1 O2          0.9470   -2.4360   -2.5180 o         1 2JW     -0.395000
      2 C2          1.6160   -1.6890   -1.7650 c2        1 2JW      0.394000
      3 N3          2.2430   -2.2500   -0.6380 n         1 2JW     -0.374000
      4 C4          3.0070   -1.4980    0.2710 c2        1 2JW      0.358000
      5 O4          3.5450   -2.1040    1.2190 o         1 2JW     -0.382000
      6 C5          3.0950   -0.0570    0.0050 c2        1 2JW     -0.253000
      7 CAR         3.8510    0.7700    0.9660 c3        1 2JW     -0.156000
      8 C6          2.4830    0.4680   -1.0970 c2        1 2JW      0.057000
      9 N1          1.7300   -0.2940   -1.9770 n         1 2JW     -0.261000
     10 CAJ         1.2820    0.2570   -3.2670 c3        1 2JW      0.149000
     11 OAF         2.4130    0.5280   -4.0990 os        1 2JW     -0.282000
     12 CAI         0.4540    1.5510   -3.1460 c3        1 2JW     -0.218000
     13 CAG         1.2090    2.6070   -3.9610 c3        1 2JW      0.004000
     14 OAH         1.3700    3.8190   -3.2270 os        1 2JW     -0.206000
     15 CAE         2.5170    1.9330   -4.4050 c3        1 2JW     -0.034000
     16 CAC         3.7840    2.4710   -3.7440 c3        1 2JW     -0.040000
     17 OAD         3.6210    3.7360   -3.1000 os        1 2JW     -0.220000
     18 CAB         2.4520    3.8250   -2.3690 c2        1 2JW     -0.082000
     19 PAA         0.4930    2.3170   -8.5130 p3        1 2JW      2.376000
     20 OBA        -0.9380    2.2890   -8.8580 o         1 2JW     -1.123667
     21 OBC         1.5050    2.3140   -9.5840 o         1 2JW     -1.123667
     22 OBB         0.9120    2.3410   -7.0980 o         1 2JW     -1.123667
     23 CAU         2.3860    4.0690   -1.0290 ca        1 2JW      0.047000
     24 CAV         3.5780    4.1910   -0.2210 ca        1 2JW     -0.248500
     25 CAW         3.5110    4.4940    1.1050 ca        1 2JW     -0.015500
     26 CAX         2.2530    4.6950    1.7490 ca        1 2JW     -0.348000
     27 NCA         2.1870    5.0230    3.1390 no        1 2JW      0.594000
     28 OCA         1.1130    5.1980    3.6860 o         1 2JW     -0.478000
     29 OCB         3.2060    5.1350    3.7990 o         1 2JW     -0.478000
     30 CAY         1.0620    4.5680    0.9700 ca        1 2JW     -0.015500
     31 CAZ         1.1230    4.2660   -0.3550 ca        1 2JW     -0.248500
     32 H1          2.1440   -3.2320   -0.5090 hn        1 2JW      0.246000
     33 H2          3.7610    1.8610    0.7220 hc        1 2JW      0.092000
     34 H3          4.9320    0.4830    0.9490 hc        1 2JW      0.092000
     35 H4          3.4660    0.6010    2.0020 hc        1 2JW      0.092000
     36 H5          2.5410    1.5560   -1.3410 h4        1 2JW      0.210000
     37 H6          0.7080   -0.5650   -3.7930 h2        1 2JW      0.150000
     38 H7          0.3250    1.8970   -2.0910 hc        1 2JW      0.112000
     39 H8         -0.5570    1.3730   -3.5850 hc        1 2JW      0.112000
     40 H9          0.6270    2.9220   -4.8790 h1        1 2JW      0.190000
     41 H10         2.5850    1.9760   -5.5330 h1        1 2JW      0.185000
     42 H11         4.5720    2.6690   -4.5180 h1        1 2JW      0.079500
     43 H12         4.1720    1.7290   -2.9950 h1        1 2JW      0.079500
     44 H15         4.5440    4.0490   -0.7240 ha        1 2JW      0.122000
     45 H16         4.4310    4.5900    1.7050 ha        1 2JW      0.121500
     46 H17         0.0900    4.7190    1.4670 ha        1 2JW      0.121500
     47 H18         0.2110    4.1780   -0.9620 ha        1 2JW      0.122000
@<TRIPOS>BOND
     1    1    2 1   
     2    2    3 1   
     3    2    9 1   
     4    3    4 1   
     5    3   32 1   
     6    4    5 1   
     7    4    6 1   
     8    6    7 1   
     9    6    8 1   
    10    7   33 1   
    11    7   34 1   
    12    7   35 1   
    13    8    9 1   
    14    8   36 1   
    15    9   10 1   
    16   10   11 1   
    17   10   12 1   
    18   10   37 1   
    19   11   15 1   
    20   12   13 1   
    21   12   38 1   
    22   12   39 1   
    23   13   14 1   
    24   13   15 1   
    25   13   40 1   
    26   14   18 1   
    27   15   16 1   
    28   15   41 1   
    29   16   17 1   
    30   16   42 1   
    31   16   43 1   
    32   17   18 1   
    33   18   23 1   
    34   19   20 1   
    35   19   21 1   
    36   19   22 1   
    37   23   24 1   
    38   23   31 1   
    39   24   25 1   
    40   24   44 1   
    41   25   26 1   
    42   25   45 1   
    43   26   27 1   
    44   26   30 1   
    45   27   28 1   
    46   27   29 1   
    47   30   31 1   
    48   30   46 1   
    49   31   47 1   
@<TRIPOS>SUBSTRUCTURE
     1 2JW         1 TEMP              0 ****  ****    0 ROOT
