@<TRIPOS>MOLECULE
2JX
   25    27     1     0     0
SMALL
bcc


@<TRIPOS>ATOM
      1 C2         -0.0200    0.3210    0.0430 c         1 2JX      0.479400
      2 N3          1.3440    0.6030    0.2480 ns        1 2JX     -0.412400
      3 S1         -0.9940    0.8730   -1.0660 s         1 2JX     -0.475400
      4 C4          1.7780   -0.1280    1.3760 cc        1 2JX      0.330900
      5 N5          0.7560   -0.8630    1.8680 n2        1 2JX     -0.476300
      6 N6         -0.3020   -0.5990    1.0830 ns        1 2JX     -0.262900
      7 C7          3.1830   -0.1250    1.9030 c3        1 2JX      0.104800
      8 C8          3.1980   -0.1420    3.4330 c3        1 2JX      0.102400
      9 O9          4.5420   -0.1440    3.9180 os        1 2JX     -0.309900
     10 C10         5.3410    0.8100    3.3070 ca        1 2JX      0.054100
     11 C11         5.0050    1.3720    2.0630 ca        1 2JX      0.054100
     12 O12         3.8280    1.0600    1.3960 os        1 2JX     -0.331900
     13 C13         5.8500    2.3100    1.4560 ca        1 2JX     -0.116000
     14 C14         7.0300    2.6670    2.1030 ca        1 2JX     -0.128000
     15 C15         7.3710    2.1000    3.3340 ca        1 2JX     -0.126000
     16 C16         6.5330    1.1720    3.9470 ca        1 2JX     -0.115000
     17 H1          1.8810    1.2700   -0.2480 hn        1 2JX      0.383500
     18 H2         -1.1810   -1.0350    1.2490 hn        1 2JX      0.388500
     19 H3          3.7360   -1.0190    1.4940 h1        1 2JX      0.094700
     20 H4          2.6580    0.7510    3.8410 h1        1 2JX      0.086700
     21 H5          2.7610   -1.0930    3.8370 h1        1 2JX      0.086700
     22 H6          5.5720    2.7470    0.4870 ha        1 2JX      0.152000
     23 H7          7.7010    3.4030    1.6360 ha        1 2JX      0.141000
     24 H8          8.3100    2.3900    3.8280 ha        1 2JX      0.140000
     25 H9          6.7870    0.7190    4.9150 ha        1 2JX      0.155000
@<TRIPOS>BOND
     1    1    2 1   
     2    1    3 2   
     3    1    6 1   
     4    2    4 1   
     5    2   17 1   
     6    4    5 2   
     7    4    7 1   
     8    5    6 1   
     9    6   18 1   
    10    7    8 1   
    11    7   12 1   
    12    7   19 1   
    13    8    9 1   
    14    8   20 1   
    15    8   21 1   
    16    9   10 1   
    17   10   11 ar  
    18   10   16 ar  
    19   11   12 1   
    20   11   13 ar  
    21   13   14 ar  
    22   13   22 1   
    23   14   15 ar  
    24   14   23 1   
    25   15   16 ar  
    26   15   24 1   
    27   16   25 1   
@<TRIPOS>SUBSTRUCTURE
     1 2JX         1 TEMP              0 ****  ****    0 ROOT
