@<TRIPOS>MOLECULE
2JX
   25    27     1     0     0
SMALL
bcc


@<TRIPOS>ATOM
      1 C2         -0.0200    0.3200    0.0420 c         1 2JX      0.479400
      2 N3          1.3450    0.6010    0.2450 n         1 2JX     -0.413400
      3 S1         -0.9930    0.8700   -1.0690 s         1 2JX     -0.475400
      4 C4          1.7780   -0.1270    1.3760 cc        1 2JX      0.330900
      5 N5          0.7550   -0.8590    1.8710 n2        1 2JX     -0.476300
      6 N6         -0.3020   -0.5960    1.0850 n         1 2JX     -0.262900
      7 C7          3.1830   -0.1240    1.9030 c3        1 2JX      0.104800
      8 C8          3.1990   -0.1430    3.4330 c3        1 2JX      0.102400
      9 O9          4.5430   -0.1460    3.9170 os        1 2JX     -0.309900
     10 C10         5.3410    0.8090    3.3060 ca        1 2JX      0.054100
     11 C11         5.0050    1.3730    2.0640 ca        1 2JX      0.054100
     12 O12         3.8270    1.0610    1.3970 os        1 2JX     -0.331900
     13 C13         5.8490    2.3110    1.4570 ca        1 2JX     -0.116000
     14 C14         7.0290    2.6680    2.1040 ca        1 2JX     -0.128000
     15 C15         7.3710    2.1000    3.3340 ca        1 2JX     -0.126000
     16 C16         6.5340    1.1710    3.9470 ca        1 2JX     -0.115000
     17 H1          1.8830    1.2660   -0.2520 hn        1 2JX      0.383500
     18 H2         -1.1820   -1.0300    1.2520 hn        1 2JX      0.388500
     19 H3          3.7360   -1.0180    1.4920 h1        1 2JX      0.094700
     20 H4          2.6580    0.7490    3.8420 h1        1 2JX      0.086700
     21 H5          2.7620   -1.0950    3.8360 h1        1 2JX      0.086700
     22 H6          5.5700    2.7500    0.4890 ha        1 2JX      0.152000
     23 H7          7.7000    3.4050    1.6370 ha        1 2JX      0.141000
     24 H8          8.3100    2.3900    3.8280 ha        1 2JX      0.140000
     25 H9          6.7890    0.7170    4.9150 ha        1 2JX      0.155000
@<TRIPOS>BOND
     1    1    2 1   
     2    1    3 2   
     3    1    6 1   
     4    2    4 1   
     5    2   17 1   
     6    4    5 2   
     7    4    7 1   
     8    5    6 1   
     9    6   18 1   
    10    7    8 1   
    11    7   12 1   
    12    7   19 1   
    13    8    9 1   
    14    8   20 1   
    15    8   21 1   
    16    9   10 1   
    17   10   11 ar  
    18   10   16 ar  
    19   11   12 1   
    20   11   13 ar  
    21   13   14 ar  
    22   13   22 1   
    23   14   15 ar  
    24   14   23 1   
    25   15   16 ar  
    26   15   24 1   
    27   16   25 1   
@<TRIPOS>SUBSTRUCTURE
     1 2JX         1 TEMP              0 ****  ****    0 ROOT
