@<TRIPOS>MOLECULE
2JX
   25    27     1     0     0
SMALL
bcc


@<TRIPOS>ATOM
      1 C2         -0.0210    0.3470    0.0240 c         1 2JX      0.479400
      2 N3          1.3380    0.6480    0.2430 n         1 2JX     -0.412400
      3 S1         -1.0080    0.9360   -1.0540 s         1 2JX     -0.475400
      4 C4          1.7900   -0.1330    1.3300 cc        1 2JX      0.330900
      5 N5          0.7840   -0.9160    1.7820 n2        1 2JX     -0.476300
      6 N6         -0.2800   -0.6330    1.0130 n         1 2JX     -0.262900
      7 C7          3.1950   -0.1280    1.8560 c3        1 2JX      0.104800
      8 C8          3.2110   -0.2180    3.3840 c3        1 2JX      0.102400
      9 O9          4.5560   -0.2170    3.8680 os        1 2JX     -0.309900
     10 C10         5.3350    0.7800    3.3030 ca        1 2JX      0.054100
     11 C11         4.9880    1.3940    2.0880 ca        1 2JX      0.054100
     12 O12         3.8160    1.0920    1.4070 os        1 2JX     -0.331900
     13 C13         5.8140    2.3760    1.5260 ca        1 2JX     -0.116000
     14 C14         6.9870    2.7250    2.1900 ca        1 2JX     -0.128000
     15 C15         7.3400    2.1060    3.3920 ca        1 2JX     -0.126000
     16 C16         6.5210    1.1340    3.9600 ca        1 2JX     -0.115000
     17 H1          1.8600    1.3510   -0.2170 hn        1 2JX      0.383500
     18 H2         -1.1490   -1.0970    1.1550 hn        1 2JX      0.388500
     19 H3          3.7650   -0.9910    1.4050 h1        1 2JX      0.094700
     20 H4          2.7930   -1.1960    3.7410 h1        1 2JX      0.086700
     21 H5          2.6540    0.6440    3.8340 h1        1 2JX      0.086700
     22 H6          5.5270    2.8540    0.5790 ha        1 2JX      0.152000
     23 H7          7.6440    3.4950    1.7580 ha        1 2JX      0.141000
     24 H8          8.2740    2.3910    3.9000 ha        1 2JX      0.140000
     25 H9          6.7850    0.6400    4.9060 ha        1 2JX      0.155000
@<TRIPOS>BOND
     1    1    2 1   
     2    1    3 2   
     3    1    6 1   
     4    2    4 1   
     5    2   17 1   
     6    4    5 2   
     7    4    7 1   
     8    5    6 1   
     9    6   18 1   
    10    7    8 1   
    11    7   12 1   
    12    7   19 1   
    13    8    9 1   
    14    8   20 1   
    15    8   21 1   
    16    9   10 1   
    17   10   11 ar  
    18   10   16 ar  
    19   11   12 1   
    20   11   13 ar  
    21   13   14 ar  
    22   13   22 1   
    23   14   15 ar  
    24   14   23 1   
    25   15   16 ar  
    26   15   24 1   
    27   16   25 1   
@<TRIPOS>SUBSTRUCTURE
     1 2JX         1 TEMP              0 ****  ****    0 ROOT
