@<TRIPOS>MOLECULE
2JY
   25    26     1     0     0
SMALL
bcc


@<TRIPOS>ATOM
      1 C01         0.0530   -0.3940    0.0050 ca        1 2JY     -0.087000
      2 C02         1.4030   -0.0620   -0.0360 ca        1 2JY     -0.172000
      3 C03         2.0470    0.3460    1.1370 ca        1 2JY      0.046400
      4 C04         1.3550    0.4270    2.3520 ca        1 2JY     -0.021600
      5 C05        -0.0210    0.0840    2.3770 ca        1 2JY      0.167100
      6 C06        -0.6610   -0.3240    1.1970 ca        1 2JY     -0.209000
      7 Cl1         3.7000    0.7450    1.0510 cl        1 2JY     -0.092400
      8 Cl2         2.1600    0.9240    3.7580 cl        1 2JY     -0.051400
      9 O09        -0.6460    0.1750    3.5940 os        1 2JY     -0.303900
     10 C10        -2.0680   -0.0940    3.5950 c3        1 2JY      0.120100
     11 C11        -2.5430    0.0820    4.9730 cc        1 2JY      0.138000
     12 O12        -3.2110   -1.0250    5.5190 os        1 2JY     -0.328800
     13 C13        -3.6220   -0.6560    6.7940 cc        1 2JY      0.270200
     14 C14        -3.2090    0.6460    7.0610 cd        1 2JY     -0.315300
     15 C15        -2.5190    1.1180    5.8910 cd        1 2JY     -0.212300
     16 C16        -4.4210   -1.6630    7.6060 c         1 2JY      0.827100
     17 O17        -4.8170   -2.7090    7.0340 o         1 2JY     -0.800800
     18 O18        -4.6350   -1.3500    8.8070 o         1 2JY     -0.800800
     19 H1         -0.4570   -0.7180   -0.9150 ha        1 2JY      0.133000
     20 H2          1.9620   -0.1210   -0.9800 ha        1 2JY      0.142000
     21 H3         -1.7260   -0.5960    1.2050 ha        1 2JY      0.150000
     22 H4         -2.2460   -1.1470    3.2460 h1        1 2JY      0.051700
     23 H5         -2.5660    0.6400    2.9050 h1        1 2JY      0.051700
     24 H6         -3.3780    1.1930    7.9820 ha        1 2JY      0.159000
     25 H7         -2.0630    2.0950    5.7610 ha        1 2JY      0.138000
@<TRIPOS>BOND
     1    1    2 ar  
     2    1    6 ar  
     3    1   19 1   
     4    2    3 ar  
     5    2   20 1   
     6    3    4 ar  
     7    3    7 1   
     8    4    5 ar  
     9    4    8 1   
    10    5    6 ar  
    11    5    9 1   
    12    6   21 1   
    13    9   10 1   
    14   10   11 1   
    15   10   22 1   
    16   10   23 1   
    17   11   12 1   
    18   11   15 2   
    19   12   13 1   
    20   13   14 2   
    21   13   16 1   
    22   14   15 1   
    23   14   24 1   
    24   15   25 1   
    25   16   17 1   
    26   16   18 1   
@<TRIPOS>SUBSTRUCTURE
     1 2JY         1 TEMP              0 ****  ****    0 ROOT
