@<TRIPOS>MOLECULE
2JZ
   64    68     1     0     0
SMALL
bcc


@<TRIPOS>ATOM
      1 C4          0.3140   -0.0850   -0.3580 ca        1 2JZ     -0.104000
      2 C5          9.3200    0.4070   11.5930 ca        1 2JZ     -0.246300
      3 C6          0.1940   -0.7610    1.9570 ca        1 2JZ     -0.102000
      4 C7          1.4800    0.6270   -0.0980 ca        1 2JZ     -0.163000
      5 C8          9.0100   -0.7400   10.9100 ca        1 2JZ     -0.084000
      6 C10         5.8240   -7.5520    6.0300 ca        1 2JZ     -0.100000
      7 C13         8.2730    1.3430   11.8690 ca        1 2JZ      0.407200
      8 C15         3.5900   -8.3000    5.4180 ca        1 2JZ     -0.211000
      9 C17         2.5170   -1.3980    3.9840 c3        1 2JZ      0.212800
     10 C20         4.5650   -7.2740    5.4760 ca        1 2JZ      0.126600
     11 C21         1.3660   -0.0560    2.2500 ca        1 2JZ     -0.114300
     12 C22         6.6860    0.0250   10.8170 ca        1 2JZ      0.386600
     13 C24         2.0100    0.6440    1.2060 ca        1 2JZ      0.128900
     14 C26         3.6910   -2.5700    5.8090 ca        1 2JZ      0.935900
     15 C28         4.2680   -4.8290    5.6650 ca        1 2JZ      0.933900
     16 C1          6.6170  -11.4080    7.4980 c3        1 2JZ      0.110700
     17 C2          1.7010  -10.3710    5.4050 c3        1 2JZ      0.109700
     18 C3         -0.3300   -0.7790    0.6670 ca        1 2JZ     -0.142000
     19 C9          4.9880   -1.3410    9.7220 ca        1 2JZ     -0.098000
     20 C11         5.3360   -0.2050   10.4050 ca        1 2JZ     -0.161300
     21 C12         6.1120   -8.8240    6.5250 ca        1 2JZ     -0.174000
     22 C14         7.2910   -2.1260    9.7810 ca        1 2JZ     -0.159000
     23 C16         1.8990   -0.0380    3.6380 c3        1 2JZ     -0.051100
     24 C18         7.6630   -0.9650   10.4960 ca        1 2JZ     -0.132300
     25 C19         5.9700   -2.3280    9.3910 ca        1 2JZ      0.147600
     26 C23         5.1600   -9.8390    6.4690 ca        1 2JZ      0.098100
     27 C25         3.8850   -9.5700    5.9030 ca        1 2JZ      0.115100
     28 C27         4.9650   -3.5600    7.4950 ca        1 2JZ      0.934900
     29 N29         7.0130    1.1790   11.5080 nb        1 2JZ     -0.653000
     30 N30         4.3840   -2.4110    7.0060 nb        1 2JZ     -0.843000
     31 N31         3.6010   -3.7520    5.0960 nb        1 2JZ     -0.851000
     32 N32         4.9570   -4.7970    6.8610 nb        1 2JZ     -0.841000
     33 N33         2.9900   -1.4530    5.3470 nh        1 2JZ     -0.838900
     34 N34         5.5930   -3.5330    8.7560 nh        1 2JZ     -0.715300
     35 N35         4.2770   -6.0130    4.8990 nh        1 2JZ     -0.706300
     36 O36         5.3450  -11.1290    6.9240 os        1 2JZ     -0.302900
     37 O37         3.0150  -10.6410    5.8790 os        1 2JZ     -0.302900
     38 F38         3.1460    1.3440    1.4460 f         1 2JZ     -0.140900
     39 H4         -0.1000   -0.0980   -1.3770 ha        1 2JZ      0.139000
     40 H5         10.3410    0.6260   11.9310 ha        1 2JZ      0.144000
     41 H6         -0.3160   -1.3080    2.7650 ha        1 2JZ      0.140000
     42 H7          1.9960    1.1790   -0.8970 ha        1 2JZ      0.150000
     43 H8          9.7750   -1.4930   10.6710 ha        1 2JZ      0.137000
     44 H10         6.5980   -6.7710    6.0850 ha        1 2JZ      0.154000
     45 H13         8.5050    2.2740   12.4180 h4        1 2JZ      0.022100
     46 H15         2.6000   -8.0940    4.9860 ha        1 2JZ      0.140000
     47 H17         1.7360   -2.2010    3.8480 h1        1 2JZ      0.058700
     48 H17A        3.3550   -1.6120    3.2590 h1        1 2JZ      0.058700
     49 H1          6.5360  -12.4850    7.7920 h1        1 2JZ      0.044033
     50 H1A         6.7960  -10.7670    8.3950 h1        1 2JZ      0.044033
     51 H1B         7.4310  -11.2650    6.7460 h1        1 2JZ      0.044033
     52 H2          1.7240  -10.0640    4.3310 h1        1 2JZ      0.044367
     53 H2A         1.2060   -9.5860    6.0270 h1        1 2JZ      0.044367
     54 H2B         1.1780  -11.3540    5.5210 h1        1 2JZ      0.044367
     55 H3         -1.2520   -1.3400    0.4570 ha        1 2JZ      0.138000
     56 H9          3.9390   -1.4990    9.4260 ha        1 2JZ      0.160000
     57 H11         4.5690    0.5480   10.6510 ha        1 2JZ      0.153000
     58 H12         7.1050   -9.0130    6.9590 ha        1 2JZ      0.142000
     59 H14         8.0740   -2.8650    9.5490 ha        1 2JZ      0.135000
     60 H16         2.6710    0.7720    3.7420 hc        1 2JZ      0.063200
     61 H16A        1.0640    0.1970    4.3510 hc        1 2JZ      0.063200
     62 HN33        3.2350   -0.5800    5.7650 hn        1 2JZ      0.438800
     63 HN34        6.1960   -4.3100    8.9430 hn        1 2JZ      0.444800
     64 HN35        3.5940   -6.0410    4.1680 hn        1 2JZ      0.439800
@<TRIPOS>BOND
     1    1    4 ar  
     2    1   18 ar  
     3    1   39 1   
     4    2    5 ar  
     5    2    7 ar  
     6    2   40 1   
     7    3   11 ar  
     8    3   18 ar  
     9    3   41 1   
    10    4   13 ar  
    11    4   42 1   
    12    5   24 ar  
    13    5   43 1   
    14    6   10 ar  
    15    6   21 ar  
    16    6   44 1   
    17    7   29 ar  
    18    7   45 1   
    19    8   10 ar  
    20    8   27 ar  
    21    8   46 1   
    22    9   23 1   
    23    9   33 1   
    24    9   47 1   
    25    9   48 1   
    26   10   35 1   
    27   11   13 ar  
    28   11   23 1   
    29   12   20 ar  
    30   12   24 ar  
    31   12   29 ar  
    32   13   38 1   
    33   14   30 ar  
    34   14   31 ar  
    35   14   33 1   
    36   15   31 ar  
    37   15   32 ar  
    38   15   35 1   
    39   16   36 1   
    40   16   49 1   
    41   16   50 1   
    42   16   51 1   
    43   17   37 1   
    44   17   52 1   
    45   17   53 1   
    46   17   54 1   
    47   18   55 1   
    48   19   20 ar  
    49   19   25 ar  
    50   19   56 1   
    51   20   57 1   
    52   21   26 ar  
    53   21   58 1   
    54   22   24 ar  
    55   22   25 ar  
    56   22   59 1   
    57   23   60 1   
    58   23   61 1   
    59   25   34 1   
    60   26   27 ar  
    61   26   36 1   
    62   27   37 1   
    63   28   30 ar  
    64   28   32 ar  
    65   28   34 1   
    66   33   62 1   
    67   34   63 1   
    68   35   64 1   
@<TRIPOS>SUBSTRUCTURE
     1 2JZ         1 TEMP              0 ****  ****    0 ROOT
