@<TRIPOS>MOLECULE
2JZ
   64    68     1     0     0
SMALL
bcc


@<TRIPOS>ATOM
      1 C4         -7.4120   -4.1910   -0.4780 ca        1 2JZ     -0.104000
      2 C5          0.9760    8.1970   -1.0180 ca        1 2JZ     -0.246300
      3 C6         -5.8140   -3.0930    0.9620 ca        1 2JZ     -0.102000
      4 C7         -7.4580   -3.0690   -1.2970 ca        1 2JZ     -0.163000
      5 C8          1.4740    6.9250   -1.1310 ca        1 2JZ     -0.084000
      6 C10         3.5720   -1.7890   -1.1790 ca        1 2JZ     -0.100000
      7 C13        -0.0170    8.4550   -0.0190 ca        1 2JZ      0.407200
      8 C15         3.1070   -3.6560    0.3120 ca        1 2JZ     -0.211000
      9 C17        -3.5300   -1.0520    0.2340 c3        1 2JZ      0.212800
     10 C20         2.6460   -2.5700   -0.4720 ca        1 2JZ      0.126600
     11 C21        -5.8370   -1.9490    0.1560 ca        1 2JZ     -0.114300
     12 C22        -0.0010    6.2560    0.7050 ca        1 2JZ      0.386600
     13 C24        -6.6700   -1.9440   -0.9830 ca        1 2JZ      0.128900
     14 C26        -1.3100    0.0160    0.3420 ca        1 2JZ      0.935900
     15 C28         0.6530   -1.1440   -0.1690 ca        1 2JZ      0.933900
     16 C1          7.6640   -2.7080   -0.9090 c3        1 2JZ      0.110700
     17 C2          4.1150   -5.7420    1.8900 c3        1 2JZ      0.109700
     18 C3         -6.5910   -4.2050    0.6510 ca        1 2JZ     -0.142000
     19 C9         -0.0050    3.9500    1.4970 ca        1 2JZ     -0.098000
     20 C11        -0.4810    5.2320    1.5800 ca        1 2JZ     -0.161300
     21 C12         4.9370   -2.0740   -1.1060 ca        1 2JZ     -0.174000
     22 C14         1.4630    4.5740   -0.3410 ca        1 2JZ     -0.159000
     23 C16        -5.0110   -0.7670    0.5150 c3        1 2JZ     -0.051100
     24 C18         0.9910    5.9040   -0.2600 ca        1 2JZ     -0.132300
     25 C19         0.9810    3.5950    0.5220 ca        1 2JZ      0.147600
     26 C23         5.3990   -3.1410   -0.3390 ca        1 2JZ      0.098100
     27 C25         4.4670   -3.9420    0.3740 ca        1 2JZ      0.115100
     28 C27         0.7320    1.1440    0.2840 ca        1 2JZ      0.934900
     29 N29        -0.4940    7.5450    0.8100 nb        1 2JZ     -0.653000
     30 N30        -0.6320    1.2270    0.4570 nb        1 2JZ     -0.843000
     31 N31        -0.7210   -1.1960    0.0300 nb        1 2JZ     -0.851000
     32 N32         1.4310   -0.0110   -0.0480 nb        1 2JZ     -0.841000
     33 N33        -2.6780    0.0440    0.6290 nh        1 2JZ     -0.838900
     34 N34         1.5250    2.2910    0.4910 nh        1 2JZ     -0.715300
     35 N35         1.2520   -2.3470   -0.5920 nh        1 2JZ     -0.706300
     36 O36         6.7220   -3.5090   -0.2040 os        1 2JZ     -0.302900
     37 O37         5.0180   -4.9840    1.0940 os        1 2JZ     -0.302900
     38 F38        -6.7270   -0.8560   -1.7890 f         1 2JZ     -0.140900
     39 H4         -8.0260   -5.0710   -0.7230 ha        1 2JZ      0.139000
     40 H5          1.3160    9.0160   -1.6650 ha        1 2JZ      0.144000
     41 H6         -5.1680   -3.1050    1.8540 ha        1 2JZ      0.140000
     42 H7         -8.1010   -3.0450   -2.1890 ha        1 2JZ      0.150000
     43 H8          2.2380    6.6700   -1.8800 ha        1 2JZ      0.137000
     44 H10         3.2380   -0.9420   -1.7970 ha        1 2JZ      0.154000
     45 H13        -0.4300    9.4760    0.0870 h4        1 2JZ      0.022100
     46 H15         2.3900   -4.2750    0.8710 ha        1 2JZ      0.140000
     47 H17        -3.2180   -1.9700    0.8120 h1        1 2JZ      0.058700
     48 H17A       -3.4060   -1.2830   -0.8640 h1        1 2JZ      0.058700
     49 H1          7.4790   -2.7560   -2.0090 h1        1 2JZ      0.044033
     50 H1A         7.6300   -1.6500   -0.5520 h1        1 2JZ      0.044033
     51 H1B         8.6460   -3.1800   -0.6520 h1        1 2JZ      0.044033
     52 H2          4.7830   -6.4800    2.4030 h1        1 2JZ      0.044367
     53 H2A         3.5990   -5.0920    2.6370 h1        1 2JZ      0.044367
     54 H2B         3.3690   -6.2690    1.2460 h1        1 2JZ      0.044367
     55 H3         -6.5590   -5.0950    1.2960 ha        1 2JZ      0.138000
     56 H9         -0.3840    3.1820    2.1910 ha        1 2JZ      0.160000
     57 H11        -1.2420    5.4910    2.3350 ha        1 2JZ      0.153000
     58 H12         5.6420   -1.4420   -1.6650 ha        1 2JZ      0.142000
     59 H14         2.2250    4.3410   -1.1010 ha        1 2JZ      0.135000
     60 H16        -5.1550   -0.5320    1.6040 hc        1 2JZ      0.063200
     61 H16A       -5.3470    0.1300   -0.0720 hc        1 2JZ      0.063200
     62 HN33       -3.1000    0.9480    0.6510 hn        1 2JZ      0.438800
     63 HN34        2.4530    2.2330    0.1200 hn        1 2JZ      0.444800
     64 HN35        0.6910   -3.1640   -0.4510 hn        1 2JZ      0.439800
@<TRIPOS>BOND
     1    1    4 ar  
     2    1   18 ar  
     3    1   39 1   
     4    2    5 ar  
     5    2    7 ar  
     6    2   40 1   
     7    3   11 ar  
     8    3   18 ar  
     9    3   41 1   
    10    4   13 ar  
    11    4   42 1   
    12    5   24 ar  
    13    5   43 1   
    14    6   10 ar  
    15    6   21 ar  
    16    6   44 1   
    17    7   29 ar  
    18    7   45 1   
    19    8   10 ar  
    20    8   27 ar  
    21    8   46 1   
    22    9   23 1   
    23    9   33 1   
    24    9   47 1   
    25    9   48 1   
    26   10   35 1   
    27   11   13 ar  
    28   11   23 1   
    29   12   20 ar  
    30   12   24 ar  
    31   12   29 ar  
    32   13   38 1   
    33   14   30 ar  
    34   14   31 ar  
    35   14   33 1   
    36   15   31 ar  
    37   15   32 ar  
    38   15   35 1   
    39   16   36 1   
    40   16   49 1   
    41   16   50 1   
    42   16   51 1   
    43   17   37 1   
    44   17   52 1   
    45   17   53 1   
    46   17   54 1   
    47   18   55 1   
    48   19   20 ar  
    49   19   25 ar  
    50   19   56 1   
    51   20   57 1   
    52   21   26 ar  
    53   21   58 1   
    54   22   24 ar  
    55   22   25 ar  
    56   22   59 1   
    57   23   60 1   
    58   23   61 1   
    59   25   34 1   
    60   26   27 ar  
    61   26   36 1   
    62   27   37 1   
    63   28   30 ar  
    64   28   32 ar  
    65   28   34 1   
    66   33   62 1   
    67   34   63 1   
    68   35   64 1   
@<TRIPOS>SUBSTRUCTURE
     1 2JZ         1 TEMP              0 ****  ****    0 ROOT
