@<TRIPOS>MOLECULE
2JZ
   64    68     1     0     0
SMALL
bcc


@<TRIPOS>ATOM
      1 C4          0.3210   -0.0860   -0.3620 ca        1 2JZ     -0.104000
      2 C5          9.3260    0.4070   11.5870 ca        1 2JZ     -0.246300
      3 C6          0.1980   -0.7620    1.9540 ca        1 2JZ     -0.102000
      4 C7          1.4860    0.6260   -0.1010 ca        1 2JZ     -0.163000
      5 C8          9.0130   -0.7400   10.9050 ca        1 2JZ     -0.084000
      6 C10         5.8190   -7.5530    6.0350 ca        1 2JZ     -0.100000
      7 C13         8.2790    1.3450   11.8630 ca        1 2JZ      0.407200
      8 C15         3.5860   -8.3000    5.4210 ca        1 2JZ     -0.211000
      9 C17         2.5180   -1.3980    3.9830 c3        1 2JZ      0.212800
     10 C20         4.5610   -7.2740    5.4800 ca        1 2JZ      0.126600
     11 C21         1.3700   -0.0560    2.2480 ca        1 2JZ     -0.114300
     12 C22         6.6900    0.0270   10.8140 ca        1 2JZ      0.386600
     13 C24         2.0150    0.6430    1.2040 ca        1 2JZ      0.128900
     14 C26         3.6910   -2.5700    5.8090 ca        1 2JZ      0.935900
     15 C28         4.2660   -4.8300    5.6670 ca        1 2JZ      0.933900
     16 C1          6.6080  -11.4090    7.5060 c3        1 2JZ      0.110700
     17 C2          1.6960  -10.3700    5.4050 c3        1 2JZ      0.109700
     18 C3         -0.3240   -0.7800    0.6630 ca        1 2JZ     -0.142000
     19 C9          4.9900   -1.3380    9.7210 ca        1 2JZ     -0.098000
     20 C11         5.3390   -0.2030   10.4030 ca        1 2JZ     -0.161300
     21 C12         6.1060   -8.8250    6.5310 ca        1 2JZ     -0.174000
     22 C14         7.2920   -2.1260    9.7790 ca        1 2JZ     -0.159000
     23 C16         1.9020   -0.0380    3.6360 c3        1 2JZ     -0.051100
     24 C18         7.6660   -0.9650   10.4930 ca        1 2JZ     -0.132300
     25 C19         5.9710   -2.3260    9.3900 ca        1 2JZ      0.147600
     26 C23         5.1540   -9.8400    6.4740 ca        1 2JZ      0.098100
     27 C25         3.8790   -9.5700    5.9070 ca        1 2JZ      0.115100
     28 C27         4.9640   -3.5590    7.4960 ca        1 2JZ      0.934900
     29 N29         7.0190    1.1800   11.5030 nb        1 2JZ     -0.653000
     30 N30         4.3840   -2.4100    7.0060 nb        1 2JZ     -0.843000
     31 N31         3.6000   -3.7530    5.0970 nb        1 2JZ     -0.851000
     32 N32         4.9540   -4.7970    6.8630 nb        1 2JZ     -0.841000
     33 N33         2.9910   -1.4520    5.3460 nu        1 2JZ     -0.838900
     34 N34         5.5930   -3.5320    8.7570 nu        1 2JZ     -0.715300
     35 N35         4.2740   -6.0130    4.9020 nu        1 2JZ     -0.706300
     36 O36         5.3370  -11.1300    6.9300 os        1 2JZ     -0.302900
     37 O37         3.0080  -10.6410    5.8830 os        1 2JZ     -0.302900
     38 F38         3.1510    1.3430    1.4450 f         1 2JZ     -0.140900
     39 H4         -0.0920   -0.1010   -1.3820 ha        1 2JZ      0.139000
     40 H5         10.3470    0.6250   11.9240 ha        1 2JZ      0.144000
     41 H6         -0.3140   -1.3080    2.7620 ha        1 2JZ      0.140000
     42 H7          2.0030    1.1770   -0.8990 ha        1 2JZ      0.150000
     43 H8          9.7780   -1.4940   10.6660 ha        1 2JZ      0.137000
     44 H10         6.5940   -6.7730    6.0900 ha        1 2JZ      0.154000
     45 H13         8.5120    2.2760   12.4120 h4        1 2JZ      0.022100
     46 H15         2.5950   -8.0930    4.9880 ha        1 2JZ      0.140000
     47 H17         3.3570   -1.6130    3.2580 h1        1 2JZ      0.058700
     48 H17A        1.7370   -2.2000    3.8470 h1        1 2JZ      0.058700
     49 H1          6.7860  -10.7670    8.4030 h1        1 2JZ      0.044033
     50 H1A         7.4230  -11.2670    6.7560 h1        1 2JZ      0.044033
     51 H1B         6.5260  -12.4860    7.8020 h1        1 2JZ      0.044033
     52 H2          1.1730  -11.3540    5.5210 h1        1 2JZ      0.044367
     53 H2A         1.2000   -9.5850    6.0250 h1        1 2JZ      0.044367
     54 H2B         1.7220  -10.0640    4.3310 h1        1 2JZ      0.044367
     55 H3         -1.2460   -1.3410    0.4520 ha        1 2JZ      0.138000
     56 H9          3.9400   -1.4960    9.4260 ha        1 2JZ      0.160000
     57 H11         4.5740    0.5510   10.6490 ha        1 2JZ      0.153000
     58 H12         7.0980   -9.0150    6.9660 ha        1 2JZ      0.142000
     59 H14         8.0750   -2.8650    9.5470 ha        1 2JZ      0.135000
     60 H16         2.6730    0.7720    3.7410 hc        1 2JZ      0.063200
     61 H16A        1.0650    0.1970    4.3490 hc        1 2JZ      0.063200
     62 HN33        3.2360   -0.5800    5.7640 hn        1 2JZ      0.438800
     63 HN34        6.1940   -4.3100    8.9440 hn        1 2JZ      0.444800
     64 HN35        3.5910   -6.0420    4.1710 hn        1 2JZ      0.439800
@<TRIPOS>BOND
     1    1    4 ar  
     2    1   18 ar  
     3    1   39 1   
     4    2    5 ar  
     5    2    7 ar  
     6    2   40 1   
     7    3   11 ar  
     8    3   18 ar  
     9    3   41 1   
    10    4   13 ar  
    11    4   42 1   
    12    5   24 ar  
    13    5   43 1   
    14    6   10 ar  
    15    6   21 ar  
    16    6   44 1   
    17    7   29 ar  
    18    7   45 1   
    19    8   10 ar  
    20    8   27 ar  
    21    8   46 1   
    22    9   23 1   
    23    9   33 1   
    24    9   47 1   
    25    9   48 1   
    26   10   35 1   
    27   11   13 ar  
    28   11   23 1   
    29   12   20 ar  
    30   12   24 ar  
    31   12   29 ar  
    32   13   38 1   
    33   14   30 ar  
    34   14   31 ar  
    35   14   33 1   
    36   15   31 ar  
    37   15   32 ar  
    38   15   35 1   
    39   16   36 1   
    40   16   49 1   
    41   16   50 1   
    42   16   51 1   
    43   17   37 1   
    44   17   52 1   
    45   17   53 1   
    46   17   54 1   
    47   18   55 1   
    48   19   20 ar  
    49   19   25 ar  
    50   19   56 1   
    51   20   57 1   
    52   21   26 ar  
    53   21   58 1   
    54   22   24 ar  
    55   22   25 ar  
    56   22   59 1   
    57   23   60 1   
    58   23   61 1   
    59   25   34 1   
    60   26   27 ar  
    61   26   36 1   
    62   27   37 1   
    63   28   30 ar  
    64   28   32 ar  
    65   28   34 1   
    66   33   62 1   
    67   34   63 1   
    68   35   64 1   
@<TRIPOS>SUBSTRUCTURE
     1 2JZ         1 TEMP              0 ****  ****    0 ROOT
