@<TRIPOS>MOLECULE
2JZ
   64    54     1     0     0
SMALL
bcc


@<TRIPOS>ATOM
      1 C4         -5.8770    2.3530   -5.9320 c1        1 2JZ     -0.064500
      2 C5          2.5010    6.5320    4.4540 c1        1 2JZ     -0.064500
      3 C6         -5.0590    2.7890   -3.7110 c1        1 2JZ     -0.064500
      4 C7         -4.6170    1.9210   -6.3220 c1        1 2JZ     -0.064500
      5 C8          2.7390    5.3950    3.7000 c1        1 2JZ     -0.022500
      6 C10         2.5950   -3.7360   -0.9760 c1        1 2JZ     -0.064500
      7 C13         1.3400    6.6250    5.2430 c1        1 2JZ     -0.064500
      8 C15         0.6510   -4.5830    0.1890 c1        1 2JZ     -0.104500
      9 C17        -1.9320    1.5230   -2.6640 c3        1 2JZ      0.219800
     10 C20         1.2760   -3.5720   -0.5480 c1        1 2JZ      0.118800
     11 C21        -3.7840    2.3510   -4.1080 c1        1 2JZ     -0.081100
     12 C22         0.6820    4.4460    4.5100 cg        1 2JZ      0.315800
     13 C24        -3.5730    1.9190   -5.4150 c1        1 2JZ      0.098100
     14 C26        -0.3140    0.9950   -0.8870 c1        1 2JZ      0.605600
     15 C28         0.4160   -1.1780   -0.4670 c1        1 2JZ      0.601600
     16 C1          4.5400   -6.8560    1.1400 c3        1 2JZ      0.114200
     17 C2          0.2530   -7.3450    1.9410 c3        1 2JZ      0.114200
     18 C3         -6.0940    2.7900   -4.6140 c1        1 2JZ     -0.064500
     19 C9         -0.0190    2.2160    3.7410 c1        1 2JZ     -0.064500
     20 C11        -0.2540    3.3800    4.5250 c1        1 2JZ     -0.064500
     21 C12         3.3000   -4.9220   -0.6660 c1        1 2JZ     -0.064500
     22 C14         2.0710    3.1700    2.9290 c1        1 2JZ     -0.104500
     23 C16        -2.5140    2.7470   -3.3500 c3        1 2JZ     -0.086300
     24 C18         1.8360    4.3520    3.7240 cg        1 2JZ     -0.072000
     25 C19         1.1490    2.1220    2.9450 c1        1 2JZ      0.118800
     26 C23         2.6850   -5.9280    0.0650 c1        1 2JZ      0.073100
     27 C25         1.3580   -5.7700    0.4990 c1        1 2JZ      0.073100
     28 C27         0.8280    0.5060    1.0700 c1        1 2JZ      0.601600
     29 N29         0.4460    5.5920    5.2670 n1        1 2JZ     -0.453800
     30 N30         0.1970    1.3960    0.2640 n1        1 2JZ     -0.646300
     31 N31        -0.2060   -0.3050   -1.2610 n1        1 2JZ     -0.654800
     32 N32         0.9320   -0.7770    0.6950 n1        1 2JZ     -0.646300
     33 N33        -0.8820    1.9250   -1.7490 n3        1 2JZ     -0.710800
     34 N34         1.4060    0.8300    2.3370 n3        1 2JZ     -0.551400
     35 N35         0.3180   -2.5080   -1.0010 n3        1 2JZ     -0.551400
     36 O36         3.3640   -7.0670    0.3560 os        1 2JZ     -0.309400
     37 O37         1.3470   -7.1110    1.0840 os        1 2JZ     -0.309400
     38 F38        -2.5050    1.7920   -6.2610 f         1 2JZ     -0.106100
     39 H4         -6.6370    2.3520   -6.5960 ha        1 2JZ      0.089400
     40 H5          3.1220    7.2530    4.4360 ha        1 2JZ      0.089400
     41 H6         -5.2090    3.0920   -2.7930 ha        1 2JZ      0.089400
     42 H7         -4.4690    1.6210   -7.2300 ha        1 2JZ      0.089400
     43 H8          3.5870    5.3260    3.1290 ha        1 2JZ      0.083500
     44 H10         3.0390   -3.0180   -1.4990 ha        1 2JZ      0.089400
     45 H13         1.1670    7.4440    5.7810 ha        1 2JZ      0.089400
     46 H15        -0.2880   -4.4690    0.4950 ha        1 2JZ      0.091500
     47 H17        -2.6190    1.0750   -2.1780 h1        1 2JZ      0.058700
     48 H17A       -1.5390    0.8820   -3.3800 h1        1 2JZ      0.058700
     49 H1          4.8530   -7.6790    1.4580 h1        1 2JZ      0.044033
     50 H1A         5.2460   -6.4260    0.5740 h1        1 2JZ      0.044033
     51 H1B         4.3180   -6.2420    1.9400 h1        1 2JZ      0.044033
     52 H2         -0.6190   -7.1840    1.4330 h1        1 2JZ      0.044033
     53 H2A         0.3030   -6.7390    2.7020 h1        1 2JZ      0.044033
     54 H2B         0.2770   -8.2690    2.2610 h1        1 2JZ      0.044033
     55 H3         -6.9870    3.0960   -4.3380 ha        1 2JZ      0.089400
     56 H9         -0.6840    1.4530    3.7540 ha        1 2JZ      0.089400
     57 H11        -1.0930    3.4460    5.1020 ha        1 2JZ      0.089400
     58 H12         4.2570   -5.0370   -0.9790 ha        1 2JZ      0.089400
     59 H14         2.9150    3.0990    2.3520 ha        1 2JZ      0.091500
     60 H16        -1.8380    3.1260   -4.0040 hc        1 2JZ      0.062700
     61 H16A       -2.7370    3.4330   -2.6690 hc        1 2JZ      0.062700
     62 HN33       -0.5940    2.8450   -1.7200 hn        1 2JZ      0.442800
     63 HN34        1.9360    0.2130    2.7740 hn        1 2JZ      0.445800
     64 HN35       -0.3070   -2.7020   -1.5520 hn        1 2JZ      0.445800
@<TRIPOS>BOND
     1    1    4 3   
     2    1   39 1   
     3    2    7 3   
     4    2   40 1   
     5    3   18 3   
     6    3   41 1   
     7    4   42 1   
     8    5   24 3   
     9    5   43 1   
    10    6   21 3   
    11    6   44 1   
    12    7   45 1   
    13    8   10 3   
    14    8   46 1   
    15    9   23 1   
    16    9   33 1   
    17    9   47 1   
    18    9   48 1   
    19   10   35 1   
    20   11   13 3   
    21   11   23 1   
    22   12   24 1   
    23   12   29 3   
    24   13   38 1   
    25   14   31 3   
    26   14   33 1   
    27   15   32 3   
    28   15   35 1   
    29   16   36 1   
    30   16   49 1   
    31   16   50 1   
    32   16   51 1   
    33   17   37 1   
    34   17   52 1   
    35   17   53 1   
    36   17   54 1   
    37   18   55 1   
    38   19   20 3   
    39   19   56 1   
    40   20   57 1   
    41   21   58 1   
    42   22   25 3   
    43   22   59 1   
    44   23   60 1   
    45   23   61 1   
    46   25   34 1   
    47   26   27 3   
    48   26   36 1   
    49   27   37 1   
    50   28   30 3   
    51   28   34 1   
    52   33   62 1   
    53   34   63 1   
    54   35   64 1   
@<TRIPOS>SUBSTRUCTURE
     1 2JZ         1 TEMP              0 ****  ****    0 ROOT
