@<TRIPOS>MOLECULE
2JZ
   67    71     1     0     0
SMALL
bcc


@<TRIPOS>ATOM
      1 C4          0.8860   -0.1020    0.7430 ca        1 2JZ     -0.062000
      2 C5         10.1360    0.2560   10.7430 ca        1 2JZ     -0.196300
      3 C6         -0.0540   -1.8660    2.1080 ca        1 2JZ     -0.078000
      4 C7          1.5440    0.4220    1.8570 ca        1 2JZ     -0.124000
      5 C8          9.3530   -0.8590   10.5850 ca        1 2JZ     -0.076000
      6 C10         5.6030   -7.7450    7.0570 ca        1 2JZ     -0.044000
      7 C13         9.5890    1.5390   10.4000 ca        1 2JZ      0.492200
      8 C15         4.6900   -7.4990    4.7830 ca        1 2JZ     -0.180000
      9 C17         1.3710   -2.9140    5.0810 c3        1 2JZ      0.124800
     10 C20         5.4570   -7.0050    5.8720 ca        1 2JZ     -0.156400
     11 C21         0.5890   -1.3630    3.2430 ca        1 2JZ     -0.207300
     12 C22         7.5540    0.6130    9.7900 ca        1 2JZ      0.452600
     13 C24         1.4000   -0.2120    3.0990 ca        1 2JZ      0.067900
     14 C26         3.7160   -2.9670    5.9300 ca        1 2JZ      0.838900
     15 C28         5.3480   -4.5830    6.2430 ca        1 2JZ      0.827900
     16 C1          3.8310  -11.5890    7.2210 c3        1 2JZ      0.094700
     17 C2          3.4120   -8.8160    2.6050 c3        1 2JZ      0.100700
     18 C3          0.0980   -1.2460    0.8670 ca        1 2JZ     -0.107000
     19 C9          5.3770   -0.3010    9.1750 ca        1 2JZ     -0.145000
     20 C11         6.2060    0.7780    9.3270 ca        1 2JZ     -0.101300
     21 C12         5.0150   -8.9990    7.1580 ca        1 2JZ     -0.208000
     22 C14         7.1630   -1.8180    9.9260 ca        1 2JZ     -0.020000
     23 C16         0.3080   -1.9380    4.5820 c3        1 2JZ     -0.056100
     24 C18         8.0170   -0.7120   10.0940 ca        1 2JZ     -0.167300
     25 C19         5.8570   -1.6090    9.4860 ca        1 2JZ     -0.130400
     26 C23         4.2700   -9.5290    6.0930 ca        1 2JZ      0.237100
     27 C25         4.1100   -8.7510    4.8870 ca        1 2JZ      0.138100
     28 C27         4.7330   -3.2020    8.0000 ca        1 2JZ      0.833900
     29 N29         8.3590    1.7190    9.9410 nb        1 2JZ     -0.641000
     30 N30         3.7990   -2.5390    7.2370 nb        1 2JZ     -0.659000
     31 N31         4.4630   -3.9820    5.3760 nb        1 2JZ     -0.659000
     32 N32         5.5320   -4.2330    7.5620 nb        1 2JZ     -0.661000
     33 N33         2.7410   -2.2700    5.0520 n4        1 2JZ     -0.769700
     34 N34         4.9180   -2.7320    9.4170 n4        1 2JZ     -0.594100
     35 N35         6.1610   -5.7370    5.7150 n4        1 2JZ     -0.580100
     36 O36         3.6620  -10.7310    6.0790 os        1 2JZ     -0.245900
     37 O37         3.3400   -9.3480    3.9300 os        1 2JZ     -0.268900
     38 F38         2.0430    0.2940    4.1910 f         1 2JZ     -0.178900
     39 H4          0.9810    0.4040   -0.2340 ha        1 2JZ      0.184000
     40 H5         11.1680    0.1960   11.1270 ha        1 2JZ      0.194000
     41 H6         -0.7130   -2.7460    2.1960 ha        1 2JZ      0.156000
     42 H7          2.1530    1.3380    1.7740 ha        1 2JZ      0.181000
     43 H8          9.7290   -1.8630   10.8390 ha        1 2JZ      0.163000
     44 H10         6.1980   -7.3670    7.9060 ha        1 2JZ      0.155000
     45 H13        10.2060    2.4570   10.5180 h4        1 2JZ      0.078100
     46 H15         4.5800   -6.9220    3.8520 ha        1 2JZ      0.161000
     47 H17         1.1400   -3.2140    6.1420 hx        1 2JZ      0.112700
     48 H17A        1.4170   -3.8300    4.4250 hx        1 2JZ      0.112700
     49 H1          4.9120  -11.8270    7.3680 h1        1 2JZ      0.083700
     50 H1A         3.3840  -11.1160    8.1260 h1        1 2JZ      0.083700
     51 H1B         3.2550  -12.5040    6.9160 h1        1 2JZ      0.083700
     52 H2          2.8140   -9.5590    2.0110 h1        1 2JZ      0.067700
     53 H2A         2.9380   -7.8060    2.5690 h1        1 2JZ      0.067700
     54 H2B         4.4690   -8.7810    2.2480 h1        1 2JZ      0.067700
     55 H3         -0.4300   -1.6500   -0.0150 ha        1 2JZ      0.180000
     56 H9          4.3370   -0.1480    8.8450 ha        1 2JZ      0.155000
     57 H11         5.8390    1.8000    9.1080 ha        1 2JZ      0.203000
     58 H12         5.1570   -9.5910    8.0790 ha        1 2JZ      0.192000
     59 H14         7.5490   -2.8220   10.1740 ha        1 2JZ      0.158000
     60 H16         0.1670   -1.1060    5.3290 hc        1 2JZ      0.116200
     61 H16A       -0.6580   -2.5240    4.5580 hc        1 2JZ      0.116200
     62 HN33        3.0820   -2.2640    4.0730 hn        1 2JZ      0.510800
     63 HN34        5.2680   -3.5180    9.9920 hn        1 2JZ      0.503300
     64 HN35        7.0560   -5.7770    6.2350 hn        1 2JZ      0.502300
     65 H332        2.6410   -1.2670    5.3450 hn        1 2JZ      0.510800
     66 H342        4.0000   -2.4170    9.7850 hn        1 2JZ      0.503300
     67 H352        6.3530   -5.5750    4.7100 hn        1 2JZ      0.502300
@<TRIPOS>BOND
     1    1    4 ar  
     2    1   18 ar  
     3    1   39 1   
     4    2    5 ar  
     5    2    7 ar  
     6    2   40 1   
     7    3   11 ar  
     8    3   18 ar  
     9    3   41 1   
    10    4   13 ar  
    11    4   42 1   
    12    5   24 ar  
    13    5   43 1   
    14    6   10 ar  
    15    6   21 ar  
    16    6   44 1   
    17    7   29 ar  
    18    7   45 1   
    19    8   10 ar  
    20    8   27 ar  
    21    8   46 1   
    22    9   23 1   
    23    9   33 1   
    24    9   47 1   
    25    9   48 1   
    26   10   35 1   
    27   11   13 ar  
    28   11   23 1   
    29   12   20 ar  
    30   12   24 ar  
    31   12   29 ar  
    32   13   38 1   
    33   14   30 ar  
    34   14   31 ar  
    35   14   33 1   
    36   15   31 ar  
    37   15   32 ar  
    38   15   35 1   
    39   16   36 1   
    40   16   49 1   
    41   16   50 1   
    42   16   51 1   
    43   17   37 1   
    44   17   52 1   
    45   17   53 1   
    46   17   54 1   
    47   18   55 1   
    48   19   20 ar  
    49   19   25 ar  
    50   19   56 1   
    51   20   57 1   
    52   21   26 ar  
    53   21   58 1   
    54   22   24 ar  
    55   22   25 ar  
    56   22   59 1   
    57   23   60 1   
    58   23   61 1   
    59   25   34 1   
    60   26   27 ar  
    61   26   36 1   
    62   27   37 1   
    63   28   30 ar  
    64   28   32 ar  
    65   28   34 1   
    66   33   62 1   
    67   33   65 1   
    68   34   63 1   
    69   34   66 1   
    70   35   64 1   
    71   35   67 1   
@<TRIPOS>SUBSTRUCTURE
     1 2JZ         1 TEMP              0 ****  ****    0 ROOT
