@<TRIPOS>MOLECULE
2K0
   53    57     1     0     0
SMALL
bcc


@<TRIPOS>ATOM
      1 C1         -0.1300    0.3080    0.1370 ca        1 2K0     -0.132000
      2 C2          1.2630    0.3470    0.0080 ca        1 2K0      0.036400
      3 C3          2.0800    0.2290    1.1410 ca        1 2K0     -0.149600
      4 C7          3.5680    0.2780    1.0500 c         1 2K0      0.624900
      5 C8          4.2290   -0.9750    0.7360 cc        1 2K0     -0.231400
      6 C9          3.6220   -2.2130    0.4780 cd        1 2K0     -0.026100
      7 C10         5.8520   -2.5820    0.3040 ca        1 2K0      0.398800
      8 C11         5.6570   -1.1780    0.6310 ca        1 2K0     -0.146100
      9 C12         6.7840   -0.3680    0.7650 ca        1 2K0     -0.047000
     10 C13         8.0410   -0.9510    0.5830 ca        1 2K0     -0.113300
     11 C14         8.1140   -2.3430    0.2670 ca        1 2K0      0.409200
     12 C15         9.2440   -0.1810    0.7060 cc        1 2K0     -0.210300
     13 C16         9.3650    1.1950    1.1570 cc        1 2K0      0.312200
     14 C19        13.2540    0.3190   -0.9170 c3        1 2K0     -0.093400
     15 C20        14.7760    0.3800   -1.0320 c3        1 2K0      0.163300
     16 C21        15.0430   -0.3900    1.2530 c3        1 2K0      0.163300
     17 C22        13.5290   -0.4760    1.4420 c3        1 2K0     -0.093400
     18 CL          1.9430    0.5450   -1.5360 cl        1 2K0     -0.078400
     19 C4          1.4900    0.0880    2.4000 ca        1 2K0     -0.097000
     20 C5          0.0980    0.0520    2.5320 ca        1 2K0     -0.090300
     21 C6         -0.4900   -0.0750    3.8990 c3        1 2K0      0.175700
     22 O          -1.8580   -0.4420    3.7870 oh        1 2K0     -0.599800
     23 C          -0.7080    0.1590    1.3950 ca        1 2K0     -0.086000
     24 O1          4.1830    1.3300    1.2640 o         1 2K0     -0.524100
     25 N1          7.0720   -3.1660    0.1230 nb        1 2K0     -0.661000
     26 N           4.5780   -3.1820    0.2220 na        1 2K0     -0.275100
     27 C17        10.5690   -0.5690    0.4230 cd        1 2K0     -0.130300
     28 N3         11.3800    0.5350    0.7040 na        1 2K0      0.091400
     29 N2         10.6620    1.5850    1.1410 nd        1 2K0     -0.508800
     30 C18        12.8340    0.5570    0.5420 c3        1 2K0      0.064000
     31 N4         15.4520   -0.5310   -0.1300 n3        1 2K0     -0.824200
     32 H1         -0.7690    0.4020   -0.7550 ha        1 2K0      0.151000
     33 H2          2.5560   -2.4590    0.4600 h4        1 2K0      0.180000
     34 H3          6.6650    0.7000    1.0060 ha        1 2K0      0.166000
     35 H4          9.1020   -2.8180    0.1220 h4        1 2K0      0.019100
     36 H5          8.5640    1.8630    1.4740 h4        1 2K0      0.049100
     37 H7         12.8830   -0.6790   -1.2670 hc        1 2K0      0.060950
     38 H8         15.0970    1.4530   -0.8720 h1        1 2K0      0.034200
     39 H9         15.0680    0.0910   -2.0820 h1        1 2K0      0.034200
     40 H10        15.5250   -1.2280    1.8320 h1        1 2K0      0.034200
     41 H11        15.3970    0.5840    1.7040 h1        1 2K0      0.034200
     42 H12        13.2920   -0.2770    2.5180 hc        1 2K0      0.060950
     43 H13        13.1700   -1.5080    1.1920 hc        1 2K0      0.060950
     44 H14         2.1310    0.0130    3.2920 ha        1 2K0      0.145000
     45 H15        -0.4020    0.9100    4.4370 h1        1 2K0      0.036700
     46 H16         0.0630   -0.8600    4.4870 h1        1 2K0      0.036700
     47 H17        -2.2060   -0.4610    4.6860 ho        1 2K0      0.406000
     48 H18        -1.8050    0.1250    1.5010 ha        1 2K0      0.161000
     49 H19         4.4110   -4.1290   -0.0010 hn        1 2K0      0.313700
     50 H20        10.9780   -1.5080    0.0550 h4        1 2K0      0.177000
     51 H21        13.1950    1.5870    0.8470 h1        1 2K0      0.086700
     52 H22        16.4450   -0.4210   -0.2090 hn        1 2K0      0.368800
     53 H6         12.8140    1.1050   -1.5820 hc        1 2K0      0.060950
@<TRIPOS>BOND
     1    1    2 ar  
     2    1   23 ar  
     3    1   32 1   
     4    2    3 ar  
     5    2   18 1   
     6    3    4 1   
     7    3   19 ar  
     8    4    5 1   
     9    4   24 2   
    10    5    6 2   
    11    5    8 1   
    12    6   26 1   
    13    6   33 1   
    14    7    8 ar  
    15    7   25 ar  
    16    7   26 1   
    17    8    9 ar  
    18    9   10 ar  
    19    9   34 1   
    20   10   11 ar  
    21   10   12 1   
    22   11   25 ar  
    23   11   35 1   
    24   12   13 1   
    25   12   27 2   
    26   13   29 2   
    27   13   36 1   
    28   14   15 1   
    29   14   30 1   
    30   14   37 1   
    31   14   53 1   
    32   15   31 1   
    33   15   38 1   
    34   15   39 1   
    35   16   17 1   
    36   16   31 1   
    37   16   40 1   
    38   16   41 1   
    39   17   30 1   
    40   17   42 1   
    41   17   43 1   
    42   19   20 ar  
    43   19   44 1   
    44   20   21 1   
    45   20   23 ar  
    46   21   22 1   
    47   21   45 1   
    48   21   46 1   
    49   22   47 1   
    50   23   48 1   
    51   26   49 1   
    52   27   28 1   
    53   27   50 1   
    54   28   29 1   
    55   28   30 1   
    56   30   51 1   
    57   31   52 1   
@<TRIPOS>SUBSTRUCTURE
     1 2K0         1 TEMP              0 ****  ****    0 ROOT
