@<TRIPOS>MOLECULE
2K0
   53    57     1     0     0
SMALL
bcc


@<TRIPOS>ATOM
      1 C1         -0.1230    0.3230    0.1070 ca        1 2K0     -0.132000
      2 C2          1.2710    0.3570   -0.0150 ca        1 2K0      0.036400
      3 C3          2.0820    0.2410    1.1220 ca        1 2K0     -0.149600
      4 C7          3.5700    0.2850    1.0390 c         1 2K0      0.624900
      5 C8          4.2300   -0.9700    0.7320 cc        1 2K0     -0.231400
      6 C9          3.6200   -2.2080    0.4750 cd        1 2K0     -0.026100
      7 C10         5.8500   -2.5820    0.3130 ca        1 2K0      0.398800
      8 C11         5.6580   -1.1770    0.6340 ca        1 2K0     -0.146100
      9 C12         6.7860   -0.3700    0.7710 ca        1 2K0     -0.046000
     10 C13         8.0420   -0.9560    0.5950 ca        1 2K0     -0.113300
     11 C14         8.1130   -2.3500    0.2850 ca        1 2K0      0.409200
     12 C15         9.2460   -0.1890    0.7210 cc        1 2K0     -0.210300
     13 C16         9.3700    1.1850    1.1760 cc        1 2K0      0.312200
     14 C19        13.2570    0.3090   -0.9010 c3        1 2K0     -0.093400
     15 C20        14.7790    0.3680   -1.0160 c3        1 2K0      0.163300
     16 C21        15.0450   -0.4110    1.2660 c3        1 2K0      0.163300
     17 C22        13.5310   -0.4950    1.4550 c3        1 2K0     -0.093400
     18 Cl          1.9590    0.5480   -1.5570 cl        1 2K0     -0.078400
     19 C4          1.4840    0.1060    2.3790 ca        1 2K0     -0.097000
     20 C5          0.0920    0.0740    2.5040 ca        1 2K0     -0.090300
     21 C6         -0.5030   -0.0470    3.8680 c3        1 2K0      0.175700
     22 O          -1.8710   -0.4110    3.7510 oh        1 2K0     -0.599800
     23 C          -0.7080    0.1800    1.3620 ca        1 2K0     -0.086000
     24 O1          4.1870    1.3370    1.2530 o         1 2K0     -0.524100
     25 N1          7.0690   -3.1710    0.1390 nb        1 2K0     -0.661000
     26 N           4.5750   -3.1800    0.2270 na        1 2K0     -0.275100
     27 C17        10.5710   -0.5780    0.4380 cd        1 2K0     -0.130300
     28 N3         11.3840    0.5230    0.7220 na        1 2K0      0.091400
     29 N2         10.6670    1.5730    1.1620 nd        1 2K0     -0.508800
     30 C18        12.8370    0.5430    0.5590 c3        1 2K0      0.064000
     31 N4         15.4530   -0.5480   -0.1180 n7        1 2K0     -0.824200
     32 H1         -0.7570    0.4150   -0.7880 ha        1 2K0      0.151000
     33 H2          2.5530   -2.4510    0.4540 h4        1 2K0      0.180000
     34 H3          6.6690    0.7000    1.0080 ha        1 2K0      0.166000
     35 H4          9.1000   -2.8270    0.1460 h4        1 2K0      0.019100
     36 H5          8.5700    1.8540    1.4960 h4        1 2K0      0.049100
     37 H7         12.8180    1.0990   -1.5630 hc        1 2K0      0.060950
     38 H8         15.1020    1.4400   -0.8520 h1        1 2K0      0.034200
     39 H9         15.0700    0.0830   -2.0670 h1        1 2K0      0.034200
     40 H10        15.4020    0.5610    1.7200 h1        1 2K0      0.034200
     41 H11        15.5260   -1.2520    1.8410 h1        1 2K0      0.034200
     42 H12        13.2950   -0.3000    2.5320 hc        1 2K0      0.060950
     43 H13        13.1700   -1.5260    1.2010 hc        1 2K0      0.060950
     44 H14         2.1200    0.0320    3.2750 ha        1 2K0      0.145000
     45 H15         0.0440   -0.8310    4.4610 h1        1 2K0      0.036700
     46 H16        -0.4150    0.9400    4.4030 h1        1 2K0      0.036700
     47 H17        -2.2240   -0.4250    4.6480 ho        1 2K0      0.406000
     48 H18        -1.8050    0.1480    1.4630 ha        1 2K0      0.161000
     49 H19         4.4060   -4.1270    0.0070 hn        1 2K0      0.313700
     50 H20        10.9780   -1.5180    0.0670 h4        1 2K0      0.177000
     51 H21        13.2010    1.5710    0.8680 h1        1 2K0      0.086700
     52 H22        16.4470   -0.4390   -0.1970 hn        1 2K0      0.368800
     53 H6         12.8840   -0.6870   -1.2540 hc        1 2K0      0.060950
@<TRIPOS>BOND
     1    1    2 ar  
     2    1   23 ar  
     3    1   32 1   
     4    2    3 ar  
     5    2   18 1   
     6    3    4 1   
     7    3   19 ar  
     8    4    5 1   
     9    4   24 2   
    10    5    6 2   
    11    5    8 1   
    12    6   26 1   
    13    6   33 1   
    14    7    8 ar  
    15    7   25 ar  
    16    7   26 1   
    17    8    9 ar  
    18    9   10 ar  
    19    9   34 1   
    20   10   11 ar  
    21   10   12 1   
    22   11   25 ar  
    23   11   35 1   
    24   12   13 1   
    25   12   27 2   
    26   13   29 2   
    27   13   36 1   
    28   14   15 1   
    29   14   30 1   
    30   14   37 1   
    31   14   53 1   
    32   15   31 1   
    33   15   38 1   
    34   15   39 1   
    35   16   17 1   
    36   16   31 1   
    37   16   40 1   
    38   16   41 1   
    39   17   30 1   
    40   17   42 1   
    41   17   43 1   
    42   19   20 ar  
    43   19   44 1   
    44   20   21 1   
    45   20   23 ar  
    46   21   22 1   
    47   21   45 1   
    48   21   46 1   
    49   22   47 1   
    50   23   48 1   
    51   26   49 1   
    52   27   28 1   
    53   27   50 1   
    54   28   29 1   
    55   28   30 1   
    56   30   51 1   
    57   31   52 1   
@<TRIPOS>SUBSTRUCTURE
     1 2K0         1 TEMP              0 ****  ****    0 ROOT
