@<TRIPOS>MOLECULE
2K0
   53    57     1     0     0
SMALL
bcc


@<TRIPOS>ATOM
      1 C1         -0.1270    0.2780    0.1200 ca        1 2K0     -0.132000
      2 C2          1.2660    0.3180   -0.0050 ca        1 2K0      0.036400
      3 C3          2.0790    0.2150    1.1320 ca        1 2K0     -0.149600
      4 C7          3.5670    0.2670    1.0460 c         1 2K0      0.624900
      5 C8          4.2330   -0.9880    0.7470 cc        1 2K0     -0.231400
      6 C9          3.6290   -2.2310    0.5000 cd        1 2K0     -0.026100
      7 C10         5.8600   -2.5950    0.3360 ca        1 2K0      0.398800
      8 C11         5.6620   -1.1890    0.6460 ca        1 2K0     -0.146100
      9 C12         6.7860   -0.3740    0.7750 ca        1 2K0     -0.046000
     10 C13         8.0450   -0.9560    0.6010 ca        1 2K0     -0.113300
     11 C14         8.1220   -2.3510    0.3000 ca        1 2K0      0.409200
     12 C15         9.2450   -0.1810    0.7180 cc        1 2K0     -0.210300
     13 C16         9.3630    1.1960    1.1650 cc        1 2K0      0.312200
     14 C19        13.2460    0.3310   -0.9220 c3        1 2K0     -0.093400
     15 C20        14.7680    0.3970   -1.0440 c3        1 2K0      0.163300
     16 C21        15.0470   -0.3700    1.2400 c3        1 2K0      0.163300
     17 C22        13.5350   -0.4610    1.4360 c3        1 2K0     -0.093400
     18 CL          1.9510    0.5000   -1.5490 cl        1 2K0     -0.078400
     19 C4          1.4850    0.0880    2.3910 ca        1 2K0     -0.097000
     20 C5          0.0930    0.0500    2.5180 ca        1 2K0     -0.090300
     21 C6         -0.4990   -0.0630    3.8850 c3        1 2K0      0.175700
     22 O          -1.8660   -0.4330    3.7730 oh        1 2K0     -0.599800
     23 C          -0.7090    0.1420    1.3770 ca        1 2K0     -0.086000
     24 O1          4.1800    1.3220    1.2510 o         1 2K0     -0.524100
     25 N1          7.0830   -3.1790    0.1630 nb        1 2K0     -0.661000
     26 N           4.5890   -3.2000    0.2570 na        1 2K0     -0.275100
     27 C17        10.5710   -0.5650    0.4320 cd        1 2K0     -0.130300
     28 N3         11.3790    0.5420    0.7070 na        1 2K0      0.091400
     29 N2         10.6590    1.5910    1.1440 nd        1 2K0     -0.508800
     30 C18        12.8320    0.5690    0.5380 c3        1 2K0      0.064000
     31 N4         15.4510   -0.5110   -0.1450 n3        1 2K0     -0.824200
     32 H1         -0.7630    0.3590   -0.7750 ha        1 2K0      0.151000
     33 H2          2.5630   -2.4790    0.4830 h4        1 2K0      0.180000
     34 H3          6.6640    0.6970    1.0040 ha        1 2K0      0.166000
     35 H4          9.1120   -2.8250    0.1630 h4        1 2K0      0.019100
     36 H5          8.5610    1.8620    1.4850 h4        1 2K0      0.049100
     37 H7         12.8000    1.1150   -1.5860 hc        1 2K0      0.060950
     38 H8         15.0860    1.4710   -0.8870 h1        1 2K0      0.034200
     39 H9         15.0560    0.1080   -2.0950 h1        1 2K0      0.034200
     40 H10        15.4010    0.6060    1.6880 h1        1 2K0      0.034200
     41 H11        15.5350   -1.2050    1.8180 h1        1 2K0      0.034200
     42 H12        13.1780   -1.4940    1.1880 hc        1 2K0      0.060950
     43 H13        13.3020   -0.2620    2.5130 hc        1 2K0      0.060950
     44 H14         2.1230    0.0250    3.2860 ha        1 2K0      0.145000
     45 H15         0.0530   -0.8400    4.4830 h1        1 2K0      0.036700
     46 H16        -0.4140    0.9280    4.4120 h1        1 2K0      0.036700
     47 H17        -2.2170   -0.4420    4.6710 ho        1 2K0      0.406000
     48 H18        -1.8060    0.1060    1.4800 ha        1 2K0      0.161000
     49 H19         4.4240   -4.1490    0.0440 hn        1 2K0      0.313700
     50 H20        10.9820   -1.5040    0.0640 h4        1 2K0      0.177000
     51 H21        13.1910    1.6000    0.8400 h1        1 2K0      0.086700
     52 H22        16.4440   -0.3970   -0.2280 hn        1 2K0      0.368800
     53 H6         12.8770   -0.6690   -1.2690 hc        1 2K0      0.060950
@<TRIPOS>BOND
     1    1    2 ar  
     2    1   23 ar  
     3    1   32 1   
     4    2    3 ar  
     5    2   18 1   
     6    3    4 1   
     7    3   19 ar  
     8    4    5 1   
     9    4   24 2   
    10    5    6 2   
    11    5    8 1   
    12    6   26 1   
    13    6   33 1   
    14    7    8 ar  
    15    7   25 ar  
    16    7   26 1   
    17    8    9 ar  
    18    9   10 ar  
    19    9   34 1   
    20   10   11 ar  
    21   10   12 1   
    22   11   25 ar  
    23   11   35 1   
    24   12   13 1   
    25   12   27 2   
    26   13   29 2   
    27   13   36 1   
    28   14   15 1   
    29   14   30 1   
    30   14   37 1   
    31   14   53 1   
    32   15   31 1   
    33   15   38 1   
    34   15   39 1   
    35   16   17 1   
    36   16   31 1   
    37   16   40 1   
    38   16   41 1   
    39   17   30 1   
    40   17   42 1   
    41   17   43 1   
    42   19   20 ar  
    43   19   44 1   
    44   20   21 1   
    45   20   23 ar  
    46   21   22 1   
    47   21   45 1   
    48   21   46 1   
    49   22   47 1   
    50   23   48 1   
    51   26   49 1   
    52   27   28 1   
    53   27   50 1   
    54   28   29 1   
    55   28   30 1   
    56   30   51 1   
    57   31   52 1   
@<TRIPOS>SUBSTRUCTURE
     1 2K0         1 TEMP              0 ****  ****    0 ROOT
