@<TRIPOS>MOLECULE
2K1
   14    14     1     0     0
SMALL
bcc


@<TRIPOS>ATOM
      1 O           0.0450   -0.1150    0.1310 o         1 2K1     -0.808800
      2 C5          1.3040   -0.1590    0.0650 c         1 2K1      0.827100
      3 O1          2.0810   -0.2760    1.0470 o         1 2K1     -0.808800
      4 C4          1.8980   -0.0600   -1.3260 cc        1 2K1      0.249200
      5 C3          1.3190    0.0740   -2.5810 cd        1 2K1     -0.305300
      6 C2          2.3940    0.1150   -3.5400 cd        1 2K1     -0.272300
      7 O2          3.2850   -0.1060   -1.4540 os        1 2K1     -0.333800
      8 C1          3.5710    0.0030   -2.8210 cc        1 2K1      0.177000
      9 C           4.9840   -0.0230   -3.1950 c3        1 2K1     -0.107400
     10 H2          0.2570    0.1370   -2.7920 ha        1 2K1      0.153000
     11 H3          2.2880    0.2150   -4.6140 ha        1 2K1      0.127000
     12 H4          5.4530   -0.9920   -2.8890 hc        1 2K1      0.034367
     13 H5          5.5400    0.8050   -2.6860 hc        1 2K1      0.034367
     14 H6          5.0870    0.0970   -4.3010 hc        1 2K1      0.034367
@<TRIPOS>BOND
     1    1    2 1   
     2    2    3 1   
     3    2    4 1   
     4    4    5 2   
     5    4    7 1   
     6    5    6 1   
     7    5   10 1   
     8    6    8 2   
     9    6   11 1   
    10    7    8 1   
    11    8    9 1   
    12    9   12 1   
    13    9   13 1   
    14    9   14 1   
@<TRIPOS>SUBSTRUCTURE
     1 2K1         1 TEMP              0 ****  ****    0 ROOT
