@<TRIPOS>MOLECULE
2K2
   74    82     1     0     0
SMALL
bcc


@<TRIPOS>ATOM
      1 OAD         0.1790   -1.6570    0.1890 o         1 2K2     -0.613500
      2 CAX         1.3910   -1.4070    0.1470 c         1 2K2      0.722100
      3 NAU         2.2760   -1.5970    1.2150 ns        1 2K2     -0.582900
      4 CAS         3.6480   -1.2870    0.8480 c3        1 2K2      0.136300
      5 CBA         3.5540   -0.7810   -0.5750 ca        1 2K2     -0.052300
      6 CBB         2.1900   -0.8470   -0.9900 ca        1 2K2     -0.130600
      7 CBH         1.8160   -0.4440   -2.2510 cp        1 2K2      0.047000
      8 CBC         0.5700   -0.4200   -3.0040 cp        1 2K2     -0.076000
      9 CAO        -0.7290   -0.7960   -2.6950 ca        1 2K2     -0.050000
     10 CAI        -1.7150   -0.6650   -3.6770 ca        1 2K2     -0.148000
     11 CAK        -1.4110   -0.1660   -4.9440 ca        1 2K2     -0.088000
     12 CAQ        -0.1150    0.2290   -5.2840 ca        1 2K2     -0.166000
     13 CBE         0.8780    0.1070   -4.3130 ca        1 2K2     -0.019200
     14 NBM         4.6740    3.4230   -7.5070 nx        1 2K2     -0.583200
     15 CBI         2.8330    0.0820   -3.1470 ca        1 2K2     -0.045200
     16 CBJ         4.1610    0.1330   -2.7520 ca        1 2K2     -0.000200
     17 CBG         4.5300   -0.3150   -1.4220 cp        1 2K2     -0.037000
     18 CBD         5.9680   -0.1350   -1.3250 cp        1 2K2     -0.060000
     19 CAP         6.8690   -0.3630   -0.2960 ca        1 2K2     -0.072000
     20 CAJ         8.2150   -0.0490   -0.4940 ca        1 2K2     -0.139000
     21 CAL         8.6460    0.5030   -1.7000 ca        1 2K2     -0.098000
     22 CAR         7.7610    0.7500   -2.7520 ca        1 2K2     -0.167000
     23 CBF         6.4160    0.4120   -2.5870 ca        1 2K2     -0.013200
     24 NBN         2.2450    0.5100   -4.3640 na        1 2K2     -0.089300
     25 CBQ         5.3740    0.6090   -4.9010 c3        1 2K2      0.265500
     26 CBP         5.4730    2.0720   -5.5070 c3        1 2K2      0.105100
     27 OAV         5.0760    3.1270   -4.6480 os        1 2K2     -0.418600
     28 CAA         6.1190    3.6970   -3.8640 c3        1 2K2      0.105700
     29 CAC         6.5720   -0.2000   -5.4650 c3        1 2K2     -0.114100
     30 OAW         4.2750   -0.1040   -5.4990 os        1 2K2     -0.414600
     31 CBK         2.9890    0.5030   -5.6050 c3        1 2K2      0.262800
     32 CAT         3.0840    1.9210   -6.2230 c3        1 2K2     -0.130400
     33 CAB         3.8660    4.5510   -6.9810 c3        1 2K2      0.080100
     34 CAY         4.3370    3.1710   -8.9750 c         1 2K2      0.571700
     35 OAE         3.1470    3.1160   -9.2530 o         1 2K2     -0.424100
     36 CAZ         5.4770    3.0580   -9.8870 ca        1 2K2     -0.205600
     37 CAM         6.7140    2.5190   -9.4990 ca        1 2K2     -0.072000
     38 CAG         7.7450    2.4220  -10.4270 ca        1 2K2     -0.122000
     39 CAF         7.5540    2.8590  -11.7420 ca        1 2K2     -0.055000
     40 CAH         6.3230    3.3850  -12.1320 ca        1 2K2     -0.122000
     41 CAN         5.2800    3.4820  -11.2130 ca        1 2K2     -0.072000
     42 NBO         5.2970    0.6240   -3.4480 na        1 2K2     -0.089300
     43 CBL         4.5090    2.1410   -6.7220 c3        1 2K2      0.127500
     44 H1          4.3060   -2.1990    0.9080 h1        1 2K2      0.066200
     45 H2         -0.9700   -1.1910   -1.6920 ha        1 2K2      0.186000
     46 H3         -2.7490   -0.9630   -3.4440 ha        1 2K2      0.149000
     47 H4         -2.2090   -0.0810   -5.6990 ha        1 2K2      0.140000
     48 H5          0.1060    0.6240   -6.2840 ha        1 2K2      0.127000
     49 H6          6.5220   -0.7800    0.6610 ha        1 2K2      0.147000
     50 H7          8.9410   -0.2330    0.3130 ha        1 2K2      0.149000
     51 H8          9.7100    0.7560   -1.8300 ha        1 2K2      0.142000
     52 H9          8.1360    1.2120   -3.6740 ha        1 2K2      0.123000
     53 H10         6.5400    2.2250   -5.8390 h1        1 2K2      0.052700
     54 H11         6.6200    2.9340   -3.2220 h1        1 2K2      0.056700
     55 H12         6.8650    4.1960   -4.5300 h1        1 2K2      0.056700
     56 H13         5.5840    4.4480   -3.2280 h1        1 2K2      0.056700
     57 H14         7.5340    0.3360   -5.3050 hc        1 2K2      0.067033
     58 H15         6.4120   -0.3520   -6.5600 hc        1 2K2      0.067033
     59 H16         6.6210   -1.2010   -4.9730 hc        1 2K2      0.067033
     60 H17         2.4720   -0.1850   -6.3540 h2        1 2K2      0.101700
     61 H18         2.8220    2.7030   -5.4590 hc        1 2K2      0.097200
     62 H19         2.3490    1.9890   -7.0670 hc        1 2K2      0.097200
     63 H20         2.7750    4.3510   -7.1610 hx        1 2K2      0.112033
     64 H21         4.0510    4.6580   -5.8750 hx        1 2K2      0.112033
     65 H22         4.1670    5.4900   -7.5170 hx        1 2K2      0.112033
     66 H23         6.8770    2.1370   -8.4790 ha        1 2K2      0.147000
     67 H24         8.7150    1.9920  -10.1270 ha        1 2K2      0.167000
     68 H25         8.3780    2.7810  -12.4720 ha        1 2K2      0.168000
     69 H26         6.1680    3.7220  -13.1710 ha        1 2K2      0.167000
     70 H27         4.2990    3.8830  -11.5220 ha        1 2K2      0.147000
     71 H28         4.7980    1.3000   -7.4280 hx        1 2K2      0.109700
     72 H29         2.0550   -2.1230    2.0190 hn        1 2K2      0.340500
     73 H30         4.0620   -0.4950    1.5310 h1        1 2K2      0.066200
     74 HBM1        5.6650    3.6910   -7.4470 hn        1 2K2      0.448800
@<TRIPOS>BOND
     1    1    2 2   
     2    2    3 1   
     3    2    6 1   
     4    3    4 1   
     5    3   72 1   
     6    4    5 1   
     7    4   44 1   
     8    4   73 1   
     9    5    6 ar  
    10    5   17 ar  
    11    6    7 ar  
    12    7    8 1   
    13    7   15 ar  
    14    8    9 ar  
    15    8   13 ar  
    16    9   10 ar  
    17    9   45 1   
    18   10   11 ar  
    19   10   46 1   
    20   11   12 ar  
    21   11   47 1   
    22   12   13 ar  
    23   12   48 1   
    24   13   24 1   
    25   14   33 1   
    26   14   34 1   
    27   14   43 1   
    28   14   74 1   
    29   15   16 ar  
    30   15   24 1   
    31   16   17 ar  
    32   16   42 1   
    33   17   18 1   
    34   18   19 ar  
    35   18   23 ar  
    36   19   20 ar  
    37   19   49 1   
    38   20   21 ar  
    39   20   50 1   
    40   21   22 ar  
    41   21   51 1   
    42   22   23 ar  
    43   22   52 1   
    44   23   42 1   
    45   24   31 1   
    46   25   26 1   
    47   25   29 1   
    48   25   30 1   
    49   25   42 1   
    50   26   27 1   
    51   26   43 1   
    52   26   53 1   
    53   27   28 1   
    54   28   54 1   
    55   28   55 1   
    56   28   56 1   
    57   29   57 1   
    58   29   58 1   
    59   29   59 1   
    60   30   31 1   
    61   31   32 1   
    62   31   60 1   
    63   32   43 1   
    64   32   61 1   
    65   32   62 1   
    66   33   63 1   
    67   33   64 1   
    68   33   65 1   
    69   34   35 2   
    70   34   36 1   
    71   36   37 ar  
    72   36   41 ar  
    73   37   38 ar  
    74   37   66 1   
    75   38   39 ar  
    76   38   67 1   
    77   39   40 ar  
    78   39   68 1   
    79   40   41 ar  
    80   40   69 1   
    81   41   70 1   
    82   43   71 1   
@<TRIPOS>SUBSTRUCTURE
     1 2K2         1 TEMP              0 ****  ****    0 ROOT
