@<TRIPOS>MOLECULE
2K2
   74    82     1     0     0
SMALL
bcc


@<TRIPOS>ATOM
      1 OAD         0.1720   -1.7010    0.1610 o         1 2K2     -0.613500
      2 CAX         1.3840   -1.4520    0.1220 c         1 2K2      0.722100
      3 NAU         2.2670   -1.6490    1.1890 n         1 2K2     -0.582900
      4 CAS         3.6400   -1.3380    0.8260 c3        1 2K2      0.136300
      5 CBA         3.5470   -0.8220   -0.5930 ca        1 2K2     -0.052300
      6 CBB         2.1840   -0.8830   -1.0100 ca        1 2K2     -0.130600
      7 CBH         1.8120   -0.4710   -2.2690 cp        1 2K2      0.047000
      8 CBC         0.5670   -0.4410   -3.0230 cp        1 2K2     -0.076000
      9 CAO        -0.7330   -0.8180   -2.7180 ca        1 2K2     -0.050000
     10 CAI        -1.7180   -0.6800   -3.7000 ca        1 2K2     -0.148000
     11 CAK        -1.4130   -0.1720   -4.9630 ca        1 2K2     -0.088000
     12 CAQ        -0.1150    0.2250   -5.2980 ca        1 2K2     -0.166000
     13 CBE         0.8760    0.0960   -4.3280 ca        1 2K2     -0.019200
     14 NBM         4.6780    3.4330   -7.4920 n4        1 2K2     -0.583200
     15 CBI         2.8300    0.0600   -3.1600 ca        1 2K2     -0.045200
     16 CBJ         4.1570    0.1090   -2.7630 ca        1 2K2     -0.000200
     17 CBG         4.5250   -0.3500   -1.4360 cp        1 2K2     -0.037000
     18 CBD         5.9630   -0.1710   -1.3360 cp        1 2K2     -0.060000
     19 CAP         6.8620   -0.4070   -0.3080 ca        1 2K2     -0.072000
     20 CAJ         8.2090   -0.0930   -0.5020 ca        1 2K2     -0.139000
     21 CAL         8.6420    0.4680   -1.7040 ca        1 2K2     -0.098000
     22 CAR         7.7580    0.7230   -2.7550 ca        1 2K2     -0.167000
     23 CBF         6.4130    0.3850   -2.5940 ca        1 2K2     -0.013200
     24 NBN         2.2430    0.4980   -4.3740 na        1 2K2     -0.089300
     25 CBQ         5.3730    0.5990   -4.9070 c3        1 2K2      0.265500
     26 CBP         5.4740    2.0670   -5.5020 c3        1 2K2      0.105100
     27 OAV         5.0770    3.1150   -4.6350 os        1 2K2     -0.418600
     28 CAA         6.1190    3.6790   -3.8460 c3        1 2K2      0.105700
     29 CAC         6.5720   -0.2050   -5.4760 c3        1 2K2     -0.114100
     30 OAW         4.2740   -0.1090   -5.5110 os        1 2K2     -0.414600
     31 CBK         2.9890    0.5000   -5.6140 c3        1 2K2      0.262800
     32 CAT         3.0860    1.9230   -6.2220 c3        1 2K2     -0.130400
     33 CAB         3.8690    4.5580   -6.9580 c3        1 2K2      0.080100
     34 CAY         4.3420    3.1930   -8.9630 c         1 2K2      0.571700
     35 OAE         3.1520    3.1400   -9.2420 o         1 2K2     -0.424100
     36 CAZ         5.4830    3.0880   -9.8750 ca        1 2K2     -0.205600
     37 CAM         6.7190    2.5450   -9.4900 ca        1 2K2     -0.072000
     38 CAG         7.7510    2.4550  -10.4170 ca        1 2K2     -0.122000
     39 CAF         7.5620    2.9030  -11.7290 ca        1 2K2     -0.055000
     40 CAH         6.3310    3.4330  -12.1160 ca        1 2K2     -0.122000
     41 CAN         5.2870    3.5220  -11.1970 ca        1 2K2     -0.072000
     42 NBO         5.2950    0.6030   -3.4540 na        1 2K2     -0.089300
     43 CBL         4.5110    2.1460   -6.7180 c3        1 2K2      0.127500
     44 H1          4.2970   -2.2500    0.8800 h1        1 2K2      0.066200
     45 H2         -0.9750   -1.2200   -1.7180 ha        1 2K2      0.186000
     46 H3         -2.7520   -0.9790   -3.4700 ha        1 2K2      0.149000
     47 H4         -2.2090   -0.0800   -5.7180 ha        1 2K2      0.140000
     48 H5          0.1060    0.6280   -6.2960 ha        1 2K2      0.127000
     49 H6          6.5140   -0.8320    0.6460 ha        1 2K2      0.147000
     50 H7          8.9340   -0.2830    0.3040 ha        1 2K2      0.149000
     51 H8          9.7070    0.7210   -1.8310 ha        1 2K2      0.142000
     52 H9          8.1350    1.1920   -3.6730 ha        1 2K2      0.123000
     53 H10         6.5410    2.2220   -5.8320 h1        1 2K2      0.052700
     54 H11         5.5840    4.4260   -3.2040 h1        1 2K2      0.056700
     55 H12         6.8660    4.1830   -4.5080 h1        1 2K2      0.056700
     56 H13         6.6190    2.9110   -3.2090 h1        1 2K2      0.056700
     57 H14         6.6200   -1.2100   -4.9910 hc        1 2K2      0.067033
     58 H15         7.5330    0.3290   -5.3110 hc        1 2K2      0.067033
     59 H16         6.4130   -0.3500   -6.5720 hc        1 2K2      0.067033
     60 H17         2.4720   -0.1820   -6.3690 h2        1 2K2      0.101700
     61 H18         2.3510    1.9970   -7.0650 hc        1 2K2      0.097200
     62 H19         2.8230    2.6990   -5.4520 hc        1 2K2      0.097200
     63 H20         4.1710    5.5010   -7.4870 hx        1 2K2      0.112033
     64 H21         4.0540    4.6570   -5.8520 hx        1 2K2      0.112033
     65 H22         2.7780    4.3600   -7.1410 hx        1 2K2      0.112033
     66 H23         6.8810    2.1550   -8.4730 ha        1 2K2      0.147000
     67 H24         8.7210    2.0230  -10.1200 ha        1 2K2      0.167000
     68 H25         8.3860    2.8310  -12.4580 ha        1 2K2      0.168000
     69 H26         6.1760    3.7770  -13.1520 ha        1 2K2      0.167000
     70 H27         4.3070    3.9250  -11.5040 ha        1 2K2      0.147000
     71 H28         4.8000    1.3100   -7.4290 hx        1 2K2      0.109700
     72 H29         2.0450   -2.1820    1.9890 hn        1 2K2      0.340500
     73 H30         4.0540   -0.5520    1.5160 h1        1 2K2      0.066200
     74 HBM1        5.6680    3.7010   -7.4290 hn        1 2K2      0.448800
@<TRIPOS>BOND
     1    1    2 2   
     2    2    3 1   
     3    2    6 1   
     4    3    4 1   
     5    3   72 1   
     6    4    5 1   
     7    4   44 1   
     8    4   73 1   
     9    5    6 ar  
    10    5   17 ar  
    11    6    7 ar  
    12    7    8 1   
    13    7   15 ar  
    14    8    9 ar  
    15    8   13 ar  
    16    9   10 ar  
    17    9   45 1   
    18   10   11 ar  
    19   10   46 1   
    20   11   12 ar  
    21   11   47 1   
    22   12   13 ar  
    23   12   48 1   
    24   13   24 1   
    25   14   33 1   
    26   14   34 1   
    27   14   43 1   
    28   14   74 1   
    29   15   16 ar  
    30   15   24 1   
    31   16   17 ar  
    32   16   42 1   
    33   17   18 1   
    34   18   19 ar  
    35   18   23 ar  
    36   19   20 ar  
    37   19   49 1   
    38   20   21 ar  
    39   20   50 1   
    40   21   22 ar  
    41   21   51 1   
    42   22   23 ar  
    43   22   52 1   
    44   23   42 1   
    45   24   31 1   
    46   25   26 1   
    47   25   29 1   
    48   25   30 1   
    49   25   42 1   
    50   26   27 1   
    51   26   43 1   
    52   26   53 1   
    53   27   28 1   
    54   28   54 1   
    55   28   55 1   
    56   28   56 1   
    57   29   57 1   
    58   29   58 1   
    59   29   59 1   
    60   30   31 1   
    61   31   32 1   
    62   31   60 1   
    63   32   43 1   
    64   32   61 1   
    65   32   62 1   
    66   33   63 1   
    67   33   64 1   
    68   33   65 1   
    69   34   35 2   
    70   34   36 1   
    71   36   37 ar  
    72   36   41 ar  
    73   37   38 ar  
    74   37   66 1   
    75   38   39 ar  
    76   38   67 1   
    77   39   40 ar  
    78   39   68 1   
    79   40   41 ar  
    80   40   69 1   
    81   41   70 1   
    82   43   71 1   
@<TRIPOS>SUBSTRUCTURE
     1 2K2         1 TEMP              0 ****  ****    0 ROOT
