@<TRIPOS>MOLECULE
2K4
   16    17     1     0     0
SMALL
bcc


@<TRIPOS>ATOM
      1 C5          0.7550   -1.1950   -0.0700 ca        1 2K4     -0.180000
      2 C2         -0.5380   -0.6630   -0.0180 ca        1 2K4     -0.018200
      3 N6         -1.8070   -1.2640   -0.0040 na        1 2K4     -0.024100
      4 N7         -2.7840   -0.3450    0.0740 nc        1 2K4     -0.516100
      5 C3         -2.2260    0.8790    0.0380 cd        1 2K4      0.357800
      6 C1         -0.7740    0.7650   -0.0210 ca        1 2K4     -0.248900
      7 C4          0.3020    1.6470   -0.0800 ca        1 2K4     -0.022000
      8 C8          1.5870    1.1290   -0.1280 ca        1 2K4     -0.238000
      9 C9          1.8010   -0.2700   -0.1220 ca        1 2K4      0.155100
     10 O10         3.0700   -0.8020   -0.1670 oh        1 2K4     -0.497100
     11 H5          0.9540   -2.2730   -0.0710 ha        1 2K4      0.158000
     12 H6         -2.0020   -2.2130    0.2100 hn        1 2K4      0.321700
     13 H3         -2.8170    1.7950    0.0510 h4        1 2K4      0.054800
     14 H4          0.1330    2.7340   -0.0890 ha        1 2K4      0.141000
     15 H8          2.4530    1.8040   -0.1720 ha        1 2K4      0.135000
     16 H10         3.7010   -0.0680   -0.2000 ho        1 2K4      0.422000
@<TRIPOS>BOND
     1    1    2 ar  
     2    1    9 ar  
     3    1   11 1   
     4    2    3 1   
     5    2    6 ar  
     6    3    4 1   
     7    3   12 1   
     8    4    5 2   
     9    5    6 1   
    10    5   13 1   
    11    6    7 ar  
    12    7    8 ar  
    13    7   14 1   
    14    8    9 ar  
    15    8   15 1   
    16    9   10 1   
    17   10   16 1   
@<TRIPOS>SUBSTRUCTURE
     1 2K4         1 TEMP              0 ****  ****    0 ROOT
