@<TRIPOS>MOLECULE
2K4
   16    17     1     0     0
SMALL
bcc


@<TRIPOS>ATOM
      1 C5         -0.0370    0.1640   -0.0380 ca        1 2K4     -0.240000
      2 C2          1.3600    0.0840   -0.0490 ca        1 2K4     -0.015200
      3 N6          2.3200    0.1280    0.9750 na        1 2K4     -0.023100
      4 N7          3.5640   -0.0120    0.4860 nc        1 2K4     -0.519100
      5 C3          3.4930   -0.0700   -0.8560 cd        1 2K4      0.360800
      6 C1          2.1020   -0.0160   -1.2870 ca        1 2K4     -0.248900
      7 C4          1.4250   -0.0310   -2.5050 ca        1 2K4     -0.029000
      8 C8          0.0430    0.0440   -2.5050 ca        1 2K4     -0.183000
      9 C9         -0.6700    0.1400   -1.2820 ca        1 2K4      0.161100
     10 O10        -2.0380    0.2050   -1.4050 oh        1 2K4     -0.495100
     11 H5         -0.6060    0.2430    0.8960 ha        1 2K4      0.141000
     12 H6          2.1500   -0.0300    1.9400 hn        1 2K4      0.318700
     13 H3          4.3780   -0.1450   -1.4890 h4        1 2K4      0.054800
     14 H4          1.9820   -0.1010   -3.4510 ha        1 2K4      0.142000
     15 H8         -0.5280    0.0330   -3.4440 ha        1 2K4      0.154000
     16 H10        -2.4180    0.2830   -0.5180 ho        1 2K4      0.421000
@<TRIPOS>BOND
     1    1    2 ar  
     2    1    9 ar  
     3    1   11 1   
     4    2    3 1   
     5    2    6 ar  
     6    3    4 1   
     7    3   12 1   
     8    4    5 2   
     9    5    6 1   
    10    5   13 1   
    11    6    7 ar  
    12    7    8 ar  
    13    7   14 1   
    14    8    9 ar  
    15    8   15 1   
    16    9   10 1   
    17   10   16 1   
@<TRIPOS>SUBSTRUCTURE
     1 2K4         1 TEMP              0 ****  ****    0 ROOT
