@<TRIPOS>MOLECULE
2K4
   16    11     1     0     0
SMALL
bcc


@<TRIPOS>ATOM
      1 C5         -1.0080    0.0000    0.8900 c1        1 2K4     -0.240000
      2 C2          0.4000    0.0000    0.8900 c1        1 2K4      0.030000
      3 N6          1.3170    0.0000    1.9060 n1        1 2K4     -0.198000
      4 N7          2.5740    0.0000    1.3470 n2        1 2K4     -0.052000
      5 C3          2.4340    0.0000    0.0000 c1        1 2K4     -0.140000
      6 C1          1.0810    0.0000   -0.2890 c1        1 2K4     -0.165000
      7 C4          0.3760    0.0000   -1.5080 c1        1 2K4     -0.106000
      8 C8         -1.0090    0.0000   -1.5080 c1        1 2K4     -0.106000
      9 C9         -1.7010    0.0000   -0.3090 c1        1 2K4      0.116000
     10 O10        -3.0590   -0.3650   -0.3210 oh        1 2K4     -0.249000
     11 H5         -1.4960    0.0000    1.7360 ha        1 2K4      0.141000
     12 H6          1.1270    0.0000    2.7990 DU        1 2K4      0.226500
     13 H3          3.1600    0.0000   -0.6520 DU        1 2K4      0.226500
     14 H4          0.8640    0.0000   -2.3540 ha        1 2K4      0.148000
     15 H8         -1.4970    0.0000   -2.3530 ha        1 2K4      0.148000
     16 H10        -3.5630    0.3640   -0.2740 ho        1 2K4      0.220000
@<TRIPOS>BOND
     1    1    9 1   
     2    1   11 1   
     3    2    6 1   
     4    3    4 1   
     5    4    5 1   
     6    5    6 1   
     7    7    8 1   
     8    7   14 1   
     9    8   15 1   
    10    9   10 1   
    11   10   16 1   
@<TRIPOS>SUBSTRUCTURE
     1 2K4         1 TEMP              0 ****  ****    0 ROOT
