@<TRIPOS>MOLECULE
2K5
   57    60     1     0     0
SMALL
bcc


@<TRIPOS>ATOM
      1 C21         8.4150   -1.6710    0.7020 c3        1 2K5      0.113700
      2 O2          7.1120   -2.1710    0.9760 os        1 2K5     -0.325400
      3 C16         6.0530   -1.4200    0.5020 ca        1 2K5      0.159600
      4 C15         4.7850   -1.9410    0.8070 ca        1 2K5     -0.189000
      5 C17         6.1990   -0.2330   -0.2270 ca        1 2K5     -0.278000
      6 C18         5.0380    0.4280   -0.6470 ca        1 2K5      0.159600
      7 O1          5.0400    1.6030   -1.3740 os        1 2K5     -0.325400
      8 C20         6.3130    2.1630   -1.6700 c3        1 2K5      0.113700
      9 C19         3.7610   -0.0750   -0.3510 ca        1 2K5     -0.189000
     10 C14         3.6440   -1.2620    0.3760 ca        1 2K5     -0.022300
     11 C13         2.2910   -1.7970    0.7000 c3        1 2K5     -0.039100
     12 C12         1.6250   -2.3870   -0.5330 c3        1 2K5     -0.014100
     13 C11         0.2640   -2.8840   -0.2460 cc        1 2K5     -0.103600
     14 C10        -0.9640   -2.4730   -0.7860 cd        1 2K5     -0.247300
     15 N5         -0.0270   -3.9270    0.6450 na        1 2K5     -0.008600
     16 N6         -1.3240   -4.1960    0.7270 nc        1 2K5     -0.551800
     17 C9         -1.9540   -3.3280   -0.1510 cd        1 2K5      0.502200
     18 N4         -3.3310   -3.3480   -0.4310 nh        1 2K5     -0.788600
     19 C8         -4.1140   -2.1840   -0.3210 ca        1 2K5      0.704200
     20 C7         -5.5390   -2.3290   -0.3610 ca        1 2K5     -0.460600
     21 C6         -6.2940   -1.1540   -0.3350 ca        1 2K5      0.481200
     22 N2         -5.7670    0.0800   -0.2780 nb        1 2K5     -0.774000
     23 N3         -3.5280   -0.9540   -0.2450 nb        1 2K5     -0.784000
     24 C5         -4.3790    0.1420   -0.2560 ca        1 2K5      0.888900
     25 N1         -3.7570    1.4050   -0.3130 nh        1 2K5     -0.824900
     26 C4         -4.5240    2.5700    0.0710 c3        1 2K5      0.173500
     27 C3         -3.7020    3.8000    0.1540 cc        1 2K5      0.241000
     28 C2         -3.8230    5.0800   -0.3410 cd        1 2K5     -0.343600
     29 O          -2.5250    3.7500    0.9430 os        1 2K5     -0.126100
     30 N          -1.9350    4.9290    0.9460 nc        1 2K5     -0.353300
     31 C1         -2.6580    5.7890    0.1980 cd        1 2K5      0.320600
     32 C          -2.3530    7.2070   -0.0600 c3        1 2K5     -0.133400
     33 H1          8.5590   -0.6650    1.1670 h1        1 2K5      0.044700
     34 H2          9.0890   -2.4270    1.1800 h1        1 2K5      0.044700
     35 H3          8.5960   -1.6230   -0.3990 h1        1 2K5      0.044700
     36 H4          4.7100   -2.8730    1.3840 ha        1 2K5      0.151000
     37 H5          7.1930    0.1670   -0.4610 ha        1 2K5      0.143000
     38 H6          6.9130    1.4670   -2.3040 h1        1 2K5      0.044700
     39 H7          6.0600    3.0950   -2.2380 h1        1 2K5      0.044700
     40 H8          6.8640    2.4120   -0.7310 h1        1 2K5      0.044700
     41 H9          2.8700    0.4710   -0.6920 ha        1 2K5      0.151000
     42 H10         2.3710   -2.5810    1.4990 hc        1 2K5      0.056200
     43 H11         1.6520   -0.9680    1.1080 hc        1 2K5      0.056200
     44 H12         1.5530   -1.5990   -1.3320 hc        1 2K5      0.066700
     45 H13         2.2590   -3.2210   -0.9410 hc        1 2K5      0.066700
     46 H14        -1.1530   -1.6830   -1.5050 ha        1 2K5      0.182000
     47 H15         0.6220   -4.4400    1.1930 hn        1 2K5      0.321700
     48 H16        -3.8080   -4.1720   -0.1220 hn        1 2K5      0.432800
     49 H17        -6.0200   -3.3110   -0.4150 ha        1 2K5      0.153000
     50 H18        -7.3990   -1.1930   -0.3560 h4        1 2K5      0.025100
     51 H19        -2.7950    1.4210   -0.0380 hn        1 2K5      0.440800
     52 H20        -5.3310    2.7350   -0.7030 h1        1 2K5      0.077700
     53 H21        -5.0300    2.4240    1.0740 h1        1 2K5      0.077700
     54 H22        -4.5870    5.5010   -0.9850 ha        1 2K5      0.178000
     55 H23        -3.2010    7.8420    0.3010 hc        1 2K5      0.059033
     56 H24        -1.4170    7.5350    0.4550 hc        1 2K5      0.059033
     57 H25        -2.2310    7.3680   -1.1610 hc        1 2K5      0.059033
@<TRIPOS>BOND
     1    1    2 1   
     2    1   33 1   
     3    1   34 1   
     4    1   35 1   
     5    2    3 1   
     6    3    4 ar  
     7    3    5 ar  
     8    4   10 ar  
     9    4   36 1   
    10    5    6 ar  
    11    5   37 1   
    12    6    7 1   
    13    6    9 ar  
    14    7    8 1   
    15    8   38 1   
    16    8   39 1   
    17    8   40 1   
    18    9   10 ar  
    19    9   41 1   
    20   10   11 1   
    21   11   12 1   
    22   11   42 1   
    23   11   43 1   
    24   12   13 1   
    25   12   44 1   
    26   12   45 1   
    27   13   14 2   
    28   13   15 1   
    29   14   17 1   
    30   14   46 1   
    31   15   16 1   
    32   15   47 1   
    33   16   17 2   
    34   17   18 1   
    35   18   19 1   
    36   18   48 1   
    37   19   20 ar  
    38   19   23 ar  
    39   20   21 ar  
    40   20   49 1   
    41   21   22 ar  
    42   21   50 1   
    43   22   24 ar  
    44   23   24 ar  
    45   24   25 1   
    46   25   26 1   
    47   25   51 1   
    48   26   27 1   
    49   26   52 1   
    50   26   53 1   
    51   27   28 2   
    52   27   29 1   
    53   28   31 1   
    54   28   54 1   
    55   29   30 1   
    56   30   31 2   
    57   31   32 1   
    58   32   55 1   
    59   32   56 1   
    60   32   57 1   
@<TRIPOS>SUBSTRUCTURE
     1 2K5         1 TEMP              0 ****  ****    0 ROOT
