@<TRIPOS>MOLECULE
2K5
   57    48     1     0     0
SMALL
bcc


@<TRIPOS>ATOM
      1 C21        -5.1740   -4.2030   -2.3710 c3        1 2K5     -0.077000
      2 O2         -5.9300   -3.5190   -1.4040 os        1 2K5     -0.209500
      3 C16        -6.0700   -2.1520   -1.6560 c1        1 2K5      0.115500
      4 C15        -5.1590   -1.2470   -1.1060 c1        1 2K5     -0.235500
      5 C17        -7.1580   -1.6890   -2.3750 c1        1 2K5     -0.235500
      6 C18        -7.3420   -0.3180   -2.5490 c1        1 2K5      0.115500
      7 O1         -8.4660    0.1610   -3.2640 os        1 2K5     -0.209500
      8 C20        -8.3860   -0.0530   -4.6930 c3        1 2K5     -0.077000
      9 C19        -6.4270    0.5870   -1.9970 c1        1 2K5     -0.186000
     10 C14        -5.3450    0.1250   -1.2820 c1        1 2K5     -0.014000
     11 C13        -4.2110    1.1310   -0.8450 c2        1 2K5     -0.124000
     12 C12        -3.8280    0.8630    0.5850 c3        1 2K5     -0.102000
     13 C11        -2.2720    0.9890    0.7440 c2        1 2K5     -0.071000
     14 C10        -1.5710    0.8890    1.9210 c1        1 2K5     -0.203000
     15 N5         -1.3820    1.2410   -0.2480 n2        1 2K5     -0.146000
     16 N6         -0.1270    1.2990    0.3100 n2        1 2K5     -0.092000
     17 C9         -0.2470    1.0820    1.6430 c1        1 2K5     -0.043000
     18 N4          0.8460    0.9870    2.5920 n2        1 2K5     -0.191000
     19 C8          2.1190    0.4730    2.1680 c1        1 2K5      0.171000
     20 C7          2.2870   -0.8890    1.9770 c1        1 2K5     -0.148000
     21 C6          3.5080   -1.3820    1.6340 c1        1 2K5     -0.148000
     22 N2          4.5490   -0.5470    1.4830 n1        1 2K5     -0.237000
     23 N3          3.1590    1.3030    2.0160 n1        1 2K5     -0.265000
     24 C5          4.3800    0.8090    1.6740 c1        1 2K5      0.160000
     25 N1          5.5000    1.6920    1.5570 n3        1 2K5     -0.250000
     26 C4          6.6000    1.3370    0.7350 c3        1 2K5      0.020000
     27 C3          7.8550    1.2250    1.5880 c2        1 2K5     -0.075000
     28 C2          9.0810    0.7480    1.1690 c1        1 2K5     -0.204000
     29 O           7.9690    1.5860    2.8970 os        1 2K5     -0.071000
     30 N           9.2840    1.3330    3.3030 n2        1 2K5     -0.019000
     31 C1          9.9590    0.8210    2.2450 c1        1 2K5     -0.107000
     32 C          11.4920    0.4720    2.2140 c2        1 2K5     -0.156000
     33 H1         -4.2690   -3.8170   -2.4160 h1        1 2K5      0.085667
     34 H2         -5.1120   -5.1570   -2.1240 h1        1 2K5      0.085667
     35 H3         -5.6040   -4.1200   -3.2360 h1        1 2K5      0.085667
     36 H4         -4.4040   -1.5690   -0.6070 ha        1 2K5      0.147500
     37 H5         -7.8330   -2.3310   -2.7270 ha        1 2K5      0.147500
     38 H6         -8.2190   -1.0090   -4.8740 h1        1 2K5      0.085667
     39 H7         -9.2320    0.2160   -5.1110 h1        1 2K5      0.085667
     40 H8         -7.6470    0.4880   -5.0680 h1        1 2K5      0.085667
     41 H9         -6.5590    1.5680   -2.1220 ha        1 2K5      0.149000
     42 H10        -3.4020    1.0080   -1.4410 ha        1 2K5      0.093500
     43 H11        -4.5480    2.0720   -0.9290 ha        1 2K5      0.093500
     44 H12        -4.0990   -0.0110    0.8260 hc        1 2K5      0.107500
     45 H13        -4.2840    1.5310    1.1850 hc        1 2K5      0.107500
     46 H14        -1.9450    0.7130    2.7880 DU        1 2K5      0.209667
     47 H15        -1.5780    1.3520   -1.1220 DU        1 2K5      0.209667
     48 H16         0.7090    1.1970    3.4710 hn        1 2K5      0.229000
     49 H17         1.5420   -1.4830    2.0850 ha        1 2K5      0.160500
     50 H18         3.6310   -2.3760    1.4940 ha        1 2K5      0.160500
     51 H19         5.5040    2.4910    2.0070 hn        1 2K5      0.225000
     52 H20         6.7300    2.0200    0.0550 h1        1 2K5      0.130000
     53 H21         6.4190    0.4690    0.2990 h1        1 2K5      0.130000
     54 H22         9.2940    0.4200    0.2790 DU        1 2K5      0.209667
     55 H23        11.6120   -0.4570    1.9100 ha        1 2K5      0.097333
     56 H24        11.9410    1.0630    1.6160 ha        1 2K5      0.097333
     57 H25        11.8620    0.5700    3.1000 ha        1 2K5      0.097333
@<TRIPOS>BOND
     1    1    2 1   
     2    1   33 1   
     3    1   34 1   
     4    1   35 1   
     5    2    3 1   
     6    3    4 1   
     7    4   36 1   
     8    5    6 1   
     9    5   37 1   
    10    6    7 1   
    11    7    8 1   
    12    8   38 1   
    13    8   39 1   
    14    8   40 1   
    15    9   10 1   
    16    9   41 1   
    17   11   12 1   
    18   11   42 1   
    19   11   43 1   
    20   12   13 1   
    21   12   44 1   
    22   12   45 1   
    23   13   14 1   
    24   13   15 1   
    25   14   17 1   
    26   15   16 1   
    27   16   17 1   
    28   18   19 1   
    29   18   48 1   
    30   19   23 1   
    31   20   21 1   
    32   20   49 1   
    33   21   50 1   
    34   22   24 1   
    35   24   25 1   
    36   25   26 1   
    37   25   51 1   
    38   26   27 1   
    39   26   52 1   
    40   26   53 1   
    41   27   28 1   
    42   27   29 1   
    43   28   31 1   
    44   29   30 1   
    45   30   31 1   
    46   32   55 1   
    47   32   56 1   
    48   32   57 1   
@<TRIPOS>SUBSTRUCTURE
     1 2K5         1 TEMP              0 ****  ****    0 ROOT
