@<TRIPOS>MOLECULE
2K5
   57    60     1     0     0
SMALL
bcc


@<TRIPOS>ATOM
      1 C21         0.0700    0.7230   -1.0490 c3        1 2K5      0.113700
      2 O2          1.4460    0.8390   -0.7080 os        1 2K5     -0.325400
      3 C16         1.8200    0.3300    0.5210 ca        1 2K5      0.159600
      4 C15         3.1840    0.4780    0.8240 ca        1 2K5     -0.189000
      5 C17         0.9370   -0.2900    1.4140 ca        1 2K5     -0.278000
      6 C18         1.4510   -0.7620    2.6280 ca        1 2K5      0.159600
      7 O1          0.6930   -1.3930    3.5940 os        1 2K5     -0.325400
      8 C20        -0.6960   -1.5290    3.3210 c3        1 2K5      0.113700
      9 C19         2.8110   -0.6220    2.9510 ca        1 2K5     -0.189000
     10 C14         3.6710   -0.0020    2.0420 ca        1 2K5     -0.022300
     11 C13         5.1130    0.1570    2.3820 c3        1 2K5     -0.039100
     12 C12         5.8470   -1.1720    2.2940 c3        1 2K5     -0.014100
     13 C11         7.2690   -1.0490    2.6710 cc        1 2K5     -0.103600
     14 C10         7.9680   -1.6700    3.7180 cd        1 2K5     -0.248300
     15 N5          8.2070   -0.2650    1.9820 na        1 2K5     -0.008600
     16 N6          9.4230   -0.3240    2.5100 nc        1 2K5     -0.551800
     17 C9          9.3350   -1.1920    3.5860 cd        1 2K5      0.502200
     18 N4         10.4310   -1.6000    4.3660 nu        1 2K5     -0.788600
     19 C8         10.4140   -1.4810    5.7680 ca        1 2K5      0.704200
     20 C7         11.6500   -1.6630    6.4700 ca        1 2K5     -0.460600
     21 C6         11.5920   -1.6250    7.8660 ca        1 2K5      0.481200
     22 N2         10.4650   -1.4320    8.5700 nb        1 2K5     -0.774000
     23 N3          9.2430   -1.2640    6.4350 nb        1 2K5     -0.784000
     24 C5          9.3060   -1.2760    7.8200 ca        1 2K5      0.888900
     25 N1          8.0710   -1.1860    8.4940 nu        1 2K5     -0.824900
     26 C4          8.0720   -0.7950    9.8870 c3        1 2K5      0.173500
     27 C3          6.7110   -0.5500   10.4170 cc        1 2K5      0.241000
     28 C2          6.0200   -0.9630   11.5350 cd        1 2K5     -0.343600
     29 O           5.8750    0.3390    9.6950 os        1 2K5     -0.126100
     30 N           4.7230    0.4790   10.3180 nc        1 2K5     -0.353300
     31 C1          4.7300   -0.2700   11.4410 cd        1 2K5      0.320600
     32 C           3.6410   -0.3990   12.4250 c3        1 2K5     -0.133400
     33 H1          0.0120    1.2000   -2.0600 h1        1 2K5      0.044700
     34 H2         -0.5670    1.2740   -0.3150 h1        1 2K5      0.044700
     35 H3         -0.2340   -0.3510   -1.1030 h1        1 2K5      0.044700
     36 H4          3.8460    0.9730    0.1000 ha        1 2K5      0.151000
     37 H5         -0.1260   -0.4020    1.1700 ha        1 2K5      0.143000
     38 H6         -1.1750   -0.5270    3.1960 h1        1 2K5      0.044700
     39 H7         -1.0910   -2.0440    4.2330 h1        1 2K5      0.044700
     40 H8         -0.8600   -2.1580    2.4120 h1        1 2K5      0.044700
     41 H9          3.1820   -0.9980    3.9140 ha        1 2K5      0.151000
     42 H10         5.2060    0.5660    3.4250 hc        1 2K5      0.056200
     43 H11         5.5910    0.9000    1.6890 hc        1 2K5      0.056200
     44 H12         5.3600   -1.9130    2.9850 hc        1 2K5      0.066700
     45 H13         5.7610   -1.5800    1.2500 hc        1 2K5      0.066700
     46 H14         7.5850   -2.3440    4.4750 ha        1 2K5      0.182000
     47 H15         8.0370    0.3030    1.1860 hn        1 2K5      0.321700
     48 H16        11.3270   -1.3950    3.9660 hn        1 2K5      0.432800
     49 H17        12.5950   -1.8300    5.9450 ha        1 2K5      0.153000
     50 H18        12.5100   -1.7510    8.4720 h4        1 2K5      0.025100
     51 H19         7.3140   -0.8230    7.9510 hn        1 2K5      0.440800
     52 H20         8.5430   -1.6270   10.4900 h1        1 2K5      0.077700
     53 H21         8.6840    0.1440   10.0550 h1        1 2K5      0.077700
     54 H22         6.3230   -1.6430   12.3220 ha        1 2K5      0.178000
     55 H23         2.7530    0.2230   12.1510 hc        1 2K5      0.059033
     56 H24         3.3220   -1.4690   12.4900 hc        1 2K5      0.059033
     57 H25         4.0080   -0.0730   13.4310 hc        1 2K5      0.059033
@<TRIPOS>BOND
     1    1    2 1   
     2    1   33 1   
     3    1   34 1   
     4    1   35 1   
     5    2    3 1   
     6    3    4 ar  
     7    3    5 ar  
     8    4   10 ar  
     9    4   36 1   
    10    5    6 ar  
    11    5   37 1   
    12    6    7 1   
    13    6    9 ar  
    14    7    8 1   
    15    8   38 1   
    16    8   39 1   
    17    8   40 1   
    18    9   10 ar  
    19    9   41 1   
    20   10   11 1   
    21   11   12 1   
    22   11   42 1   
    23   11   43 1   
    24   12   13 1   
    25   12   44 1   
    26   12   45 1   
    27   13   14 2   
    28   13   15 1   
    29   14   17 1   
    30   14   46 1   
    31   15   16 1   
    32   15   47 1   
    33   16   17 2   
    34   17   18 1   
    35   18   19 1   
    36   18   48 1   
    37   19   20 ar  
    38   19   23 ar  
    39   20   21 ar  
    40   20   49 1   
    41   21   22 ar  
    42   21   50 1   
    43   22   24 ar  
    44   23   24 ar  
    45   24   25 1   
    46   25   26 1   
    47   25   51 1   
    48   26   27 1   
    49   26   52 1   
    50   26   53 1   
    51   27   28 2   
    52   27   29 1   
    53   28   31 1   
    54   28   54 1   
    55   29   30 1   
    56   30   31 2   
    57   31   32 1   
    58   32   55 1   
    59   32   56 1   
    60   32   57 1   
@<TRIPOS>SUBSTRUCTURE
     1 2K5         1 TEMP              0 ****  ****    0 ROOT
