@<TRIPOS>MOLECULE
2K5
   59    62     1     0     0
SMALL
bcc


@<TRIPOS>ATOM
      1 C21         0.8960   -1.9620    3.4710 c3        1 2K5      0.111700
      2 O2          1.8900   -1.6900    2.4840 os        1 2K5     -0.380900
      3 C16         2.9160   -0.8560    2.8540 ca        1 2K5      0.134600
      4 C15         3.7160   -0.3940    1.7880 ca        1 2K5     -0.167500
      5 C17         3.2000   -0.4900    4.1750 ca        1 2K5     -0.231000
      6 C18         4.3030    0.3440    4.4030 ca        1 2K5      0.134600
      7 O1          4.6610    0.6510    5.7170 os        1 2K5     -0.380900
      8 C20         3.8570    1.6910    6.2940 c3        1 2K5      0.111700
      9 C19         5.0980    0.8240    3.3610 ca        1 2K5     -0.167500
     10 C14         4.8010    0.4420    2.0440 ca        1 2K5     -0.048300
     11 C13         5.6170    0.9580    0.9090 c3        1 2K5     -0.042100
     12 C12         6.4460   -0.1260    0.2330 c3        1 2K5     -0.035100
     13 C11         7.5240   -0.6250    1.1130 cc        1 2K5     -0.032600
     14 C10         7.4920   -1.6810    2.0440 cd        1 2K5     -0.226300
     15 N5          8.8050   -0.0470    1.2160 na        1 2K5      0.052400
     16 N6          9.5690   -0.6190    2.1170 nc        1 2K5     -0.451800
     17 C9          8.7980   -1.6390    2.6620 cd        1 2K5      0.278200
     18 N4          9.2480   -2.4970    3.7420 n4        1 2K5     -0.682400
     19 C8          9.1200   -1.7880    5.0440 ca        1 2K5      0.535200
     20 C7         10.2490   -1.1950    5.6400 ca        1 2K5     -0.266600
     21 C6         10.0170   -0.4830    6.8480 ca        1 2K5      0.496200
     22 N2          8.8030   -0.3530    7.3970 nb        1 2K5     -0.622000
     23 N3          7.8640   -1.7070    5.5810 nb        1 2K5     -0.655000
     24 C5          7.7640   -0.9730    6.7280 ca        1 2K5      0.763900
     25 N1          6.3990   -0.8050    7.3010 n4        1 2K5     -0.746700
     26 C4          6.2900   -1.4270    8.6720 c3        1 2K5      0.118500
     27 C3          4.9420   -1.2310    9.2220 cc        1 2K5      0.114000
     28 C2          4.0200   -2.0160    9.8760 cd        1 2K5     -0.235600
     29 O           4.4430    0.1030    9.1960 os        1 2K5     -0.146100
     30 N           3.2700    0.1500    9.7920 nc        1 2K5     -0.299300
     31 C1          2.9430   -1.0790   10.2450 cd        1 2K5      0.348600
     32 C           1.7330   -1.4540   10.9980 c3        1 2K5     -0.154400
     33 H1          1.3280   -2.5820    4.2930 h1        1 2K5      0.059867
     34 H2          0.1230   -2.5400    2.9010 h1        1 2K5      0.059867
     35 H3          0.4660   -1.0130    3.8730 h1        1 2K5      0.059867
     36 H4          3.4510   -0.6850    0.7590 ha        1 2K5      0.155000
     37 H5          2.5710   -0.8190    5.0120 ha        1 2K5      0.155000
     38 H6          2.7730    1.4450    6.1920 h1        1 2K5      0.059867
     39 H7          4.0880    2.6620    5.7930 h1        1 2K5      0.059867
     40 H8          4.1630    1.7040    7.3700 h1        1 2K5      0.059867
     41 H9          5.9270    1.5140    3.5730 ha        1 2K5      0.155000
     42 H10         6.2890    1.7860    1.2600 hc        1 2K5      0.077200
     43 H11         4.9260    1.3970    0.1360 hc        1 2K5      0.077200
     44 H12         6.8730    0.2840   -0.7240 hc        1 2K5      0.094200
     45 H13         5.7820   -0.9940   -0.0400 hc        1 2K5      0.094200
     46 H14         6.6720   -2.3650    2.2440 ha        1 2K5      0.202000
     47 H15         9.1720    0.7000    0.6530 hn        1 2K5      0.368700
     48 H16         8.6620   -3.3480    3.7300 hn        1 2K5      0.493300
     49 H17        11.2660   -1.2480    5.2140 ha        1 2K5      0.218000
     50 H18        10.8550    0.0140    7.3910 h4        1 2K5      0.108100
     51 H19         6.1880    0.2130    7.3650 hn        1 2K5      0.504800
     52 H20         7.0520   -0.9250    9.3440 hx        1 2K5      0.131200
     53 H21         6.5230   -2.5270    8.5880 hx        1 2K5      0.131200
     54 H22         4.0360   -3.0800   10.1040 ha        1 2K5      0.201000
     55 H23         1.9840   -1.5420   12.0870 hc        1 2K5      0.084367
     56 H24         1.3530   -2.4420   10.6360 hc        1 2K5      0.084367
     57 H25         0.9200   -0.6920   10.8860 hc        1 2K5      0.084367
     58 H42        10.2390   -2.7570    3.6050 hn        1 2K5      0.493300
     59 H121        5.6860   -1.2020    6.6620 hn        1 2K5      0.504800
@<TRIPOS>BOND
     1    1    2 1   
     2    1   33 1   
     3    1   34 1   
     4    1   35 1   
     5    2    3 1   
     6    3    4 ar  
     7    3    5 ar  
     8    4   10 ar  
     9    4   36 1   
    10    5    6 ar  
    11    5   37 1   
    12    6    7 1   
    13    6    9 ar  
    14    7    8 1   
    15    8   38 1   
    16    8   39 1   
    17    8   40 1   
    18    9   10 ar  
    19    9   41 1   
    20   10   11 1   
    21   11   12 1   
    22   11   42 1   
    23   11   43 1   
    24   12   13 1   
    25   12   44 1   
    26   12   45 1   
    27   13   14 2   
    28   13   15 1   
    29   14   17 1   
    30   14   46 1   
    31   15   16 1   
    32   15   47 1   
    33   16   17 2   
    34   17   18 1   
    35   18   19 1   
    36   18   48 1   
    37   18   58 1   
    38   19   20 ar  
    39   19   23 ar  
    40   20   21 ar  
    41   20   49 1   
    42   21   22 ar  
    43   21   50 1   
    44   22   24 ar  
    45   23   24 ar  
    46   24   25 1   
    47   25   26 1   
    48   25   51 1   
    49   25   59 1   
    50   26   27 1   
    51   26   52 1   
    52   26   53 1   
    53   27   28 2   
    54   27   29 1   
    55   28   31 1   
    56   28   54 1   
    57   29   30 1   
    58   30   31 2   
    59   31   32 1   
    60   32   55 1   
    61   32   56 1   
    62   32   57 1   
@<TRIPOS>SUBSTRUCTURE
     1 2K5         1 TEMP              0 ****  ****    0 ROOT
