@<TRIPOS>MOLECULE
2K6
   31    31     1     0     0
SMALL
bcc


@<TRIPOS>ATOM
      1 C1          0.0300    0.1070   -0.0910 c3        1 2K6      0.112700
      2 O1          1.4460    0.1800    0.0270 os        1 2K6     -0.324900
      3 C2          1.9570    0.0990    1.3070 ca        1 2K6      0.129100
      4 C3          3.3630    0.1120    1.3860 ca        1 2K6     -0.177000
      5 C4          3.9740    0.0410    2.6310 ca        1 2K6     -0.088000
      6 C5          1.1800    0.0140    2.4690 ca        1 2K6     -0.177000
      7 C6          1.8150   -0.0560    3.7080 ca        1 2K6     -0.088000
      8 C7          3.2090   -0.0440    3.8030 ca        1 2K6     -0.127300
      9 C8          3.8890   -0.1140    5.1330 c3        1 2K6      0.000600
     10 C9          3.4560    1.0600    6.0050 c3        1 2K6     -0.184400
     11 C10         4.3850    1.3470    7.1510 c         1 2K6      0.564100
     12 C11         4.1550    2.6640    7.8220 c3        1 2K6     -0.205100
     13 C12         3.5980   -1.4330    5.8500 c3        1 2K6     -0.021300
     14 C13         4.1580   -2.5700    5.1550 c1        1 2K6      0.218700
     15 N1          4.6070   -3.4930    4.6090 n1        1 2K6     -0.377800
     16 H1         -0.4520    0.9730    0.4250 h1        1 2K6      0.045367
     17 H2         -0.1410    0.1610   -1.1960 h1        1 2K6      0.045367
     18 H3         -0.3520   -0.8580    0.3220 h1        1 2K6      0.045367
     19 H4          3.9560    0.1750    0.4630 ha        1 2K6      0.145500
     20 H5          5.0730    0.0460    2.6930 ha        1 2K6      0.133000
     21 H6          0.0830   -0.0000    2.4170 ha        1 2K6      0.145500
     22 H7          1.2040   -0.1240    4.6210 ha        1 2K6      0.133000
     23 H8          5.0060   -0.0420    4.9850 hc        1 2K6      0.078700
     24 H9          3.3880    1.9840    5.3690 hc        1 2K6      0.072700
     25 H10         2.4330    0.8680    6.4260 hc        1 2K6      0.072700
     26 H13         3.0660    2.8200    8.0080 hc        1 2K6      0.065700
     27 H14         4.7050    2.7150    8.7940 hc        1 2K6      0.065700
     28 H15         4.5260    3.4850    7.1590 hc        1 2K6      0.065700
     29 H16         4.0460   -1.3860    6.8840 hc        1 2K6      0.081200
     30 H17         2.4870   -1.5770    5.9520 hc        1 2K6      0.081200
     31 O2          5.2690    0.5680    7.5200 o         1 2K6     -0.531100
@<TRIPOS>BOND
     1    1    2 1   
     2    1   16 1   
     3    1   17 1   
     4    1   18 1   
     5    2    3 1   
     6    3    4 ar  
     7    3    6 ar  
     8    4    5 ar  
     9    4   19 1   
    10    5    8 ar  
    11    5   20 1   
    12    6    7 ar  
    13    6   21 1   
    14    7    8 ar  
    15    7   22 1   
    16    8    9 1   
    17    9   10 1   
    18    9   13 1   
    19    9   23 1   
    20   10   11 1   
    21   10   24 1   
    22   10   25 1   
    23   11   12 1   
    24   11   31 2   
    25   12   26 1   
    26   12   27 1   
    27   12   28 1   
    28   13   14 1   
    29   13   29 1   
    30   13   30 1   
    31   14   15 3   
@<TRIPOS>SUBSTRUCTURE
     1 2K6         1 TEMP              0 ****  ****    0 ROOT
