@<TRIPOS>MOLECULE
2K6
   31    31     1     0     0
SMALL
bcc


@<TRIPOS>ATOM
      1 C1         -0.0580    0.0330   -0.0220 c3        1 2K6      0.112700
      2 O1          1.3600    0.1070    0.0580 os        1 2K6     -0.324900
      3 C2          1.9050    0.0290    1.3250 ca        1 2K6      0.129100
      4 C3          3.3120    0.0420    1.3660 ca        1 2K6     -0.177000
      5 C4          3.9560   -0.0250    2.5950 ca        1 2K6     -0.088000
      6 C5          1.1590   -0.0530    2.5060 ca        1 2K6     -0.177000
      7 C6          1.8260   -0.1190    3.7280 ca        1 2K6     -0.088000
      8 C7          3.2220   -0.1070    3.7870 ca        1 2K6     -0.127300
      9 C8          3.9380   -0.1730    5.0990 c3        1 2K6      0.000600
     10 C9          3.5280    1.0040    5.9780 c3        1 2K6     -0.184400
     11 C10         4.4870    1.2940    7.0980 c         1 2K6      0.564100
     12 C11         4.2760    2.6130    7.7710 c3        1 2K6     -0.205100
     13 C12         3.6660   -1.4900    5.8270 c3        1 2K6     -0.021300
     14 C13         4.2060   -2.6290    5.1200 c1        1 2K6      0.218700
     15 N1          4.6410   -3.5540    4.5650 n1        1 2K6     -0.377800
     16 H1         -0.4300   -0.9310    0.4040 h1        1 2K6      0.045367
     17 H2         -0.5270    0.9000    0.5040 h1        1 2K6      0.045367
     18 H3         -0.2600    0.0840   -1.1220 h1        1 2K6      0.045367
     19 H4          3.8800    0.1030    0.4270 ha        1 2K6      0.145500
     20 H5          5.0570   -0.0200    2.6280 ha        1 2K6      0.133000
     21 H6          0.0610   -0.0670    2.4840 ha        1 2K6      0.145500
     22 H7          1.2400   -0.1840    4.6580 ha        1 2K6      0.133000
     23 H8          5.0500   -0.1020    4.9210 hc        1 2K6      0.078700
     24 H9          3.4430    1.9250    5.3410 hc        1 2K6      0.072700
     25 H10         2.5160    0.8130    6.4260 hc        1 2K6      0.072700
     26 H13         4.6290    3.4320    7.0960 hc        1 2K6      0.065700
     27 H14         4.8500    2.6660    8.7270 hc        1 2K6      0.065700
     28 H15         3.1910    2.7700    7.9850 hc        1 2K6      0.065700
     29 H16         4.1410   -1.4400    6.8480 hc        1 2K6      0.081200
     30 H17         2.5580   -1.6330    5.9580 hc        1 2K6      0.081200
     31 O2          5.3800    0.5150    7.4470 o         1 2K6     -0.531100
@<TRIPOS>BOND
     1    1    2 1   
     2    1   16 1   
     3    1   17 1   
     4    1   18 1   
     5    2    3 1   
     6    3    4 ar  
     7    3    6 ar  
     8    4    5 ar  
     9    4   19 1   
    10    5    8 ar  
    11    5   20 1   
    12    6    7 ar  
    13    6   21 1   
    14    7    8 ar  
    15    7   22 1   
    16    8    9 1   
    17    9   10 1   
    18    9   13 1   
    19    9   23 1   
    20   10   11 1   
    21   10   24 1   
    22   10   25 1   
    23   11   12 1   
    24   11   31 2   
    25   12   26 1   
    26   12   27 1   
    27   12   28 1   
    28   13   14 1   
    29   13   29 1   
    30   13   30 1   
    31   14   15 3   
@<TRIPOS>SUBSTRUCTURE
     1 2K6         1 TEMP              0 ****  ****    0 ROOT
