@<TRIPOS>MOLECULE
2K7
   57    60     1     0     0
SMALL
bcc


@<TRIPOS>ATOM
      1 C1          3.4950    5.6800    1.6010 cc        1 2K7      0.321600
      2 C2          4.6260    4.7500    1.6940 cc        1 2K7     -0.339600
      3 C3          4.2690    3.6960    0.8810 cd        1 2K7      0.237000
      4 N6          1.0660   -4.0560    0.6580 na        1 2K7     -0.037600
      5 C7          5.3030   -2.4310   -0.7350 ca        1 2K7     -0.466600
      6 C8          3.9270   -2.1560   -0.4510 ca        1 2K7      0.705200
      7 C9          1.6760   -3.0920   -0.2040 cc        1 2K7      0.081300
      8 C10         0.7000   -2.1000   -0.4220 cd        1 2K7     -0.251300
      9 C11        -0.4740   -2.5690    0.2850 cd        1 2K7      0.315600
     10 C12        -1.7570   -1.8340    0.3610 c3        1 2K7     -0.100700
     11 C13        -2.9420   -2.6990   -0.0340 c3        1 2K7     -0.031100
     12 C14        -4.2060   -1.9110   -0.0530 ca        1 2K7     -0.078300
     13 C15        -5.1580   -2.0700    0.9510 ca        1 2K7     -0.125000
     14 C16        -6.3490   -1.3410    0.9280 ca        1 2K7     -0.178000
     15 C19        -4.4450   -1.0080   -1.1000 ca        1 2K7     -0.178000
     16 C20        -4.9900    0.8400   -3.1360 c3        1 2K7      0.110700
     17 C21        -8.7040    0.1770    0.7940 c3        1 2K7      0.110700
     18 C17        -6.5950   -0.4400   -0.1070 ca        1 2K7      0.099100
     19 C18        -5.6280   -0.2730   -1.1350 ca        1 2K7      0.103100
     20 O1         -5.9640    0.6370   -2.1190 os        1 2K7     -0.305900
     21 N5         -0.2160   -3.7700    0.8780 nc        1 2K7     -0.513800
     22 N4          2.9860   -3.1780   -0.6830 nh        1 2K7     -0.698300
     23 C6          6.1970   -1.3650   -0.5960 ca        1 2K7      0.486200
     24 N2          5.8450   -0.1320   -0.1990 nb        1 2K7     -0.771000
     25 N3          3.5140   -0.9230   -0.0400 nb        1 2K7     -0.778000
     26 C5          4.4970    0.0480    0.0900 ca        1 2K7      0.895900
     27 N1          4.0800    1.2790    0.6250 nh        1 2K7     -0.829900
     28 C4          4.9260    2.4390    0.4570 c3        1 2K7      0.178500
     29 O           2.9910    3.9840    0.3360 os        1 2K7     -0.126100
     30 N           2.5660    5.1500    0.7780 nd        1 2K7     -0.351300
     31 C           3.4180    6.9710    2.3070 c3        1 2K7     -0.134400
     32 H1          5.5240    4.8920    2.2850 ha        1 2K7      0.178000
     33 H2          1.3780   -4.9900    0.7930 hn        1 2K7      0.305700
     34 H3          5.6440   -3.4170   -1.0620 ha        1 2K7      0.152000
     35 H4          0.8070   -1.1750   -0.9770 ha        1 2K7      0.179000
     36 H5         -1.9040   -1.4510    1.4080 hc        1 2K7      0.058700
     37 H6         -1.6990   -0.9420   -0.3190 hc        1 2K7      0.058700
     38 H7         -2.7610   -3.1360   -1.0530 hc        1 2K7      0.056200
     39 H8         -3.0350   -3.5560    0.6840 hc        1 2K7      0.056200
     40 H9         -4.9770   -2.7770    1.7740 ha        1 2K7      0.135000
     41 H10        -7.0860   -1.4840    1.7320 ha        1 2K7      0.138000
     42 H11        -3.6880   -0.8900   -1.8890 ha        1 2K7      0.140000
     43 H12        -4.8090   -0.1040   -3.7050 h1        1 2K7      0.043033
     44 H13        -5.4630    1.6130   -3.7940 h1        1 2K7      0.043033
     45 H14        -4.0360    1.2240   -2.7010 h1        1 2K7      0.043033
     46 H15        -9.0880   -0.8710    0.8220 h1        1 2K7      0.042700
     47 H16        -8.2800    0.4660    1.7860 h1        1 2K7      0.042700
     48 H17        -9.5160    0.8860    0.4900 h1        1 2K7      0.042700
     49 H18         3.3850   -4.0930   -0.7110 hn        1 2K7      0.428800
     50 H19         7.2730   -1.5000   -0.8160 h4        1 2K7      0.027100
     51 H20         3.0950    1.4520    0.6080 hn        1 2K7      0.447800
     52 H21         5.2480    2.5620   -0.6220 h1        1 2K7      0.077700
     53 H22         5.8570    2.2960    1.0820 h1        1 2K7      0.077700
     54 H23         3.4700    6.7950    3.4110 hc        1 2K7      0.060033
     55 H24         4.2840    7.6130    2.0060 hc        1 2K7      0.060033
     56 H25         2.4700    7.5180    2.0770 hc        1 2K7      0.060033
     57 O2         -7.7330    0.3310   -0.2340 os        1 2K7     -0.304900
@<TRIPOS>BOND
     1    1    2 1   
     2    1   30 2   
     3    1   31 1   
     4    2    3 2   
     5    2   32 1   
     6    3   28 1   
     7    3   29 1   
     8    4    7 1   
     9    4   21 1   
    10    4   33 1   
    11    5    6 ar  
    12    5   23 ar  
    13    5   34 1   
    14    6   22 1   
    15    6   25 ar  
    16    7    8 2   
    17    7   22 1   
    18    8    9 1   
    19    8   35 1   
    20    9   10 1   
    21    9   21 2   
    22   10   11 1   
    23   10   36 1   
    24   10   37 1   
    25   11   12 1   
    26   11   38 1   
    27   11   39 1   
    28   12   13 ar  
    29   12   15 ar  
    30   13   14 ar  
    31   13   40 1   
    32   14   18 ar  
    33   14   41 1   
    34   15   19 ar  
    35   15   42 1   
    36   16   20 1   
    37   16   43 1   
    38   16   44 1   
    39   16   45 1   
    40   17   46 1   
    41   17   47 1   
    42   17   48 1   
    43   17   57 1   
    44   18   19 ar  
    45   18   57 1   
    46   19   20 1   
    47   22   49 1   
    48   23   24 ar  
    49   23   50 1   
    50   24   26 ar  
    51   25   26 ar  
    52   26   27 1   
    53   27   28 1   
    54   27   51 1   
    55   28   52 1   
    56   28   53 1   
    57   29   30 1   
    58   31   54 1   
    59   31   55 1   
    60   31   56 1   
@<TRIPOS>SUBSTRUCTURE
     1 2K7         1 TEMP              0 ****  ****    0 ROOT
