@<TRIPOS>MOLECULE
2K7
   57    74     1     0     0
SMALL
bcc


@<TRIPOS>ATOM
      1 C1          0.0000    0.0000    0.0000 c3        1 2K7     -0.066000
      2 C2          1.4140    0.0000    0.0000 c2        1 2K7     -0.352000
      3 C3          1.7420    0.0000    1.3140 c2        1 2K7     -0.041000
      4 N6          6.3540    6.8400    2.9750 n7        1 2K7     -0.040000
      5 C7          7.2710    2.1110    3.6340 c2        1 2K7      0.076000
      6 C8          6.4260    3.1650    3.2810 c3        1 2K7     -0.149000
      7 C9          6.0310    5.5210    2.9850 DU        1 2K7      0.188000
      8 C10         4.7800    5.4030    2.4610 c3        1 2K7     -0.509000
      9 C11         4.3330    6.6830    2.1250 c3        1 2K7      0.020000
     10 C12         2.9970    7.0180    1.5150 DU        1 2K7     -0.227000
     11 C13         2.2850    8.0570    2.3850 c3        1 2K7     -0.530000
     12 C14         0.9480    8.3920    1.7740 c3        1 2K7      0.003000
     13 C15         0.8470    9.4220    0.8580 c3        1 2K7     -0.392000
     14 C16        -0.3750    9.7320    0.2940 c2        1 2K7     -0.395000
     15 C19        -0.1730    7.6650    2.1270 c2        1 2K7     -0.348000
     16 C20        -2.3270    6.2020    2.8590 c3        1 2K7     -0.136000
     17 C21        -2.7370   10.3930   -0.8460 c3        1 2K7     -0.307000
     18 C17        -1.5040    9.0120    0.6480 c2        1 2K7     -0.230000
     19 C18        -1.4030    7.9710    1.5650 c3        1 2K7      0.119000
     20 O1         -2.5070    7.2560    1.9110 os        1 2K7     -0.159000
     21 N5          5.2710    7.5430    2.4310 n2        1 2K7      0.013000
     22 N4          6.8330    4.4790    3.4460 n7        1 2K7     -0.269000
     23 C6          6.8250    0.8170    3.4470 c2        1 2K7      0.132000
     24 N2          5.6170    0.6150    2.9390 n2        1 2K7     -0.211000
     25 N3          5.2240    2.8890    2.7830 n2        1 2K7     -0.199000
     26 C5          4.8360    1.6330    2.6140 c3        1 2K7      0.238000
     27 N1          3.5810    1.3810    2.0870 ny        1 2K7     -0.018000
     28 C4          3.1320   -0.0000    1.8970 c3        1 2K7     -0.299000
     29 O           0.5870   -0.0010    1.9940 os        1 2K7      0.060000
     30 N          -0.3670   -0.0010    1.2500 n2        1 2K7     -0.036000
     31 C          -0.9030    0.0060   -1.2060 c3        1 2K7     -0.417000
     32 H1          0.9850    0.9940    0.0410 ha        1 2K7      0.199000
     33 H2          5.8760    6.0730    2.5460 DU        1 2K7      0.185000
     34 H3          7.2590    3.1920    3.5640 DU        1 2K7      0.324000
     35 H4          5.5460    4.7210    2.8110 DU        1 2K7      0.222000
     36 H5          3.4510    6.0820    1.8150 DU        1 2K7      0.362000
     37 H6          2.3920    6.1220    1.4540 ha        1 2K7      0.202000
     38 H7          2.7180    7.7380    1.4440 DU        1 2K7      0.243000
     39 H8          2.8890    8.9540    2.4450 hc        1 2K7      0.134000
     40 H9          1.2650    8.8480    1.6760 hc        1 2K7      0.297000
     41 H10         0.6900    9.8620    0.4380 DU        1 2K7      0.264000
     42 H11        -0.2520    8.4730    1.4100 DU        1 2K7      0.275000
     43 H12        -1.2860    6.5050    2.8520 h1        1 2K7      0.108000
     44 H13        -1.6420    5.4660    2.4560 h1        1 2K7      0.108000
     45 H14        -3.2820    5.7330    3.0630 h1        1 2K7      0.108000
     46 H15        -2.5900    9.7130   -0.0150 h1        1 2K7      0.126333
     47 H16        -2.1610    9.9120   -1.6280 h1        1 2K7      0.126333
     48 H17        -2.3110   11.3640   -0.6280 h1        1 2K7      0.126333
     49 H18         6.0200    4.9420    3.0920 DU        1 2K7      0.169000
     50 H19         6.9950    1.8810    3.5610 h4        1 2K7     -0.167000
     51 H20         4.4570    1.0630    2.4530 DU        1 2K7      0.150000
     52 H21         3.0490    1.0800    1.8800 DU        1 2K7      0.184000
     53 H22         3.1230   -0.5120    2.8510 hx        1 2K7      0.078000
     54 H23         0.0560   -0.0990   -0.7130 DU        1 2K7      0.275000
     55 H24        -0.3700   -0.1910   -2.1280 hc        1 2K7      0.120000
     56 H25        -1.7820   -0.6130   -1.0730 hc        1 2K7      0.120000
     57 O2         -2.7090    9.3160    0.0930 os        1 2K7      0.138000
@<TRIPOS>BOND
     1    1    2 1   
     2    1   30 1   
     3    1   31 1   
     4    1   54 1   
     5    2    3 1   
     6    2   32 1   
     7    3   28 1   
     8    3   29 1   
     9    4    7 1   
    10    4   21 1   
    11    4   33 1   
    12    5    6 1   
    13    5   23 1   
    14    5   34 1   
    15    6   22 1   
    16    6   25 1   
    17    6   34 1   
    18    7    8 1   
    19    7   22 1   
    20    7   33 1   
    21    7   35 1   
    22    7   49 1   
    23    8    9 1   
    24    8   33 1   
    25    8   35 1   
    26    9   10 1   
    27    9   21 1   
    28    9   36 1   
    29   10   11 1   
    30   10   36 1   
    31   10   37 1   
    32   10   38 1   
    33   11   12 1   
    34   11   38 1   
    35   11   39 1   
    36   12   13 1   
    37   12   15 1   
    38   12   42 1   
    39   13   14 1   
    40   13   40 1   
    41   13   41 1   
    42   14   18 1   
    43   14   41 1   
    44   15   19 1   
    45   15   42 1   
    46   16   20 1   
    47   16   43 1   
    48   16   44 1   
    49   16   45 1   
    50   17   46 1   
    51   17   47 1   
    52   17   48 1   
    53   17   57 1   
    54   18   19 1   
    55   18   57 1   
    56   19   20 1   
    57   19   42 1   
    58   22   49 1   
    59   23   24 1   
    60   23   50 1   
    61   24   26 1   
    62   25   26 1   
    63   26   27 1   
    64   26   51 1   
    65   27   28 1   
    66   27   51 1   
    67   27   52 1   
    68   28   52 1   
    69   28   53 1   
    70   29   30 1   
    71   31   54 1   
    72   31   55 1   
    73   31   56 1   
    74   35   49 1   
@<TRIPOS>SUBSTRUCTURE
     1 2K7         1 TEMP              0 ****  ****    0 ROOT
