@<TRIPOS>MOLECULE
2K7
   57    48     1     0     0
SMALL
bcc


@<TRIPOS>ATOM
      1 C1          5.3690   -4.2540   -4.3560 c1        1 2K7     -0.106000
      2 C2          5.5390   -3.4560   -3.2630 c1        1 2K7     -0.204000
      3 C3          5.2350   -4.1960   -2.1460 c1        1 2K7     -0.078000
      4 N6          0.2390    0.0730    3.0840 n2        1 2K7     -0.125000
      5 C7          2.9860   -1.6340    3.1830 c1        1 2K7     -0.152000
      6 C8          1.9790   -2.3180    2.5380 c1        1 2K7      0.164000
      7 C9         -0.1640   -1.1960    2.9020 c1        1 2K7     -0.048000
      8 C10        -1.5120   -1.1820    2.6680 c1        1 2K7     -0.207000
      9 C11        -1.9360    0.1230    2.7100 c1        1 2K7     -0.048000
     10 C12        -3.3860    0.6270    2.4120 c2        1 2K7     -0.083000
     11 C13        -3.4980    2.1140    2.7850 c3        1 2K7     -0.116000
     12 C14        -3.9540    2.9090    1.5700 c2        1 2K7     -0.088000
     13 C15        -5.3110    3.0690    1.3110 c2        1 2K7     -0.109000
     14 C16        -5.7310    3.8760    0.2360 c1        1 2K7     -0.190000
     15 C19        -3.0100    3.5470    0.7650 c1        1 2K7     -0.103000
     16 C20        -1.8830    4.4240   -2.1370 c3        1 2K7     -0.074500
     17 C21        -5.9370    4.7740   -2.6500 c3        1 2K7     -0.074500
     18 O2         -5.2100    5.4080   -1.6240 os        1 2K7     -0.210500
     19 C17        -4.7820    4.5150   -0.5690 c1        1 2K7      0.039500
     20 C18        -3.4250    4.3520   -0.3050 c1        1 2K7      0.039500
     21 O1         -2.4670    5.1150   -1.0270 os        1 2K7     -0.210500
     22 N5         -0.8680    0.8970    2.9640 n2        1 2K7     -0.125000
     23 N4          0.6640   -2.3650    2.9900 n2        1 2K7     -0.207000
     24 C6          4.2770   -1.7540    2.7510 c1        1 2K7     -0.152000
     25 N2          4.5630   -2.5390    1.6970 n1        1 2K7     -0.233000
     26 N3          2.2630   -3.0930    1.4990 n1        1 2K7     -0.267000
     27 C5          3.5670   -3.2140    1.0620 c1        1 2K7      0.167000
     28 N1          3.8800   -4.0830   -0.0630 n3        1 2K7     -0.250000
     29 C4          5.3020   -4.1070   -0.6400 c2        1 2K7      0.021000
     30 O           4.8850   -5.4220   -2.5470 os        1 2K7     -0.071000
     31 N           4.9690   -5.4600   -3.9300 n2        1 2K7     -0.018000
     32 C           5.5450   -3.8520   -5.7450 c2        1 2K7     -0.157000
     33 H1          5.8290   -2.5190   -3.2730 DU        1 2K7      0.207333
     34 H2          1.0970    0.3440    3.2580 DU        1 2K7      0.207333
     35 H3          2.7790   -1.0670    3.9430 ha        1 2K7      0.165500
     36 H4         -2.1040   -2.0060    2.4920 DU        1 2K7      0.207333
     37 H5         -3.5730    0.5200    1.5010 ha        1 2K7      0.094500
     38 H6         -4.0130    0.1190    2.9290 ha        1 2K7      0.094500
     39 H7         -2.6470    2.4340    3.0710 hc        1 2K7      0.096500
     40 H8         -4.1590    2.2240    3.5210 hc        1 2K7      0.096500
     41 H9         -5.9750    2.6180    1.8770 ha        1 2K7      0.131000
     42 H10        -6.7100    3.9940    0.0480 ha        1 2K7      0.137000
     43 H11        -2.0200    3.4310    0.9570 ha        1 2K7      0.153000
     44 H12        -2.5550    4.3800   -2.9040 h1        1 2K7      0.082667
     45 H13        -1.0640    4.9130   -2.4380 h1        1 2K7      0.082667
     46 H14        -1.6440    3.5390   -1.8730 h1        1 2K7      0.082667
     47 H15        -6.7210    4.3380   -2.2720 h1        1 2K7      0.082667
     48 H16        -6.2260    5.4550   -3.3230 h1        1 2K7      0.082667
     49 H17        -5.3750    4.1110   -3.0820 h1        1 2K7      0.082667
     50 H18         0.3570   -3.1120    3.4270 hn        1 2K7      0.239000
     51 H19         5.0160   -1.2510    3.2240 ha        1 2K7      0.165500
     52 H20         3.2490   -4.7080   -0.3550 hn        1 2K7      0.229000
     53 H21         5.7570   -3.3160   -0.3920 h4        1 2K7      0.131500
     54 H22         5.7720   -4.8670   -0.2950 h4        1 2K7      0.131500
     55 H23         5.2290   -4.5590   -6.3280 ha        1 2K7      0.098333
     56 H24         5.0300   -3.0260   -5.9200 ha        1 2K7      0.098333
     57 H25         6.4840   -3.6880   -5.9150 ha        1 2K7      0.098333
@<TRIPOS>BOND
     1    1    2 1   
     2    1   31 1   
     3    2    3 1   
     4    3   30 1   
     5    4    7 1   
     6    4   22 1   
     7    5   24 1   
     8    5   35 1   
     9    6   23 1   
    10    6   26 1   
    11    7    8 1   
    12    8    9 1   
    13    9   22 1   
    14   10   11 1   
    15   10   37 1   
    16   10   38 1   
    17   11   12 1   
    18   11   39 1   
    19   11   40 1   
    20   12   13 1   
    21   12   15 1   
    22   13   14 1   
    23   13   41 1   
    24   14   42 1   
    25   15   43 1   
    26   16   21 1   
    27   16   44 1   
    28   16   45 1   
    29   16   46 1   
    30   17   18 1   
    31   17   47 1   
    32   17   48 1   
    33   17   49 1   
    34   18   19 1   
    35   19   20 1   
    36   20   21 1   
    37   23   50 1   
    38   24   51 1   
    39   25   27 1   
    40   27   28 1   
    41   28   29 1   
    42   28   52 1   
    43   29   53 1   
    44   29   54 1   
    45   30   31 1   
    46   32   55 1   
    47   32   56 1   
    48   32   57 1   
@<TRIPOS>SUBSTRUCTURE
     1 2K7         1 TEMP              0 ****  ****    0 ROOT
