@<TRIPOS>MOLECULE
2K8
   24    25     1     0     0
SMALL
bcc


@<TRIPOS>ATOM
      1 O6A         0.7890   -1.0210    0.3670 o         1 2K8     -0.766300
      2 C6A         1.1210    0.1160   -0.0220 c         1 2K8      0.930600
      3 O6B         0.8390    1.2420    0.4450 o         1 2K8     -0.766300
      4 C6          2.0840    0.1230   -1.3150 c3        1 2K8     -0.030500
      5 N5          3.3780   -0.4200   -0.9720 nh        1 2K8     -0.558000
      6 C4A         4.3410    0.3900   -0.5270 cc        1 2K8      0.101800
      7 C7          2.2220    1.5560   -1.8630 c3        1 2K8      0.166800
      8 N8          3.0020    2.4510   -1.0300 nh        1 2K8     -0.650000
      9 C8A         4.1620    1.8340   -0.4560 cd        1 2K8      0.161600
     10 N1          5.0920    2.6200    0.1260 nd        1 2K8     -0.474300
     11 C2          6.2480    2.0630    0.5450 cc        1 2K8      0.204800
     12 N2          7.0940    2.9110    1.4160 n4        1 2K8     -0.738600
     13 N3          6.5600    0.6790    0.5000 n         1 2K8     -0.444400
     14 C4          5.6590   -0.1850   -0.1130 c         1 2K8      0.675700
     15 O4          5.9770   -1.3770   -0.2860 o         1 2K8     -0.619500
     16 H2          1.6110   -0.5500   -2.0800 h1        1 2K8      0.091700
     17 H3          3.4760   -1.4150   -0.8930 hn        1 2K8      0.480800
     18 H4          1.1830    1.9800   -1.9550 h1        1 2K8      0.071700
     19 H5          2.7020    1.5300   -2.8820 h1        1 2K8      0.071700
     20 H6          2.4190    2.8220   -0.2890 hn        1 2K8      0.420800
     21 H7          6.7460    3.8770    1.3720 hn        1 2K8      0.448133
     22 H8          8.0530    2.8810    1.0690 hn        1 2K8      0.448133
     23 H9          7.5030    0.3750    0.5960 hn        1 2K8      0.326500
     24 H23         7.0670    2.5850    2.3870 hn        1 2K8      0.448133
@<TRIPOS>BOND
     1    1    2 1   
     2    2    3 1   
     3    2    4 1   
     4    4    5 1   
     5    4    7 1   
     6    4   16 1   
     7    5    6 1   
     8    5   17 1   
     9    6    9 2   
    10    6   14 1   
    11    7    8 1   
    12    7   18 1   
    13    7   19 1   
    14    8    9 1   
    15    8   20 1   
    16    9   10 1   
    17   10   11 2   
    18   11   12 1   
    19   11   13 1   
    20   12   21 1   
    21   12   22 1   
    22   12   24 1   
    23   13   14 1   
    24   13   23 1   
    25   14   15 2   
@<TRIPOS>SUBSTRUCTURE
     1 2K8         1 TEMP              0 ****  ****    0 ROOT
