@<TRIPOS>MOLECULE
2K8
   24    25     1     0     0
SMALL
bcc


@<TRIPOS>ATOM
      1 O6A         0.7980   -1.0280    0.4170 o         1 2K8     -0.766300
      2 C6A         1.1230    0.1030    0.0050 c         1 2K8      0.930600
      3 O6B         0.8330    1.2360    0.4490 o         1 2K8     -0.766300
      4 C6          2.0850    0.0900   -1.2890 c3        1 2K8     -0.030500
      5 N5          3.3810   -0.4400   -0.9370 nh        1 2K8     -0.558000
      6 C4A         4.3400    0.3840   -0.5080 cc        1 2K8      0.101800
      7 C7          2.2140    1.5130   -1.8650 c3        1 2K8      0.166800
      8 N8          2.9890    2.4280   -1.0490 nh        1 2K8     -0.650000
      9 C8A         4.1530    1.8290   -0.4650 cd        1 2K8      0.161600
     10 N1          5.0790    2.6310    0.1020 nd        1 2K8     -0.474300
     11 C2          6.2390    2.0880    0.5310 cc        1 2K8      0.204800
     12 N2          7.0790    2.9580    1.3850 n4        1 2K8     -0.738600
     13 N3          6.5580    0.7060    0.5120 n         1 2K8     -0.444400
     14 C4          5.6620   -0.1750   -0.0840 c         1 2K8      0.675700
     15 O4          5.9870   -1.3680   -0.2350 o         1 2K8     -0.619500
     16 H2          1.6150   -0.6010   -2.0410 h1        1 2K8      0.091700
     17 H3          3.4850   -1.4310   -0.8390 hn        1 2K8      0.480800
     18 H4          2.6930    1.4710   -2.8830 h1        1 2K8      0.071700
     19 H5          1.1720    1.9290   -1.9640 h1        1 2K8      0.071700
     20 H6          2.4050    2.8110   -0.3160 hn        1 2K8      0.420800
     21 H7          7.0540    2.6490    2.3630 hn        1 2K8      0.448133
     22 H8          6.7260    3.9200    1.3230 hn        1 2K8      0.448133
     23 H9          7.5020    0.4090    0.6130 hn        1 2K8      0.326500
     24 H23         8.0390    2.9270    1.0390 hn        1 2K8      0.448133
@<TRIPOS>BOND
     1    1    2 1   
     2    2    3 1   
     3    2    4 1   
     4    4    5 1   
     5    4    7 1   
     6    4   16 1   
     7    5    6 1   
     8    5   17 1   
     9    6    9 2   
    10    6   14 1   
    11    7    8 1   
    12    7   18 1   
    13    7   19 1   
    14    8    9 1   
    15    8   20 1   
    16    9   10 1   
    17   10   11 2   
    18   11   12 1   
    19   11   13 1   
    20   12   21 1   
    21   12   22 1   
    22   12   24 1   
    23   13   14 1   
    24   13   23 1   
    25   14   15 2   
@<TRIPOS>SUBSTRUCTURE
     1 2K8         1 TEMP              0 ****  ****    0 ROOT
