@<TRIPOS>MOLECULE
2K8
   23    24     1     0     0
SMALL
bcc


@<TRIPOS>ATOM
      1 O6A        -2.8530    1.0110    1.0790 o         1 2K8     -0.828800
      2 C6A        -2.6810   -0.1590    0.6400 c         1 2K8      0.895600
      3 O6B        -2.9570   -1.2230    1.2550 o         1 2K8     -0.828800
      4 C6         -2.0760   -0.3140   -0.7970 c3        1 2K8      0.003500
      5 N5         -0.8970   -1.1730   -0.8510 nh        1 2K8     -0.658000
      6 C4A         0.2980   -0.5370   -0.4720 cc        1 2K8     -0.057200
      7 C7         -1.7630    1.0730   -1.3850 c3        1 2K8      0.177800
      8 N8         -0.6280    1.7410   -0.7750 nh        1 2K8     -0.669000
      9 C8A         0.4430    0.8610   -0.4280 cd        1 2K8      0.268600
     10 N1          1.6550    1.4670   -0.0750 nd        1 2K8     -0.634300
     11 C2          2.7090    0.6870    0.1660 cc        1 2K8      0.567800
     12 N2          3.9940    1.2690    0.4700 nh        1 2K8     -0.861800
     13 N3          2.6670   -0.7180    0.1100 n         1 2K8     -0.477400
     14 C4          1.4720   -1.3850   -0.2020 c         1 2K8      0.696700
     15 O4          1.4990   -2.6340   -0.2070 o         1 2K8     -0.663500
     16 H2         -2.8550   -0.8180   -1.4360 h1        1 2K8      0.058700
     17 H3         -1.0470   -2.0190   -0.3240 hn        1 2K8      0.414800
     18 H4         -1.5460    0.9840   -2.4860 h1        1 2K8      0.051200
     19 H5         -2.6710    1.7220   -1.2400 h1        1 2K8      0.051200
     20 H6         -0.9220    2.2600    0.0400 hn        1 2K8      0.408800
     21 H7          3.9980    2.2500    0.2620 hn        1 2K8      0.377800
     22 H8          4.2110    1.1270    1.4390 hn        1 2K8      0.377800
     23 H9          3.4880   -1.2560    0.2690 hn        1 2K8      0.326500
@<TRIPOS>BOND
     1    1    2 1   
     2    2    3 1   
     3    2    4 1   
     4    4    5 1   
     5    4    7 1   
     6    4   16 1   
     7    5    6 1   
     8    5   17 1   
     9    6    9 2   
    10    6   14 1   
    11    7    8 1   
    12    7   18 1   
    13    7   19 1   
    14    8    9 1   
    15    8   20 1   
    16    9   10 1   
    17   10   11 2   
    18   11   12 1   
    19   11   13 1   
    20   12   21 1   
    21   12   22 1   
    22   13   14 1   
    23   13   23 1   
    24   14   15 2   
@<TRIPOS>SUBSTRUCTURE
     1 2K8         1 TEMP              0 ****  ****    0 ROOT
