@<TRIPOS>MOLECULE
2K8
   23    22     1     0     0
SMALL
bcc


@<TRIPOS>ATOM
      1 O6A        -2.1820   -0.3660    3.6040 o         1 2K8     -0.558000
      2 C6A        -0.9270   -0.4880    3.6140 c1        1 2K8      0.331000
      3 O6B        -0.3080   -0.5530    4.7120 o         1 2K8     -0.558000
      4 C6         -0.1100   -0.4910    2.2310 c2        1 2K8     -0.106000
      5 N5         -0.6100    0.7160    1.2500 n3        1 2K8     -0.215000
      6 C4A        -0.0740    0.7530   -0.0020 c2        1 2K8     -0.086000
      7 C7         -0.2060   -1.5810    1.6650 c3        1 2K8     -0.073000
      8 N8          0.5300   -1.6930    0.3550 n3        1 2K8     -0.238000
      9 C8A         0.2970   -0.6660   -0.6110 c2        1 2K8      0.004000
     10 N1          0.5710   -0.7860   -1.9980 n2        1 2K8     -0.226000
     11 C2          0.5500    0.4170   -2.8680 c1        1 2K8      0.115000
     12 N2          0.7920    0.2850   -4.2530 n2        1 2K8     -0.298000
     13 N3          0.2980    1.8090   -2.2620 n         1 2K8     -0.315000
     14 C4         -0.0440    1.9410   -0.8620 c2        1 2K8      0.330000
     15 O4         -0.2290    3.0650   -0.3720 o         1 2K8     -0.378000
     16 H2          0.7730   -0.3400    2.5370 h4        1 2K8      0.100000
     17 H3         -0.9970    1.4840    1.6150 hn        1 2K8      0.231000
     18 H4         -1.1190   -1.7520    1.5070 h1        1 2K8      0.091500
     19 H5          0.1320   -2.2630    2.2620 h1        1 2K8      0.091500
     20 H6          0.8740   -2.4970    0.0930 hn        1 2K8      0.175000
     21 H7          0.7560    1.0240   -4.7980 hn        1 2K8      0.171000
     22 H8          0.9470   -0.5560   -4.6200 hn        1 2K8      0.171000
     23 H9          0.2860    2.5390   -2.7990 hn        1 2K8      0.241000
@<TRIPOS>BOND
     1    1    2 1   
     2    2    3 1   
     3    4    5 1   
     4    4    7 1   
     5    4   16 1   
     6    5    6 1   
     7    5   17 1   
     8    6    9 1   
     9    6   14 1   
    10    7    8 1   
    11    7   18 1   
    12    7   19 1   
    13    8    9 1   
    14    8   20 1   
    15    9   10 1   
    16   10   11 1   
    17   11   13 1   
    18   12   21 1   
    19   12   22 1   
    20   13   14 1   
    21   13   23 1   
    22   14   15 1   
@<TRIPOS>SUBSTRUCTURE
     1 2K8         1 TEMP              0 ****  ****    0 ROOT
