@<TRIPOS>MOLECULE
2K9
   34    38     1     0     0
SMALL
bcc


@<TRIPOS>ATOM
      1 O1         -0.0990    0.0090   -0.0720 o         1 2K9     -0.443100
      2 C9          1.1310   -0.0000   -0.0400 c         1 2K9      0.623000
      3 C5          1.8870   -0.0090    1.2500 cc        1 2K9      0.311000
      4 N3          1.4060   -0.0150    2.5140 nd        1 2K9     -0.577000
      5 C10         2.5210   -0.0250    3.3490 cd        1 2K9      0.287200
      6 C6          3.7120   -0.0260    2.5950 cc        1 2K9     -0.208600
      7 N1          3.3150   -0.0150    1.2610 na        1 2K9     -0.122100
      8 C1          4.0180   -0.0120    0.0710 cc        1 2K9     -0.151700
      9 N2          1.8870   -0.0030   -1.2660 nd        1 2K9     -0.594100
     10 C2          3.1730   -0.0080   -1.2010 cc        1 2K9      0.577200
     11 C4          4.1680   -0.0130   -2.2970 ca        1 2K9     -0.165900
     12 C8          3.9890   -0.0260   -3.6620 ca        1 2K9     -0.053000
     13 C12         5.1390   -0.0400   -4.4760 ca        1 2K9     -0.134000
     14 C14         6.4080   -0.0370   -3.9210 ca        1 2K9     -0.099000
     15 C11         6.6040   -0.0160   -2.5180 cp        1 2K9     -0.005000
     16 C7          5.4780   -0.0090   -1.7100 ca        1 2K9     -0.047800
     17 C3          5.3460   -0.0130   -0.2450 cd        1 2K9     -0.077200
     18 C13         7.9620   -0.0020   -1.9780 cp        1 2K9     -0.050000
     19 C16         8.3260    0.9140   -0.9820 ca        1 2K9     -0.116500
     20 C18         9.6260    0.9280   -0.4820 ca        1 2K9     -0.129000
     21 C19        10.5740    0.0270   -0.9670 ca        1 2K9     -0.120000
     22 C17        10.2190   -0.8870   -1.9590 ca        1 2K9     -0.129000
     23 C15         8.9210   -0.9010   -2.4660 ca        1 2K9     -0.116500
     24 H1          2.4120   -0.0310    4.4340 h4        1 2K9      0.054100
     25 H2          4.7580   -0.0340    2.8970 h4        1 2K9      0.187000
     26 H3          2.9830   -0.0270   -4.1080 ha        1 2K9      0.161000
     27 H4          5.0190   -0.0510   -5.5710 ha        1 2K9      0.144000
     28 H5          7.2950   -0.0460   -4.5740 ha        1 2K9      0.144000
     29 H6          6.2040   -0.0240    0.4290 ha        1 2K9      0.168000
     30 H7          7.5820    1.6330   -0.6050 ha        1 2K9      0.137000
     31 H9          9.9050    1.6550    0.2960 ha        1 2K9      0.136500
     32 H10        11.6000    0.0390   -0.5700 ha        1 2K9      0.136000
     33 H11        10.9640   -1.5990   -2.3430 ha        1 2K9      0.136500
     34 H13         8.6430   -1.6240   -3.2480 ha        1 2K9      0.137000
@<TRIPOS>BOND
     1    1    2 2   
     2    2    3 1   
     3    2    9 1   
     4    3    4 2   
     5    3    7 1   
     6    4    5 1   
     7    5    6 2   
     8    5   24 1   
     9    6    7 1   
    10    6   25 1   
    11    7    8 1   
    12    8   10 1   
    13    8   17 2   
    14    9   10 2   
    15   10   11 1   
    16   11   12 ar  
    17   11   16 ar  
    18   12   13 ar  
    19   12   26 1   
    20   13   14 ar  
    21   13   27 1   
    22   14   15 ar  
    23   14   28 1   
    24   15   16 ar  
    25   15   18 1   
    26   16   17 1   
    27   17   29 1   
    28   18   19 ar  
    29   18   23 ar  
    30   19   20 ar  
    31   19   30 1   
    32   20   21 ar  
    33   20   31 1   
    34   21   22 ar  
    35   21   32 1   
    36   22   23 ar  
    37   22   33 1   
    38   23   34 1   
@<TRIPOS>SUBSTRUCTURE
     1 2K9         1 TEMP              0 ****  ****    0 ROOT
