@<TRIPOS>MOLECULE
2KA
   20    21     1     0     0
SMALL
bcc


@<TRIPOS>ATOM
      1 O7B         0.1850    0.6660   -0.0020 o         1 2KA     -0.779300
      2 C7A         1.2160   -0.0510    0.0480 c         1 2KA      0.931200
      3 O7A         1.5740   -0.8150    0.9740 o         1 2KA     -0.779300
      4 C7          2.0940   -0.0170   -1.2010 cc        1 2KA     -0.085600
      5 C5          3.4930    0.0300   -1.3710 cc        1 2KA     -0.129600
      6 C8          1.5380   -0.0660   -2.5140 cd        1 2KA     -0.066300
      7 N9          2.5350   -0.0700   -3.4690 na        1 2KA     -0.131100
      8 C4          3.7680   -0.0180   -2.8040 cd        1 2KA      0.007100
      9 N3          5.0230   -0.0290   -3.3640 nd        1 2KA     -0.522100
     10 C2          6.0160    0.0210   -2.4720 cc        1 2KA      0.400800
     11 N2          7.3980   -0.0150   -3.0460 n4        1 2KA     -0.779600
     12 N1          5.9040    0.0950   -1.0780 n         1 2KA     -0.521400
     13 C6          4.6080    0.1310   -0.4510 c         1 2KA      0.759100
     14 O6          4.6380    0.2620    0.7730 o         1 2KA     -0.523500
     15 H2          0.4750   -0.0820   -2.7760 h4        1 2KA      0.206000
     16 H3          2.4220   -0.1040   -4.4490 hn        1 2KA      0.306700
     17 H4          7.8910   -0.8380   -2.6890 hn        1 2KA      0.461800
     18 H5          7.8990    0.8360   -2.7750 hn        1 2KA      0.461800
     19 H6          6.7070    0.1440   -0.4940 hn        1 2KA      0.323500
     20 H23         7.3440   -0.0670   -4.0700 hn        1 2KA      0.461800
@<TRIPOS>BOND
     1    1    2 1   
     2    2    3 1   
     3    2    4 1   
     4    4    5 1   
     5    4    6 2   
     6    5    8 2   
     7    5   13 1   
     8    6    7 1   
     9    6   15 1   
    10    7    8 1   
    11    7   16 1   
    12    8    9 1   
    13    9   10 2   
    14   10   11 1   
    15   10   12 1   
    16   11   17 1   
    17   11   18 1   
    18   11   20 1   
    19   12   13 1   
    20   12   19 1   
    21   13   14 2   
@<TRIPOS>SUBSTRUCTURE
     1 2KA         1 TEMP              0 ****  ****    0 ROOT
