@<TRIPOS>MOLECULE
2KA
   20    21     1     0     0
SMALL
bcc


@<TRIPOS>ATOM
      1 O7B         0.1680    0.6280   -0.0230 o         1 2KA     -0.779300
      2 C7A         1.2150   -0.0650    0.0460 c         1 2KA      0.931200
      3 O7A         1.5890   -0.7960    0.9920 o         1 2KA     -0.779300
      4 C7          2.0940   -0.0420   -1.2020 cc        1 2KA     -0.086600
      5 C5          3.4920    0.0290   -1.3720 cc        1 2KA     -0.129600
      6 C8          1.5410   -0.1300   -2.5140 cd        1 2KA     -0.066300
      7 N9          2.5380   -0.1360   -3.4680 na        1 2KA     -0.131100
      8 C4          3.7700   -0.0450   -2.8030 cd        1 2KA      0.007100
      9 N3          5.0250   -0.0460   -3.3620 nd        1 2KA     -0.522100
     10 C2          6.0160    0.0430   -2.4710 cc        1 2KA      0.400800
     11 N2          7.3990    0.0210   -3.0430 nz        1 2KA     -0.779600
     12 N1          5.9010    0.1460   -1.0790 ns        1 2KA     -0.521400
     13 C6          4.6040    0.1710   -0.4530 c         1 2KA      0.759100
     14 O6          4.6300    0.3310    0.7670 o         1 2KA     -0.523500
     15 H2          0.4780   -0.1730   -2.7760 h4        1 2KA      0.206000
     16 H3          2.4280   -0.1950   -4.4470 hn        1 2KA      0.306700
     17 H4          7.9070   -0.7850   -2.6670 hn        1 2KA      0.461800
     18 H5          7.8830    0.8870   -2.7910 hn        1 2KA      0.461800
     19 H6          6.7020    0.2230   -0.4960 hn        1 2KA      0.323500
     20 H23         7.3470   -0.0550   -4.0660 hn        1 2KA      0.461800
@<TRIPOS>BOND
     1    1    2 1   
     2    2    3 1   
     3    2    4 1   
     4    4    5 1   
     5    4    6 2   
     6    5    8 2   
     7    5   13 1   
     8    6    7 1   
     9    6   15 1   
    10    7    8 1   
    11    7   16 1   
    12    8    9 1   
    13    9   10 2   
    14   10   11 1   
    15   10   12 1   
    16   11   17 1   
    17   11   18 1   
    18   11   20 1   
    19   12   13 1   
    20   12   19 1   
    21   13   14 2   
@<TRIPOS>SUBSTRUCTURE
     1 2KA         1 TEMP              0 ****  ****    0 ROOT
