@<TRIPOS>MOLECULE
2KA
   19    14     1     0     0
SMALL
bcc


@<TRIPOS>ATOM
      1 O7B        -3.0750    0.9150    2.3860 o         1 2KA     -0.553000
      2 C7A        -1.8380    1.1510    2.4160 c1        1 2KA      0.383000
      3 O7A        -1.2690    1.3890    3.5130 o         1 2KA     -0.553000
      4 C7         -1.0370    1.1510    1.1330 c1        1 2KA     -0.118500
      5 C5         -0.2980    0.2160    0.4480 c1        1 2KA     -0.118500
      6 C8         -1.0940    2.2940    0.3640 c1        1 2KA     -0.081000
      7 N9         -0.3960    2.0660   -0.7860 n2        1 2KA     -0.172000
      8 C4          0.1000    0.7770   -0.7370 c1        1 2KA     -0.081000
      9 N3          0.9050    0.0070   -1.6730 n1        1 2KA     -0.245000
     10 C2          1.2860   -1.3490   -1.3550 c1        1 2KA      0.164000
     11 N2          2.0750   -2.0960   -2.2680 n2        1 2KA     -0.309000
     12 N1          0.8740   -1.9360   -0.1240 n3        1 2KA     -0.353000
     13 C6          0.1010   -1.1960    0.7800 c1        1 2KA      0.391000
     14 O6         -0.2890   -1.7110    1.8090 o         1 2KA     -0.338000
     15 H2         -1.5550    3.1220    0.6000 DU        1 2KA      0.199000
     16 H3         -0.2760    2.6600   -1.4670 DU        1 2KA      0.199000
     17 H4          2.3520   -1.7140   -3.0510 hn        1 2KA      0.176000
     18 H5          2.3140   -2.9550   -2.0680 hn        1 2KA      0.176000
     19 H6          1.1210   -2.7900    0.0800 hn        1 2KA      0.231000
@<TRIPOS>BOND
     1    1    2 1   
     2    2    3 1   
     3    4    5 1   
     4    4    6 1   
     5    5    8 1   
     6    6    7 1   
     7    7    8 1   
     8    9   10 1   
     9   10   12 1   
    10   11   17 1   
    11   11   18 1   
    12   12   13 1   
    13   12   19 1   
    14   13   14 1   
@<TRIPOS>SUBSTRUCTURE
     1 2KA         1 TEMP              0 ****  ****    0 ROOT
