@<TRIPOS>MOLECULE
2KA
   19    20     1     0     0
SMALL
bcc


@<TRIPOS>ATOM
      1 O7B        -3.2970    0.4580   -1.1080 o         1 2KA     -0.818300
      2 C7A        -2.7320    0.3250    0.0110 c         1 2KA      0.934200
      3 O7A        -3.1920    0.7450    1.1080 o         1 2KA     -0.818300
      4 C7         -1.4350   -0.4560    0.0520 cc        1 2KA     -0.056600
      5 C5         -0.0740   -0.0110   -0.0270 cc        1 2KA     -0.221600
      6 C8         -1.3830   -1.8510    0.1960 cd        1 2KA     -0.190300
      7 N9         -0.0520   -2.2910    0.2100 na        1 2KA     -0.173100
      8 C4          0.7690   -1.1760    0.0770 cd        1 2KA      0.119100
      9 N3          2.1610   -1.1690    0.0590 nd        1 2KA     -0.672100
     10 C2          2.7130    0.0440   -0.1080 cc        1 2KA      0.610800
     11 N2          4.1430    0.1490   -0.2350 nh        1 2KA     -0.870800
     12 N1          1.9860    1.2420   -0.2050 n         1 2KA     -0.513400
     13 C6          0.5560    1.2750   -0.1910 c         1 2KA      0.754100
     14 O6          0.0550    2.4030   -0.3160 o         1 2KA     -0.613500
     15 H2         -2.2020   -2.5610    0.2890 h4        1 2KA      0.164000
     16 H3          0.2580   -3.2190    0.3000 hn        1 2KA      0.283700
     17 H4          4.5860   -0.7470   -0.1760 hn        1 2KA      0.380800
     18 H5          4.5220    0.7750    0.4480 hn        1 2KA      0.380800
     19 H6          2.4620    2.0950   -0.3920 hn        1 2KA      0.317500
@<TRIPOS>BOND
     1    1    2 1   
     2    2    3 1   
     3    2    4 1   
     4    4    5 1   
     5    4    6 2   
     6    5    8 2   
     7    5   13 1   
     8    6    7 1   
     9    6   15 1   
    10    7    8 1   
    11    7   16 1   
    12    8    9 1   
    13    9   10 2   
    14   10   11 1   
    15   10   12 1   
    16   11   17 1   
    17   11   18 1   
    18   12   13 1   
    19   12   19 1   
    20   13   14 2   
@<TRIPOS>SUBSTRUCTURE
     1 2KA         1 TEMP              0 ****  ****    0 ROOT
