@<TRIPOS>MOLECULE
2KB
   85    87     1     0     0
SMALL
bcc


@<TRIPOS>ATOM
      1 C4          0.1390    0.1070   -0.1400 c3        1 2KB     -0.068400
      2 C5          1.6280    0.3320   -0.3580 c3        1 2KB     -0.039000
      3 C6          2.2720    0.4730    1.0500 c3        1 2KB     -0.039500
      4 C7          3.7620    0.3070    0.7880 c3        1 2KB     -0.074400
      5 C8          3.8370   -0.6920   -0.3680 c3        1 2KB     -0.078400
      6 C13         2.3050    5.7900    4.4250 c3        1 2KB     -0.040200
      7 C15         4.6440    6.6840    4.6970 c3        1 2KB      0.075100
      8 C17         4.2560    4.2730    4.1030 ce        1 2KB     -0.117200
      9 C20         1.8680    1.5750   -1.1970 c3        1 2KB     -0.083100
     10 C21         2.4100   -1.0380   -2.4450 c3        1 2KB     -0.054700
     11 C22         1.0030   -1.1880   -2.9930 c3        1 2KB     -0.092100
     12 C26         4.9290   -3.4200   -6.1270 c3        1 2KB      0.147800
     13 C28         5.6820   -2.1680   -6.5580 c3        1 2KB     -0.123100
     14 N35         9.7900   11.6170    4.8160 n1        1 2KB     -0.370800
     15 C34         9.3410   10.5460    4.8670 c1        1 2KB      0.209700
     16 C33         8.7920    9.2100    4.9320 c3        1 2KB     -0.021300
     17 C32         7.3030    9.2060    4.6430 c3        1 2KB     -0.084400
     18 O19         5.3910    7.8540    4.3660 os        1 2KB     -0.428600
     19 C14         3.2190    6.9900    4.2030 c3        1 2KB      0.155100
     20 O30         2.6640    8.0700    4.9360 oh        1 2KB     -0.598800
     21 C16         5.2290    5.4230    4.0390 c3        1 2KB      0.159300
     22 O18         5.6580    5.6760    2.7130 oh        1 2KB     -0.583800
     23 C29         4.6730    3.0520    4.4610 c2        1 2KB     -0.178000
     24 C12         2.8640    4.5700    3.7720 ce        1 2KB     -0.099200
     25 C11         2.0930    3.8130    2.9630 cf        1 2KB     -0.098000
     26 C3          1.7480    1.6690    1.7620 c2        1 2KB     -0.067400
     27 C2          0.2630    1.6110    1.9170 c3        1 2KB     -0.046200
     28 C9          2.4110   -0.8740   -0.9280 c3        1 2KB     -0.053700
     29 C1         -0.4720    1.2610    0.6330 c3        1 2KB     -0.073400
     30 C23         3.2400   -2.2570   -2.8440 c3        1 2KB     -0.079400
     31 C25         4.5580   -3.3770   -4.6410 c3        1 2KB     -0.064400
     32 O36         3.6940   -3.5170   -6.8400 oh        1 2KB     -0.597800
     33 C27         5.7790   -4.6570   -6.4040 c3        1 2KB     -0.123100
     34 H1         -0.3890    0.0050   -1.1230 hc        1 2KB      0.043700
     35 H2         -0.0140   -0.8510    0.4230 hc        1 2KB      0.043700
     36 H3          1.9440   -0.4220    1.6610 hc        1 2KB      0.055700
     37 H4          4.2950   -0.0730    1.6930 hc        1 2KB      0.045200
     38 H5          4.2310    1.2790    0.4960 hc        1 2KB      0.045200
     39 H6          4.2380   -1.6730   -0.0140 hc        1 2KB      0.042700
     40 H7          4.5240   -0.3070   -1.1630 hc        1 2KB      0.042700
     41 H9          2.1970    5.6080    5.5280 hc        1 2KB      0.067200
     42 H10         1.2870    6.0370    4.0260 hc        1 2KB      0.067200
     43 H11         4.6390    6.5480    5.8140 h1        1 2KB      0.061700
     44 H12         1.2730    1.5320   -2.1400 hc        1 2KB      0.038033
     45 H13         2.9500    1.6640   -1.4590 hc        1 2KB      0.038033
     46 H14         1.5710    2.4930   -0.6320 hc        1 2KB      0.038033
     47 H15         2.8780   -0.1220   -2.9030 hc        1 2KB      0.050700
     48 H16         1.0330   -1.5690   -4.0430 hc        1 2KB      0.035033
     49 H17         0.4130   -1.9060   -2.3740 hc        1 2KB      0.035033
     50 H18         0.4740   -0.2050   -3.0000 hc        1 2KB      0.035033
     51 H21         6.5390   -1.9810   -5.8690 hc        1 2KB      0.042367
     52 H22         6.0740   -2.2890   -7.5960 hc        1 2KB      0.042367
     53 H23         4.9990   -1.2850   -6.5380 hc        1 2KB      0.042367
     54 H24         8.9860    8.7870    5.9570 hc        1 2KB      0.074200
     55 H25         9.3290    8.5580    4.1880 hc        1 2KB      0.074200
     56 H26         6.7620    9.8680    5.3680 hc        1 2KB      0.066700
     57 H27         7.1050    9.6020    3.6140 hc        1 2KB      0.066700
     58 H28         7.3020    7.0980    4.0450 h1        1 2KB      0.039200
     59 H29         6.8560    7.4000    5.7980 h1        1 2KB      0.039200
     60 H30         3.2600    7.2610    3.1100 h1        1 2KB      0.045700
     61 H31         3.2750    8.8120    4.8360 ho        1 2KB      0.419000
     62 H32         6.1860    5.1450    4.5720 h1        1 2KB      0.073700
     63 H33         4.8880    5.9710    2.2110 ho        1 2KB      0.408000
     64 H34         3.9880    2.1960    4.5240 ha        1 2KB      0.121000
     65 H35         5.7210    2.8400    4.7120 ha        1 2KB      0.121000
     66 H36         1.0470    4.1230    2.7860 ha        1 2KB      0.126000
     67 H37         0.0350    0.8300    2.6940 hc        1 2KB      0.047700
     68 H38        -0.1410    2.5840    2.3020 hc        1 2KB      0.047700
     69 H39         1.9670   -1.8090   -0.4850 hc        1 2KB      0.046700
     70 H40        -0.5040    2.1670   -0.0290 hc        1 2KB      0.041700
     71 H41        -1.5340    1.0040    0.8910 hc        1 2KB      0.041700
     72 H42         2.6220   -3.1840   -2.7140 hc        1 2KB      0.040200
     73 H43         4.1300   -2.3580   -2.1680 hc        1 2KB      0.040200
     74 H44         5.5060   -3.3890   -4.0430 hc        1 2KB      0.047200
     75 H45         3.9820   -4.3090   -4.3970 hc        1 2KB      0.047200
     76 H46         3.9180   -3.5460   -7.7770 ho        1 2KB      0.397000
     77 H47         6.7260   -4.6090   -5.8180 hc        1 2KB      0.042367
     78 H48         5.2180   -5.5770   -6.1160 hc        1 2KB      0.042367
     79 H49         6.0290   -4.7190   -7.4900 hc        1 2KB      0.042367
     80 C10         2.5410    2.6300    2.2670 cf        1 2KB     -0.163000
     81 C24         3.7280   -2.1650   -4.2750 c3        1 2KB     -0.079400
     82 C31         6.7640    7.7880    4.7490 c3        1 2KB      0.129400
     83 H8          3.6380    2.5410    2.1500 ha        1 2KB      0.135000
     84 H19         4.3420   -1.2340   -4.4020 hc        1 2KB      0.048700
     85 H20         2.8590   -2.0920   -4.9810 hc        1 2KB      0.048700
@<TRIPOS>BOND
     1    1    2 1   
     2    1   29 1   
     3    1   34 1   
     4    1   35 1   
     5    2    3 1   
     6    2    9 1   
     7    2   28 1   
     8    3    4 1   
     9    3   26 1   
    10    3   36 1   
    11    4    5 1   
    12    4   37 1   
    13    4   38 1   
    14    5   28 1   
    15    5   39 1   
    16    5   40 1   
    17    6   19 1   
    18    6   24 1   
    19    6   41 1   
    20    6   42 1   
    21    7   18 1   
    22    7   19 1   
    23    7   21 1   
    24    7   43 1   
    25    8   21 1   
    26    8   23 2   
    27    8   24 1   
    28    9   44 1   
    29    9   45 1   
    30    9   46 1   
    31   10   11 1   
    32   10   28 1   
    33   10   30 1   
    34   10   47 1   
    35   11   48 1   
    36   11   49 1   
    37   11   50 1   
    38   12   13 1   
    39   12   31 1   
    40   12   32 1   
    41   12   33 1   
    42   13   51 1   
    43   13   52 1   
    44   13   53 1   
    45   14   15 3   
    46   15   16 1   
    47   16   17 1   
    48   16   54 1   
    49   16   55 1   
    50   17   56 1   
    51   17   57 1   
    52   17   82 1   
    53   18   82 1   
    54   19   20 1   
    55   19   60 1   
    56   20   61 1   
    57   21   22 1   
    58   21   62 1   
    59   22   63 1   
    60   23   64 1   
    61   23   65 1   
    62   24   25 2   
    63   25   66 1   
    64   25   80 1   
    65   26   27 1   
    66   26   80 2   
    67   27   29 1   
    68   27   67 1   
    69   27   68 1   
    70   28   69 1   
    71   29   70 1   
    72   29   71 1   
    73   30   72 1   
    74   30   73 1   
    75   30   81 1   
    76   31   74 1   
    77   31   75 1   
    78   31   81 1   
    79   32   76 1   
    80   33   77 1   
    81   33   78 1   
    82   33   79 1   
    83   58   82 1   
    84   59   82 1   
    85   80   83 1   
    86   81   84 1   
    87   81   85 1   
@<TRIPOS>SUBSTRUCTURE
     1 2KB         1 TEMP              0 ****  ****    0 ROOT
