@<TRIPOS>MOLECULE
2KB
   85    80     1     0     0
SMALL
bcc


@<TRIPOS>ATOM
      1 C4          0.1060    1.5310   -2.4670 c2        1 2KB     -0.481000
      2 C5          1.3570    1.0950   -1.7840 c3        1 2KB     -0.020000
      3 C6          1.7080    2.0220   -0.6220 c3        1 2KB     -0.151000
      4 C7          6.4320   -0.4770    1.6250 cx        1 2KB     -0.152000
      5 C8          6.0080   -1.8940    1.7800 cu        1 2KB     -0.180000
      6 C13         2.8440    6.7520    7.9300 c1        1 2KB     -0.041000
      7 C15         4.1140    7.4640    5.9320 c1        1 2KB     -0.028000
      8 C17         4.3580    3.4590    3.6800 c3        1 2KB     -0.204000
      9 C20         2.4940    1.0160   -2.7840 c3        1 2KB     -0.217000
     10 C21         5.1540   -1.3280   -0.6730 c2        1 2KB     -0.092000
     11 C22         0.3570   -1.6720   -4.2130 c3        1 2KB     -0.282000
     12 C26         4.0560   -3.5670   -4.8860 c3        1 2KB      0.076000
     13 C28         3.8400   -2.2500   -5.6220 c3        1 2KB     -0.223000
     14 N35         9.7200    8.5950    3.7260 n1        1 2KB      0.012000
     15 C34         8.6360    9.0340    3.6320 c1        1 2KB     -0.186000
     16 C33         7.4340    9.6900    3.3800 c1        1 2KB      0.079000
     17 C32         6.1720    9.3940    3.9990 c3        1 2KB     -0.228000
     18 O19         4.9920    8.4350    5.8360 os        1 2KB     -0.154000
     19 C14         2.9980    7.7710    6.8990 c3        1 2KB     -0.132000
     20 O30         3.0800    9.0940    7.4120 oh        1 2KB     -0.328000
     21 C16         5.1330    4.7280    4.0550 c3        1 2KB     -0.041000
     22 O18         5.4930    5.5060    2.9290 oh        1 2KB     -0.336000
     23 C29         5.1530    2.5900    2.7920 c1        1 2KB     -0.022000
     24 C12         3.0350    3.7950    3.0770 c2        1 2KB     -0.173000
     25 C11         2.4320    3.0820    2.1150 c2        1 2KB     -0.124000
     26 C3          2.6870    1.4110    0.3070 c2        1 2KB     -0.124000
     27 C2         -1.1780    3.8110    1.0540 c3        1 2KB     -0.282000
     28 C9          5.7120   -1.3190    0.6240 cu        1 2KB     -0.141000
     29 C1         -0.7040    2.4980   -2.1070 c1        1 2KB      0.170000
     30 C23         4.6670   -2.4250   -1.2740 c2        1 2KB     -0.141000
     31 C25         4.8030   -3.3590   -3.5630 c3        1 2KB     -0.179000
     32 O36         2.7480   -4.0880   -4.6400 oh        1 2KB     -0.329000
     33 C27         4.8430   -4.5380   -5.7600 c3        1 2KB     -0.223000
     34 H1          2.1290    2.9820   -1.0280 hc        1 2KB      0.100000
     35 H2         -0.1380    0.9350   -3.3740 ha        1 2KB      0.196000
     36 H3          3.1840    0.4910   -0.0520 ha        1 2KB      0.137000
     37 H4          5.9040    0.3380    2.1630 hc        1 2KB      0.106500
     38 H5          0.7670    2.2870   -0.0600 hc        1 2KB      0.100000
     39 H6          5.9950   -2.7350    2.4400 ha        1 2KB      0.184000
     40 H7          7.5000   -0.2340    1.4710 hc        1 2KB      0.106500
     41 H9          2.5520    4.6890    3.5030 ha        1 2KB      0.129000
     42 H10         2.9380    5.7080    7.5960 ha        1 2KB      0.065000
     43 H11         4.5240    5.3530    4.7680 h1        1 2KB      0.107500
     44 H12         2.2690    0.2430   -3.5610 hc        1 2KB      0.081000
     45 H13         2.6430    2.0000   -3.2910 hc        1 2KB      0.081000
     46 H14         3.4430    0.7350   -2.2670 hc        1 2KB      0.081000
     47 H15         5.1470   -0.3500   -1.1890 ha        1 2KB      0.128000
     48 H16         0.6190   -0.8610   -4.9280 hc        1 2KB      0.070875
     49 H17        -0.6770   -2.0240   -4.4150 hc        1 2KB      0.070875
     50 H18         1.0710   -2.5190   -4.3360 hc        1 2KB      0.070875
     51 H21         3.0770   -1.6330   -5.0850 hc        1 2KB      0.084167
     52 H22         3.4680   -2.4480   -6.6550 hc        1 2KB      0.084167
     53 H23         4.8010   -1.6890   -5.6760 hc        1 2KB      0.084167
     54 H24         4.3370   10.8210    6.1850 ha        1 2KB      0.002500
     55 H25         4.6840   10.7160    6.7580 ha        1 2KB      0.002500
     56 H26         5.8790   10.3310    4.5740 hc        1 2KB      0.176500
     57 H27         5.4060    9.3050    3.1710 hc        1 2KB      0.176500
     58 H28         7.0020    8.1080    5.5730 h1        1 2KB      0.125500
     59 H29         5.9310    7.2320    4.3540 h1        1 2KB      0.125500
     60 H30         2.0460    7.7240    6.2630 h1        1 2KB      0.166000
     61 H31         2.9030    9.0560    8.3620 ho        1 2KB      0.223000
     62 H32         6.1120    4.4560    4.5330 h1        1 2KB      0.107500
     63 H33         4.6840    5.6820    2.4320 ho        1 2KB      0.203000
     64 H34         4.1560    2.9020    4.6450 hc        1 2KB      0.131000
     65 H35         5.5410    3.1020    1.8940 ha        1 2KB      0.044000
     66 H36         1.4390    3.3930    1.7400 ha        1 2KB      0.136000
     67 H37        -0.4370    4.6310    1.1770 hc        1 2KB      0.070875
     68 H38        -0.8600    2.9280    1.6500 hc        1 2KB      0.070875
     69 H39         1.1680    0.0610   -1.3700 hc        1 2KB      0.103000
     70 H40        -1.2470    3.5300   -0.0230 hc        1 2KB      0.070875
     71 H41        -2.1730    4.1570    1.4090 hc        1 2KB      0.070875
     72 H42         4.6830   -3.4060   -0.7710 ha        1 2KB      0.126000
     73 H43         0.4210   -1.2820   -3.1720 hc        1 2KB      0.070875
     74 H44         4.9290   -4.3550   -3.0620 hc        1 2KB      0.087000
     75 H45         5.8260   -2.9610   -3.7870 hc        1 2KB      0.087000
     76 H46         2.8630   -4.9350   -4.1940 ho        1 2KB      0.198000
     77 H47         5.0410   -5.4870   -5.2070 hc        1 2KB      0.084167
     78 H48         5.8160   -4.0830   -6.0550 hc        1 2KB      0.084167
     79 H49         4.2580   -4.7780   -6.6800 hc        1 2KB      0.084167
     80 C10         3.0040    1.8940    1.5170 c2        1 2KB     -0.186000
     81 C24         4.0740   -2.4130   -2.6310 c3        1 2KB     -0.138000
     82 C31         6.0940    8.1890    4.9180 c3        1 2KB     -0.056000
     83 H8          3.7450    1.3330    2.1380 ha        1 2KB      0.170000
     84 H19         4.0880   -1.3750   -3.0640 hc        1 2KB      0.095500
     85 H20         2.9930   -2.7250   -2.5670 hc        1 2KB      0.095500
@<TRIPOS>BOND
     1    1    2 1   
     2    1   29 1   
     3    1   35 1   
     4    2    3 1   
     5    2    9 1   
     6    2   69 1   
     7    3   26 1   
     8    3   34 1   
     9    3   38 1   
    10    4    5 1   
    11    4   28 1   
    12    4   37 1   
    13    4   40 1   
    14    5   28 1   
    15    5   39 1   
    16    6   19 1   
    17    6   42 1   
    18    7   18 1   
    19    7   19 1   
    20    8   21 1   
    21    8   23 1   
    22    8   24 1   
    23    8   64 1   
    24    9   44 1   
    25    9   45 1   
    26    9   46 1   
    27   10   28 1   
    28   10   30 1   
    29   10   47 1   
    30   11   48 1   
    31   11   49 1   
    32   11   50 1   
    33   11   73 1   
    34   12   13 1   
    35   12   31 1   
    36   12   32 1   
    37   12   33 1   
    38   13   51 1   
    39   13   52 1   
    40   13   53 1   
    41   14   15 1   
    42   15   16 1   
    43   16   17 1   
    44   17   56 1   
    45   17   57 1   
    46   17   82 1   
    47   18   82 1   
    48   19   20 1   
    49   19   60 1   
    50   20   61 1   
    51   21   22 1   
    52   21   43 1   
    53   21   62 1   
    54   22   63 1   
    55   23   65 1   
    56   24   25 1   
    57   24   41 1   
    58   25   66 1   
    59   25   80 1   
    60   26   36 1   
    61   26   80 1   
    62   27   67 1   
    63   27   68 1   
    64   27   70 1   
    65   27   71 1   
    66   30   72 1   
    67   30   81 1   
    68   31   74 1   
    69   31   75 1   
    70   31   81 1   
    71   32   76 1   
    72   33   77 1   
    73   33   78 1   
    74   33   79 1   
    75   54   55 1   
    76   58   82 1   
    77   59   82 1   
    78   80   83 1   
    79   81   84 1   
    80   81   85 1   
@<TRIPOS>SUBSTRUCTURE
     1 2KB         1 TEMP              0 ****  ****    0 ROOT
