@<TRIPOS>MOLECULE
2KC
   51    51     1     0     0
SMALL
bcc


@<TRIPOS>ATOM
      1 N1         -0.5690   -0.2490    0.0520 nx        1 2KC      0.173000
      2 C2          0.9080   -0.0230   -0.1480 c3        1 2KC     -0.139000
      3 C3          1.5630    0.5430    1.1080 c3        1 2KC     -0.182000
      4 C4          1.2480   -0.2800    2.3710 c3        1 2KC     -0.059000
      5 C5         -0.2970   -0.5590    2.4650 c3        1 2KC      0.002000
      6 C6         -0.7650   -1.0720    1.1970 c2        1 2KC     -0.750000
      7 N7         -5.6760    3.7890   -0.8190 n2        1 2KC     -0.220000
      8 C8         -4.5230    3.4230   -0.6010 c1        1 2KC      0.185000
      9 N9         -3.2720    3.3540   -0.4160 n2        1 2KC     -0.237000
     10 C10        -2.3950    2.4720   -1.0780 c2        1 2KC      0.093000
     11 C11        -2.7220    1.1970   -1.5170 c2        1 2KC      0.011000
     12 C12        -1.7050    0.2920   -2.1000 c2        1 2KC     -0.122000
     13 C13        -1.3060    0.3870   -3.3700 c2        1 2KC     -0.132000
     14 C14        -5.0960    0.2470   -1.3750 c1        1 2KC      0.180000
     15 C16        -1.2140   -0.7910   -1.1830 c3        1 2KC     -0.066000
     16 N17        -4.0050    0.7090   -1.4310 n2        1 2KC     -0.312000
     17 C18        -0.4800    3.7720   -0.2590 c2        1 2KC      0.125000
     18 C19        -0.5120    3.3310    1.1360 c2        1 2KC     -0.146000
     19 C20         0.2880    3.8760    2.0730 c2        1 2KC     -0.037000
     20 C21         0.7470    5.9490   -0.9320 c1        1 2KC     -0.040000
     21 C22         1.3670    7.0500   -1.2610 c2        1 2KC     -0.186000
     22 C23         0.1430    4.8950   -0.6050 c1        1 2KC     -0.183000
     23 O24         0.3230    3.3020    3.3340 oh        1 2KC     -0.341000
     24 C25         2.0060   -1.6010    2.3550 c3        1 2KC     -0.237000
     25 N26         1.6770    0.5320    3.5890 nz        1 2KC     -0.077000
     26 Br27        2.2930    8.1140   -0.0600 br        1 2KC      0.091000
     27 H28        -0.9790    0.6780    0.2440 hn        1 2KC      0.207000
     28 H29         1.0610    0.6950   -1.0010 hx        1 2KC      0.124500
     29 H30         1.3730   -1.0140   -0.4060 hx        1 2KC      0.124500
     30 H31         2.6710    0.5640    0.9310 hc        1 2KC      0.106500
     31 H32         1.2120    1.6050    1.2460 hc        1 2KC      0.106500
     32 H33        -0.7880    0.4170    2.7520 hc        1 2KC      0.073000
     33 H34        -0.4920   -1.3100    3.2720 hc        1 2KC      0.073000
     34 H35        -1.1240   -2.0860    1.0570 hx        1 2KC      0.173000
     35 H36        -6.4920    3.4780   -0.3460 hn        1 2KC      0.262000
     36 H37        -1.7180    1.1370   -4.0610 ha        1 2KC      0.137000
     37 H38        -0.5530   -0.2860   -3.8040 ha        1 2KC      0.137000
     38 H39        -0.9060    3.2660   -2.1730 hn        1 2KC      0.212000
     39 H40        -0.4790   -1.4610   -1.7100 hx        1 2KC      0.142000
     40 H41        -2.0960   -1.4200   -0.8590 hx        1 2KC      0.142000
     41 H42        -1.2160    2.5230    1.4020 ha        1 2KC      0.156000
     42 H43         0.9680    4.7280    1.9180 h4        1 2KC      0.158000
     43 H44         1.3770    7.4270   -2.2960 h4        1 2KC      0.185000
     44 H45         0.2240    4.0220    3.9750 ho        1 2KC      0.247000
     45 H46         1.5770   -2.2230    1.5270 hc        1 2KC      0.109000
     46 H47         3.0960   -1.4510    2.1690 hc        1 2KC      0.109000
     47 H48         1.8670   -2.1660    3.3080 hc        1 2KC      0.109000
     48 H49         1.4600   -0.0030    4.4310 hn        1 2KC      0.246000
     49 H50         2.6780    0.7240    3.5550 hn        1 2KC      0.246000
     50 H263        1.1560    1.4170    3.6030 hn        1 2KC      0.246000
     51 N15        -1.0320    2.9020   -1.2420 n7        1 2KC     -0.221000
@<TRIPOS>BOND
     1    1    2 1   
     2    1    6 1   
     3    1   15 1   
     4    1   27 1   
     5    2    3 1   
     6    2   28 1   
     7    2   29 1   
     8    3    4 1   
     9    3   30 1   
    10    3   31 1   
    11    4    5 1   
    12    4   24 1   
    13    4   25 1   
    14    5    6 1   
    15    5   32 1   
    16    5   33 1   
    17    6   34 1   
    18    7    8 1   
    19    7   35 1   
    20    8    9 1   
    21    9   10 1   
    22   10   11 1   
    23   10   51 1   
    24   11   12 1   
    25   11   16 1   
    26   12   13 1   
    27   12   15 1   
    28   13   36 1   
    29   13   37 1   
    30   14   16 1   
    31   15   39 1   
    32   15   40 1   
    33   17   18 1   
    34   17   22 1   
    35   17   51 1   
    36   18   19 1   
    37   18   41 1   
    38   19   23 1   
    39   19   42 1   
    40   20   21 1   
    41   20   22 1   
    42   21   26 1   
    43   21   43 1   
    44   23   44 1   
    45   24   45 1   
    46   24   46 1   
    47   24   47 1   
    48   25   48 1   
    49   25   49 1   
    50   25   50 1   
    51   38   51 1   
@<TRIPOS>SUBSTRUCTURE
     1 2KC         1 TEMP              0 ****  ****    0 ROOT
