@<TRIPOS>MOLECULE
2KC
   52    51     1     0     0
SMALL
bcc


@<TRIPOS>ATOM
      1 N1          0.6680   -0.6670   -0.1020 n3        1 2KC     -0.277000
      2 C2          2.0020   -0.3580    0.4000 c3        1 2KC     -0.071000
      3 C3          2.1140   -0.3300    1.9260 c3        1 2KC     -0.191000
      4 C4          1.9480   -1.6890    2.6100 c3        1 2KC     -0.063000
      5 C5         -0.7980   -2.5980   -0.4570 c2        1 2KC     -0.228000
      6 C6          0.4110   -2.0590   -0.2340 c2        1 2KC     -0.136000
      7 N7         -5.8250    3.4320   -0.3920 n2        1 2KC     -0.164000
      8 C8         -4.7290    3.0640   -0.1840 c1        1 2KC      0.314000
      9 N9         -3.6320    2.3340   -0.0880 n2        1 2KC     -0.226000
     10 C10        -2.3640    2.7340    0.1010 c2        1 2KC      0.286000
     11 C11        -1.3580    1.5820    0.0870 c2        1 2KC      0.012000
     12 C12        -0.6650    1.2860   -1.0420 c2        1 2KC      0.005000
     13 C13        -0.8170    2.1180   -2.2790 c3        1 2KC     -0.138000
     14 C14        -1.1500    0.2180    2.2280 c1        1 2KC      0.089000
     15 C16         0.2600    0.1180   -1.2590 c3        1 2KC     -0.041000
     16 N17        -1.2920    0.8920    1.2710 n2        1 2KC     -0.229000
     17 C18        -2.6180    5.1540    0.4010 c2        1 2KC     -0.240000
     18 C19        -1.9140    6.4200    0.1480 c2        1 2KC     -0.292000
     19 C20        -1.8070    7.3840    1.0950 c2        1 2KC      0.098000
     20 C21         0.2810    3.1070   -2.4250 c2        1 2KC     -0.182000
     21 C22         0.1750    4.2940   -3.0240 c2        1 2KC     -0.228000
     22 C23        -3.9350    5.3160    0.6160 c1        1 2KC      0.217000
     23 O24        -1.1330    8.5150    0.7620 oh        1 2KC     -0.216000
     24 C25         2.7560   -1.7320    3.9020 c3        1 2KC     -0.257000
     25 N26         0.5010   -2.0050    2.8840 n4        1 2KC     -0.080000
     26 BR27       -1.3510    5.0410   -3.7620 br        1 2KC      0.084000
     27 H28         2.3020    0.6700    0.0410 h1        1 2KC      0.108500
     28 H29         2.7700   -1.0840   -0.0010 h1        1 2KC      0.108500
     29 H30         3.1540    0.0350    2.1600 hc        1 2KC      0.126500
     30 H31         1.4000    0.4210    2.3590 hc        1 2KC      0.126500
     31 H32         2.3190   -2.5050    1.9160 hx        1 2KC      0.145000
     32 H33        -1.7140   -2.0160   -0.6190 ha        1 2KC      0.145000
     33 H34        -0.9200   -3.6890   -0.5240 ha        1 2KC      0.145000
     34 H35         1.3000   -2.7180   -0.1250 h4        1 2KC      0.139000
     35 H36        -6.7440    3.7810   -0.3930 hn        1 2KC      0.402000
     36 H37        -1.8210    2.6250   -2.2980 hc        1 2KC      0.131000
     37 H38        -0.7990    1.4380   -3.1820 hc        1 2KC      0.131000
     38 H39         1.2670    2.7840   -2.0430 ha        1 2KC      0.142000
     39 H40         1.1680    0.5210   -1.8070 h1        1 2KC      0.132000
     40 H41        -0.2880   -0.5550   -1.9930 h1        1 2KC      0.132000
     41 H42        -1.4980    6.5560   -0.8640 ha        1 2KC      0.186000
     42 H43        -2.2320    7.3100    2.1110 h4        1 2KC      0.151000
     43 H44         1.0560    4.9470   -3.1400 h4        1 2KC      0.180000
     44 H45        -1.1790    9.1390    1.5070 ho        1 2KC      0.256000
     45 H46         3.8410   -1.6240    3.6470 hc        1 2KC      0.122333
     46 H47         2.4710   -0.8980    4.5880 hc        1 2KC      0.122333
     47 H48         2.6300   -2.7060    4.4370 hc        1 2KC      0.122333
     48 H49         0.4370   -2.8380    3.4750 hn        1 2KC      0.260333
     49 H50         0.0480   -1.2110    3.3670 hn        1 2KC      0.260333
     50 H263       -0.0040   -2.1680    2.0030 hn        1 2KC      0.260333
     51 H152       -0.8630    4.0780    0.4230 hn        1 2KC      0.286000
     52 N15        -1.8610    3.9640    0.3680 n3        1 2KC     -0.168000
@<TRIPOS>BOND
     1    1    2 1   
     2    1    6 1   
     3    1   15 1   
     4    2    3 1   
     5    2   27 1   
     6    2   28 1   
     7    3    4 1   
     8    3   29 1   
     9    3   30 1   
    10    4   24 1   
    11    4   25 1   
    12    4   31 1   
    13    5    6 1   
    14    5   32 1   
    15    5   33 1   
    16    6   34 1   
    17    7    8 1   
    18    7   35 1   
    19    8    9 1   
    20    9   10 1   
    21   10   11 1   
    22   10   52 1   
    23   11   12 1   
    24   11   16 1   
    25   12   13 1   
    26   12   15 1   
    27   13   20 1   
    28   13   36 1   
    29   13   37 1   
    30   14   16 1   
    31   15   39 1   
    32   15   40 1   
    33   17   18 1   
    34   17   22 1   
    35   17   52 1   
    36   18   19 1   
    37   18   41 1   
    38   19   23 1   
    39   19   42 1   
    40   20   21 1   
    41   20   38 1   
    42   21   26 1   
    43   21   43 1   
    44   23   44 1   
    45   24   45 1   
    46   24   46 1   
    47   24   47 1   
    48   25   48 1   
    49   25   49 1   
    50   25   50 1   
    51   51   52 1   
@<TRIPOS>SUBSTRUCTURE
     1 2KC         1 TEMP              0 ****  ****    0 ROOT
