@<TRIPOS>MOLECULE
2KD
   56    59     1     0     0
SMALL
bcc


@<TRIPOS>ATOM
      1 N01        -0.4750    0.0550   -0.1530 nb        1 2KD     -0.698000
      2 C02        -1.1100   -0.9550    0.4500 ca        1 2KD      0.374800
      3 C03        -0.4560   -2.0190    1.1300 ca        1 2KD     -0.207300
      4 C04         0.9270   -2.0460    1.1680 ca        1 2KD     -0.060600
      5 C05         1.6420   -0.9810    0.5480 ca        1 2KD     -0.122300
      6 C06         0.8980    0.0570   -0.1010 ca        1 2KD      0.388600
      7 C07         3.0610   -0.9180    0.5540 ca        1 2KD     -0.046000
      8 C08         3.7330    0.1190   -0.0600 cp        1 2KD     -0.095000
      9 C09         2.9910    1.1490   -0.7050 ca        1 2KD     -0.113000
     10 C10         1.6240    1.1270   -0.7270 ca        1 2KD     -0.194300
     11 C11        -2.6180   -0.9740    0.4320 c         1 2KD      0.583600
     12 C12         1.6230   -3.2180    1.8670 c         1 2KD      0.909200
     13 C13         5.1930    0.1630   -0.0660 cp        1 2KD      0.001000
     14 O14        -3.2870   -1.2680    1.4380 o         1 2KD     -0.588100
     15 N15        -3.2290   -0.6780   -0.7790 n         1 2KD     -0.564900
     16 C16        -4.6480   -0.5360   -0.9130 c3        1 2KD      0.074700
     17 C17        -5.1020    0.8430   -1.4440 c3        1 2KD     -0.044100
     18 C18        -4.8980    1.9260   -0.4480 ca        1 2KD     -0.120300
     19 C19        -5.1980   -1.5660   -1.9040 c         1 2KD      0.610100
     20 O20        -4.8300   -1.8100   -3.0530 o         1 2KD     -0.544000
     21 O21        -6.2580   -2.2630   -1.3960 os        1 2KD     -0.432900
     22 C22        -6.8190   -3.2780   -2.2290 c3        1 2KD      0.124700
     23 O23         2.7130   -3.6370    1.3860 o         1 2KD     -0.808800
     24 O24         1.0480   -3.7030    2.8750 o         1 2KD     -0.808800
     25 C25         5.8720    1.3880    0.0040 ca        1 2KD     -0.127000
     26 C26         7.2680    1.4100   -0.0100 ca        1 2KD      0.014400
     27 C27         8.0060    0.2270   -0.0850 ca        1 2KD     -0.140000
     28 C28         7.3280   -0.9900   -0.1470 ca        1 2KD     -0.124000
     29 C29         5.9360   -1.0270   -0.1380 ca        1 2KD     -0.114000
     30 C30        -3.6300    2.4920   -0.2620 ca        1 2KD     -0.081500
     31 C31        -3.4400    3.5140    0.6630 ca        1 2KD     -0.182500
     32 C32        -4.5330    3.9780    1.4080 ca        1 2KD      0.122100
     33 C33        -5.8110    3.4250    1.2300 ca        1 2KD     -0.182500
     34 C34        -5.9790    2.4020    0.3040 ca        1 2KD     -0.081500
     35 CL          8.0850    2.9060    0.0710 cl        1 2KD     -0.126400
     36 O36        -4.4230    4.9950    2.3310 oh        1 2KD     -0.505100
     37 H1         -1.0410   -2.8000    1.6410 ha        1 2KD      0.180000
     38 H2          3.6030   -1.7430    1.0610 ha        1 2KD      0.200000
     39 H3          3.5370    1.9650   -1.2020 ha        1 2KD      0.121000
     40 H4          1.0610    1.9270   -1.2300 ha        1 2KD      0.130000
     41 H5         -2.6730   -0.4180   -1.5600 hn        1 2KD      0.330500
     42 H6         -5.1310   -0.7230    0.0960 h1        1 2KD      0.124700
     43 H7         -4.5480    1.0820   -2.3910 hc        1 2KD      0.058200
     44 H8         -6.1920    0.7610   -1.7020 hc        1 2KD      0.058200
     45 H9         -7.2380   -2.8190   -3.1560 h1        1 2KD      0.047700
     46 H10        -6.0370   -4.0290   -2.4940 h1        1 2KD      0.047700
     47 H11        -7.6210   -3.7280   -1.5950 h1        1 2KD      0.047700
     48 H13         5.3040    2.3280    0.0810 ha        1 2KD      0.145000
     49 H14         9.1050    0.2530   -0.0930 ha        1 2KD      0.135000
     50 H15         7.8980   -1.9290   -0.2000 ha        1 2KD      0.133000
     51 H16         5.4090   -1.9960   -0.1830 ha        1 2KD      0.166000
     52 H17        -2.7690    2.1180   -0.8390 ha        1 2KD      0.141000
     53 H18        -2.4390    3.9410    0.8180 ha        1 2KD      0.141000
     54 H19        -6.6540    3.8000    1.8260 ha        1 2KD      0.141000
     55 H20        -6.9770    1.9570    0.1680 ha        1 2KD      0.141000
     56 H21        -3.4820    5.1970    2.4350 ho        1 2KD      0.419000
@<TRIPOS>BOND
     1    1    2 ar  
     2    1    6 ar  
     3    2    3 ar  
     4    2   11 1   
     5    3    4 ar  
     6    3   37 1   
     7    4    5 ar  
     8    4   12 1   
     9    5    6 ar  
    10    5    7 ar  
    11    6   10 ar  
    12    7    8 ar  
    13    7   38 1   
    14    8    9 ar  
    15    8   13 1   
    16    9   10 ar  
    17    9   39 1   
    18   10   40 1   
    19   11   14 2   
    20   11   15 1   
    21   12   23 1   
    22   12   24 1   
    23   13   25 ar  
    24   13   29 ar  
    25   15   16 1   
    26   15   41 1   
    27   16   17 1   
    28   16   19 1   
    29   16   42 1   
    30   17   18 1   
    31   17   43 1   
    32   17   44 1   
    33   18   30 ar  
    34   18   34 ar  
    35   19   20 2   
    36   19   21 1   
    37   21   22 1   
    38   22   45 1   
    39   22   46 1   
    40   22   47 1   
    41   25   26 ar  
    42   25   48 1   
    43   26   27 ar  
    44   26   35 1   
    45   27   28 ar  
    46   27   49 1   
    47   28   29 ar  
    48   28   50 1   
    49   29   51 1   
    50   30   31 ar  
    51   30   52 1   
    52   31   32 ar  
    53   31   53 1   
    54   32   33 ar  
    55   32   36 1   
    56   33   34 ar  
    57   33   54 1   
    58   34   55 1   
    59   36   56 1   
@<TRIPOS>SUBSTRUCTURE
     1 2KD         1 TEMP              0 ****  ****    0 ROOT
