@<TRIPOS>MOLECULE
2KD
   56    45     1     0     0
SMALL
bcc


@<TRIPOS>ATOM
      1 N01        -0.4480   -0.0410    0.6730 n1        1 2KD     -0.167000
      2 C02         0.9100   -0.0750    0.6920 c1        1 2KD      0.014000
      3 C03         1.5960   -0.1820    1.9230 c1        1 2KD     -0.152000
      4 C04         0.8920   -0.2510    3.0980 c1        1 2KD     -0.041000
      5 C05        -0.4870   -0.2150    3.0800 c1        1 2KD     -0.056000
      6 C06        -1.1660   -0.1110    1.8680 c1        1 2KD     -0.005000
      7 C07        -1.2040   -0.3050    4.2870 c2        1 2KD     -0.047000
      8 C08        -2.5820   -0.2900    4.2740 c1        1 2KD     -0.093000
      9 C09        -3.2780   -0.1860    3.0530 c1        1 2KD     -0.132500
     10 C10        -2.5670   -0.0960    1.8520 c1        1 2KD     -0.132500
     11 C11         1.6110   -0.0720   -0.7020 c1        1 2KD      0.365000
     12 C12         1.8580   -0.3150    4.2860 c2        1 2KD      0.358000
     13 C13        -3.4690   -0.2990    5.5150 c2        1 2KD      0.001000
     14 O14         2.7900   -0.1000   -0.7710 o         1 2KD     -0.360000
     15 N15         0.8180   -0.1560   -1.9050 n2        1 2KD     -0.372000
     16 C16         1.3160    0.3880   -3.1220 c3        1 2KD      0.041000
     17 C17         0.6970   -0.3230   -4.2720 c3        1 2KD     -0.144000
     18 C18         1.7890   -0.7380   -5.2430 c1        1 2KD     -0.110000
     19 C19         0.9740    1.8630   -3.1880 c1        1 2KD      0.296000
     20 O20        -0.1440    2.2700   -2.7550 o         1 2KD     -0.362000
     21 O21         1.9640    2.8030   -3.5780 o         1 2KD     -0.261000
     22 C22         1.5130    4.1800   -3.5270 c3        1 2KD     -0.065000
     23 O23         2.1110    0.6800    4.9130 o         1 2KD     -0.543500
     24 O24         2.3550   -1.3740    4.6040 o         1 2KD     -0.543500
     25 C25        -3.8650   -1.4770    6.1350 c2        1 2KD     -0.126000
     26 C26        -4.6160   -1.4310    7.3330 c1        1 2KD     -0.064000
     27 C27        -4.9620   -0.1950    7.8940 c1        1 2KD     -0.132500
     28 C28        -4.5590    0.9940    7.2640 c1        1 2KD     -0.132500
     29 C29        -3.8070    0.9340    6.0650 c1        1 2KD     -0.114000
     30 C30         1.8140   -2.0850   -5.6070 c1        1 2KD     -0.132500
     31 C31         2.7890   -2.5560   -6.4920 c1        1 2KD     -0.132500
     32 C32         3.7370   -1.6830   -7.0110 c1        1 2KD      0.014000
     33 C33         3.7120   -0.3240   -6.6440 c1        1 2KD     -0.152000
     34 C34         2.7320    0.1410   -5.7570 c1        1 2KD     -0.092000
     35 CL         -5.0310   -2.8820    8.1260 cl        1 2KD     -0.048000
     36 O36         4.8330   -2.1970   -7.7780 o         1 2KD     -0.259000
     37 H1          2.5830   -0.2050    1.9360 ha        1 2KD      0.162000
     38 H2         -0.7390   -0.3760    5.1070 ha        1 2KD      0.200000
     39 H3         -4.2800   -0.1750    3.0470 ha        1 2KD      0.135000
     40 H4         -3.0340   -0.0300    1.0220 ha        1 2KD      0.135000
     41 H5         -0.0580   -0.5940   -1.8850 hn        1 2KD      0.246000
     42 H6          2.2410    0.2800   -3.1540 h1        1 2KD      0.160000
     43 H7          0.2250   -1.1230   -3.9490 hc        1 2KD      0.109000
     44 H8          0.0360    0.2940   -4.7410 hc        1 2KD      0.109000
     45 H9          0.5350    4.2300   -3.8480 h1        1 2KD      0.087333
     46 H10         1.5730    4.5090   -2.6100 h1        1 2KD      0.087333
     47 H11         2.0550    4.7100   -4.0860 h1        1 2KD      0.087333
     48 H13        -3.6120   -2.3830    5.7200 ha        1 2KD      0.145000
     49 H14        -5.5010   -0.1600    8.7330 ha        1 2KD      0.135000
     50 H15        -4.8060    1.8930    7.6670 ha        1 2KD      0.135000
     51 H16        -3.4910    1.8040    5.6070 ha        1 2KD      0.166000
     52 H17         1.1530   -2.6960   -5.2450 ha        1 2KD      0.135000
     53 H18         2.8030   -3.4950   -6.7430 ha        1 2KD      0.135000
     54 H19         4.3860    0.3040   -7.0130 ha        1 2KD      0.162000
     55 H20         2.7100    1.1560   -5.4770 ha        1 2KD      0.138000
     56 H21         4.5940   -2.2370   -8.6710 ho        1 2KD      0.215000
@<TRIPOS>BOND
     1    1    6 1   
     2    2    3 1   
     3    3   37 1   
     4    4    5 1   
     5    4   12 1   
     6    5    7 1   
     7    7    8 1   
     8    7   38 1   
     9    8   13 1   
    10    9   10 1   
    11    9   39 1   
    12   10   40 1   
    13   11   14 1   
    14   12   23 1   
    15   12   24 1   
    16   13   25 1   
    17   13   29 1   
    18   15   16 1   
    19   15   41 1   
    20   16   17 1   
    21   16   19 1   
    22   16   42 1   
    23   17   18 1   
    24   17   43 1   
    25   17   44 1   
    26   18   34 1   
    27   19   20 1   
    28   21   22 1   
    29   22   45 1   
    30   22   46 1   
    31   22   47 1   
    32   25   26 1   
    33   25   48 1   
    34   26   35 1   
    35   27   28 1   
    36   27   49 1   
    37   28   50 1   
    38   29   51 1   
    39   30   31 1   
    40   30   52 1   
    41   31   53 1   
    42   32   33 1   
    43   33   54 1   
    44   34   55 1   
    45   36   56 1   
@<TRIPOS>SUBSTRUCTURE
     1 2KD         1 TEMP              0 ****  ****    0 ROOT
