@<TRIPOS>MOLECULE
2KD
   57    60     1     0     0
SMALL
bcc


@<TRIPOS>ATOM
      1 N01         0.3270    1.1890    0.2100 nb        1 2KD     -0.669000
      2 C02         1.1190    0.2150   -0.2530 ca        1 2KD      0.309800
      3 C03         1.1590   -1.1140    0.2370 ca        1 2KD     -0.216300
      4 C04         0.3050   -1.4560    1.2740 ca        1 2KD     -0.046600
      5 C05        -0.5140   -0.4450    1.8440 ca        1 2KD     -0.098300
      6 C06        -0.4710    0.8780    1.2820 ca        1 2KD      0.387600
      7 C07        -1.3740   -0.7060    2.9450 ca        1 2KD     -0.072000
      8 C08        -2.1590    0.2910    3.4850 cp        1 2KD     -0.038000
      9 C09        -2.1100    1.6030    2.9280 ca        1 2KD     -0.096000
     10 C10        -1.3020    1.8950    1.8640 ca        1 2KD     -0.188300
     11 C11         1.9840    0.5390   -1.4170 c         1 2KD      0.501600
     12 C12         0.2420   -2.9290    1.6960 c         1 2KD      0.930200
     13 C13        -3.0300    0.0220    4.6270 cp        1 2KD     -0.035000
     14 O14         3.1880    0.6830   -1.5030 o         1 2KD     -0.410100
     15 N15         1.1500    0.6750   -2.6920 n4        1 2KD     -0.681800
     16 C16         1.8950    0.4730   -3.9750 c3        1 2KD      0.062500
     17 C17         1.4860   -0.8320   -4.6920 c3        1 2KD     -0.022100
     18 C18         1.6370   -1.9920   -3.7820 ca        1 2KD     -0.223300
     19 C19         1.6810    1.6540   -4.9080 c         1 2KD      0.614100
     20 O20         0.9230    2.6090   -4.7210 o         1 2KD     -0.532000
     21 O21         2.4400    1.5820   -6.0270 os        1 2KD     -0.405900
     22 C22         2.3070    2.6650   -6.9620 c3        1 2KD      0.122700
     23 O23         0.2570   -3.7640    0.7450 o         1 2KD     -0.804300
     24 O24         0.1740   -3.2070    2.9140 o         1 2KD     -0.804300
     25 C25        -4.2860    0.6390    4.7200 ca        1 2KD     -0.117000
     26 C26        -5.1080    0.3720    5.8170 ca        1 2KD      0.013400
     27 C27        -4.6970   -0.5040    6.8250 ca        1 2KD     -0.119000
     28 C28        -3.4500   -1.1180    6.7250 ca        1 2KD     -0.121000
     29 C29        -2.6190   -0.8610    5.6360 ca        1 2KD     -0.106000
     30 C30         2.8850   -2.6070   -3.6220 ca        1 2KD     -0.101000
     31 C31         3.0620   -3.6220   -2.6910 ca        1 2KD     -0.181500
     32 C32         1.9720   -4.0260   -1.8930 ca        1 2KD      0.191100
     33 C33         0.6970   -3.4610   -2.0980 ca        1 2KD     -0.181500
     34 C34         0.5380   -2.4620   -3.0470 ca        1 2KD     -0.101000
     35 CL         -6.6310    1.1250    5.9230 cl        1 2KD     -0.100400
     36 O36         2.2150   -4.9790   -0.9540 oh        1 2KD     -0.501100
     37 H1          1.8140   -1.8780   -0.2120 ha        1 2KD      0.174000
     38 H2         -1.3760   -1.7360    3.3570 ha        1 2KD      0.205000
     39 H3         -2.7320    2.3920    3.3800 ha        1 2KD      0.142000
     40 H4         -1.2680    2.9140    1.4490 ha        1 2KD      0.146000
     41 H5          0.7160    1.6120   -2.6780 hn        1 2KD      0.477300
     42 H6          3.0050    0.4160   -3.7350 hx        1 2KD      0.151700
     43 H7          0.4310   -0.7470   -5.0640 hc        1 2KD      0.083200
     44 H8          2.1590   -0.9270   -5.5880 hc        1 2KD      0.083200
     45 H9          2.5980    3.6240   -6.4700 h1        1 2KD      0.068033
     46 H10         3.0190    2.3820   -7.7770 h1        1 2KD      0.068033
     47 H11         1.2540    2.7180   -7.3290 h1        1 2KD      0.068033
     48 H13        -4.6270    1.3210    3.9260 ha        1 2KD      0.145000
     49 H14        -5.3510   -0.7100    7.6860 ha        1 2KD      0.147000
     50 H15        -3.1190   -1.8130    7.5120 ha        1 2KD      0.143000
     51 H16        -1.6350   -1.3540    5.5660 ha        1 2KD      0.159000
     52 H17         3.7390   -2.2760   -4.2320 ha        1 2KD      0.126000
     53 H18         4.0400   -4.1060   -2.5540 ha        1 2KD      0.178500
     54 H19        -0.1440   -3.7900   -1.4590 ha        1 2KD      0.178500
     55 H20        -0.4660   -2.0460   -3.2270 ha        1 2KD      0.126000
     56 H21         1.4760   -4.9900   -0.3080 ho        1 2KD      0.493000
     57 H152        0.3980   -0.0300   -2.6330 hn        1 2KD      0.477300
@<TRIPOS>BOND
     1    1    2 ar  
     2    1    6 ar  
     3    2    3 ar  
     4    2   11 1   
     5    3    4 ar  
     6    3   37 1   
     7    4    5 ar  
     8    4   12 1   
     9    5    6 ar  
    10    5    7 ar  
    11    6   10 ar  
    12    7    8 ar  
    13    7   38 1   
    14    8    9 ar  
    15    8   13 1   
    16    9   10 ar  
    17    9   39 1   
    18   10   40 1   
    19   11   14 2   
    20   11   15 1   
    21   12   23 1   
    22   12   24 1   
    23   13   25 ar  
    24   13   29 ar  
    25   15   16 1   
    26   15   41 1   
    27   15   57 1   
    28   16   17 1   
    29   16   19 1   
    30   16   42 1   
    31   17   18 1   
    32   17   43 1   
    33   17   44 1   
    34   18   30 ar  
    35   18   34 ar  
    36   19   20 2   
    37   19   21 1   
    38   21   22 1   
    39   22   45 1   
    40   22   46 1   
    41   22   47 1   
    42   25   26 ar  
    43   25   48 1   
    44   26   27 ar  
    45   26   35 1   
    46   27   28 ar  
    47   27   49 1   
    48   28   29 ar  
    49   28   50 1   
    50   29   51 1   
    51   30   31 ar  
    52   30   52 1   
    53   31   32 ar  
    54   31   53 1   
    55   32   33 ar  
    56   32   36 1   
    57   33   34 ar  
    58   33   54 1   
    59   34   55 1   
    60   36   56 1   
@<TRIPOS>SUBSTRUCTURE
     1 2KD         1 TEMP              0 ****  ****    0 ROOT
