@<TRIPOS>MOLECULE
2KD
   57    60     1     0     0
SMALL
bcc


@<TRIPOS>ATOM
      1 N01         0.1760    1.2570   -0.0190 nb        1 2KD     -0.673000
      2 C02         1.2830    0.5630   -0.3170 ca        1 2KD      0.311800
      3 C03         1.7440   -0.5820    0.3780 ca        1 2KD     -0.203300
      4 C04         0.9870   -1.0540    1.4400 ca        1 2KD     -0.053600
      5 C05        -0.1640   -0.3220    1.8350 ca        1 2KD     -0.094300
      6 C06        -0.5340    0.8440    1.0770 ca        1 2KD      0.388600
      7 C07        -0.9600   -0.7100    2.9470 ca        1 2KD     -0.074000
      8 C08        -2.0680    0.0200    3.3170 cp        1 2KD     -0.037000
      9 C09        -2.4270    1.1810    2.5690 ca        1 2KD     -0.096000
     10 C10        -1.6960    1.5840    1.4870 ca        1 2KD     -0.189300
     11 C11         2.0650    0.9790   -1.5070 c         1 2KD      0.496600
     12 C12         1.4030   -2.3920    2.0660 c         1 2KD      0.927200
     13 C13        -2.8750   -0.3740    4.4710 cp        1 2KD     -0.035000
     14 O14         3.2320    1.3120   -1.6030 o         1 2KD     -0.423100
     15 N15         1.2460    0.9110   -2.7940 ny        1 2KD     -0.678800
     16 C16         2.0380    0.4920   -3.9970 c3        1 2KD      0.066500
     17 C17         1.5170   -0.8170   -4.6300 c3        1 2KD     -0.021100
     18 C18         1.1500   -1.8160   -3.5980 ca        1 2KD     -0.235300
     19 C19         2.0350    1.5900   -5.0490 c         1 2KD      0.616100
     20 O20         1.3530    2.6180   -5.0350 o         1 2KD     -0.531000
     21 O21         2.8940    1.3410   -6.0650 os        1 2KD     -0.404900
     22 C22         2.9630    2.3320   -7.1040 c3        1 2KD      0.122700
     23 O23         1.8330   -3.2570    1.2480 o         1 2KD     -0.801300
     24 O24         1.2970   -2.5430    3.3040 o         1 2KD     -0.801300
     25 C25        -4.2680   -0.2170    4.4490 ca        1 2KD     -0.117000
     26 C26        -5.0250   -0.5980    5.5590 ca        1 2KD      0.013400
     27 C27        -4.4120   -1.1370    6.6940 ca        1 2KD     -0.119000
     28 C28        -3.0280   -1.2950    6.7090 ca        1 2KD     -0.121000
     29 C29        -2.2600   -0.9190    5.6080 ca        1 2KD     -0.106000
     30 C30         2.1220   -2.3270   -2.7240 ca        1 2KD     -0.097500
     31 C31         1.7690   -3.1920   -1.7000 ca        1 2KD     -0.184500
     32 C32         0.4230   -3.5920   -1.5620 ca        1 2KD      0.201100
     33 C33        -0.5470   -3.1410   -2.4820 ca        1 2KD     -0.184500
     34 C34        -0.1760   -2.2540   -3.4830 ca        1 2KD     -0.097500
     35 Cl         -6.7160   -0.4040    5.5240 cl        1 2KD     -0.100400
     36 O36        -0.0020   -4.4210   -0.5740 oh        1 2KD     -0.502100
     37 H1          2.6500   -1.1230    0.0650 ha        1 2KD      0.176000
     38 H2         -0.6440   -1.6130    3.5100 ha        1 2KD      0.206000
     39 H3         -3.3080    1.7620    2.8880 ha        1 2KD      0.142000
     40 H4         -1.9800    2.4860    0.9230 ha        1 2KD      0.144000
     41 H5          0.4830    0.2290   -2.6470 hn        1 2KD      0.479800
     42 H6          3.1130    0.3290   -3.6700 hx        1 2KD      0.145700
     43 H7          0.6380   -0.5880   -5.2900 hc        1 2KD      0.082700
     44 H8          2.3450   -1.2000   -5.2880 hc        1 2KD      0.082700
     45 H9          3.7260    1.9090   -7.8040 h1        1 2KD      0.067700
     46 H10         3.2900    3.3070   -6.6710 h1        1 2KD      0.067700
     47 H11         1.9640    2.4360   -7.5900 h1        1 2KD      0.067700
     48 H13        -4.7630    0.1930    3.5560 ha        1 2KD      0.145000
     49 H14        -5.0160   -1.4360    7.5640 ha        1 2KD      0.147000
     50 H15        -2.5370   -1.7230    7.5960 ha        1 2KD      0.143000
     51 H16        -1.1660   -1.0510    5.6300 ha        1 2KD      0.158000
     52 H17         3.1750   -2.0330   -2.8470 ha        1 2KD      0.127500
     53 H18         2.5080   -3.5390   -0.9550 ha        1 2KD      0.176500
     54 H19        -1.5850   -3.4900   -2.3840 ha        1 2KD      0.176500
     55 H20        -0.9360   -1.8950   -4.1940 ha        1 2KD      0.127500
     56 H21         0.6740   -4.4470    0.1390 ho        1 2KD      0.493000
     57 H152        0.8250    1.8390   -2.9530 hn        1 2KD      0.479800
@<TRIPOS>BOND
     1    1    2 ar  
     2    1    6 ar  
     3    2    3 ar  
     4    2   11 1   
     5    3    4 ar  
     6    3   37 1   
     7    4    5 ar  
     8    4   12 1   
     9    5    6 ar  
    10    5    7 ar  
    11    6   10 ar  
    12    7    8 ar  
    13    7   38 1   
    14    8    9 ar  
    15    8   13 1   
    16    9   10 ar  
    17    9   39 1   
    18   10   40 1   
    19   11   14 2   
    20   11   15 1   
    21   12   23 1   
    22   12   24 1   
    23   13   25 ar  
    24   13   29 ar  
    25   15   16 1   
    26   15   41 1   
    27   15   57 1   
    28   16   17 1   
    29   16   19 1   
    30   16   42 1   
    31   17   18 1   
    32   17   43 1   
    33   17   44 1   
    34   18   30 ar  
    35   18   34 ar  
    36   19   20 2   
    37   19   21 1   
    38   21   22 1   
    39   22   45 1   
    40   22   46 1   
    41   22   47 1   
    42   25   26 ar  
    43   25   48 1   
    44   26   27 ar  
    45   26   35 1   
    46   27   28 ar  
    47   27   49 1   
    48   28   29 ar  
    49   28   50 1   
    50   29   51 1   
    51   30   31 ar  
    52   30   52 1   
    53   31   32 ar  
    54   31   53 1   
    55   32   33 ar  
    56   32   36 1   
    57   33   34 ar  
    58   33   54 1   
    59   34   55 1   
    60   36   56 1   
@<TRIPOS>SUBSTRUCTURE
     1 2KD         1 TEMP              0 ****  ****    0 ROOT
