@<TRIPOS>MOLECULE
2KD
   57    60     1     0     0
SMALL
bcc


@<TRIPOS>ATOM
      1 N01         0.1690    1.2580   -0.0240 nb        1 2KD     -0.673000
      2 C02         1.2760    0.5680   -0.3290 ca        1 2KD      0.311800
      3 C03         1.7480   -0.5740    0.3660 ca        1 2KD     -0.203300
      4 C04         1.0000   -1.0480    1.4330 ca        1 2KD     -0.053600
      5 C05        -0.1510   -0.3200    1.8350 ca        1 2KD     -0.094300
      6 C06        -0.5310    0.8430    1.0790 ca        1 2KD      0.388600
      7 C07        -0.9360   -0.7090    2.9540 ca        1 2KD     -0.074000
      8 C08        -2.0450    0.0180    3.3310 cp        1 2KD     -0.037000
      9 C09        -2.4150    1.1750    2.5840 ca        1 2KD     -0.096000
     10 C10        -1.6930    1.5800    1.4960 ca        1 2KD     -0.189300
     11 C11         2.0480    0.9850   -1.5250 c         1 2KD      0.496600
     12 C12         1.4260   -2.3820    2.0590 c         1 2KD      0.927200
     13 C13        -2.8410   -0.3770    4.4920 cp        1 2KD     -0.035000
     14 O14         3.2130    1.3220   -1.6300 o         1 2KD     -0.423100
     15 N15         1.2210    0.9110   -2.8060 n4        1 2KD     -0.678800
     16 C16         2.0050    0.4930   -4.0140 c3        1 2KD      0.066500
     17 C17         1.4860   -0.8190   -4.6410 c3        1 2KD     -0.021100
     18 C18         1.1310   -1.8170   -3.6040 ca        1 2KD     -0.235300
     19 C19         1.9900    1.5900   -5.0680 c         1 2KD      0.616100
     20 O20         1.3040    2.6140   -5.0500 o         1 2KD     -0.531000
     21 O21         2.8420    1.3430   -6.0900 os        1 2KD     -0.404900
     22 C22         2.8990    2.3320   -7.1310 c3        1 2KD      0.122700
     23 O23         1.8550   -3.2470    1.2390 o         1 2KD     -0.801300
     24 O24         1.3310   -2.5320    3.2980 o         1 2KD     -0.801300
     25 C25        -4.2350   -0.2260    4.4800 ca        1 2KD     -0.117000
     26 C26        -4.9820   -0.6080    5.5960 ca        1 2KD      0.013400
     27 C27        -4.3590   -1.1430    6.7280 ca        1 2KD     -0.119000
     28 C28        -2.9740   -1.2940    6.7320 ca        1 2KD     -0.121000
     29 C29        -2.2160   -0.9170    5.6260 ca        1 2KD     -0.106000
     30 C30         2.1110   -2.3230   -2.7360 ca        1 2KD     -0.097500
     31 C31         1.7690   -3.1880   -1.7080 ca        1 2KD     -0.184500
     32 C32         0.4260   -3.5930   -1.5600 ca        1 2KD      0.201100
     33 C33        -0.5520   -3.1480   -2.4740 ca        1 2KD     -0.184500
     34 C34        -0.1930   -2.2610   -3.4790 ca        1 2KD     -0.097500
     35 CL         -6.6740   -0.4220    5.5740 cl        1 2KD     -0.100400
     36 O36         0.0110   -4.4230   -0.5680 oh        1 2KD     -0.502100
     37 H1          2.6540   -1.1120    0.0460 ha        1 2KD      0.176000
     38 H2         -0.6130   -1.6090    3.5170 ha        1 2KD      0.206000
     39 H3         -3.2950    1.7540    2.9080 ha        1 2KD      0.142000
     40 H4         -1.9850    2.4790    0.9320 ha        1 2KD      0.144000
     41 H5          0.7940    1.8370   -2.9630 hn        1 2KD      0.479800
     42 H6          3.0830    0.3360   -3.6940 hx        1 2KD      0.145700
     43 H7          0.6010   -0.5950   -5.2950 hc        1 2KD      0.082700
     44 H8          2.3100   -1.2000   -5.3040 hc        1 2KD      0.082700
     45 H9          3.6580    1.9110   -7.8360 h1        1 2KD      0.067700
     46 H10         3.2250    3.3100   -6.7020 h1        1 2KD      0.067700
     47 H11         1.8960    2.4300   -7.6100 h1        1 2KD      0.067700
     48 H13        -4.7390    0.1790    3.5900 ha        1 2KD      0.145000
     49 H14        -4.9550   -1.4420    7.6030 ha        1 2KD      0.147000
     50 H15        -2.4740   -1.7190    7.6170 ha        1 2KD      0.143000
     51 H16        -1.1210   -1.0450    5.6390 ha        1 2KD      0.158000
     52 H17         3.1620   -2.0250   -2.8680 ha        1 2KD      0.127500
     53 H18         2.5150   -3.5300   -0.9680 ha        1 2KD      0.176500
     54 H19        -1.5880   -3.5020   -2.3680 ha        1 2KD      0.176500
     55 H20        -0.9600   -1.9070   -4.1850 ha        1 2KD      0.127500
     56 H21         0.6930   -4.4440    0.1410 ho        1 2KD      0.493000
     57 H152        0.4620    0.2260   -2.6530 hn        1 2KD      0.479800
@<TRIPOS>BOND
     1    1    2 ar  
     2    1    6 ar  
     3    2    3 ar  
     4    2   11 1   
     5    3    4 ar  
     6    3   37 1   
     7    4    5 ar  
     8    4   12 1   
     9    5    6 ar  
    10    5    7 ar  
    11    6   10 ar  
    12    7    8 ar  
    13    7   38 1   
    14    8    9 ar  
    15    8   13 1   
    16    9   10 ar  
    17    9   39 1   
    18   10   40 1   
    19   11   14 2   
    20   11   15 1   
    21   12   23 1   
    22   12   24 1   
    23   13   25 ar  
    24   13   29 ar  
    25   15   16 1   
    26   15   41 1   
    27   15   57 1   
    28   16   17 1   
    29   16   19 1   
    30   16   42 1   
    31   17   18 1   
    32   17   43 1   
    33   17   44 1   
    34   18   30 ar  
    35   18   34 ar  
    36   19   20 2   
    37   19   21 1   
    38   21   22 1   
    39   22   45 1   
    40   22   46 1   
    41   22   47 1   
    42   25   26 ar  
    43   25   48 1   
    44   26   27 ar  
    45   26   35 1   
    46   27   28 ar  
    47   27   49 1   
    48   28   29 ar  
    49   28   50 1   
    50   29   51 1   
    51   30   31 ar  
    52   30   52 1   
    53   31   32 ar  
    54   31   53 1   
    55   32   33 ar  
    56   32   36 1   
    57   33   34 ar  
    58   33   54 1   
    59   34   55 1   
    60   36   56 1   
@<TRIPOS>SUBSTRUCTURE
     1 2KD         1 TEMP              0 ****  ****    0 ROOT
