@<TRIPOS>MOLECULE
2KE
   73    76     1     0     0
SMALL
bcc


@<TRIPOS>ATOM
      1 C18         0.6200   -0.3290    1.1200 ca        1 2KE     -0.166000
      2 C17         0.6690    0.0760   -0.2210 ca        1 2KE     -0.146300
      3 C15        -0.7610    1.6830   -1.4010 c         1 2KE      0.660100
      4 C19         0.7350   -1.6790    1.4430 ca        1 2KE      0.099100
      5 C20         0.9060   -2.6480    0.4110 ca        1 2KE      0.130100
      6 C21         0.9510   -2.2270   -0.9190 ca        1 2KE     -0.186000
      7 C22         0.8310   -0.8710   -1.2290 ca        1 2KE     -0.100000
      8 C11         4.4260    2.1980    1.1940 ca        1 2KE     -0.064000
      9 C34        -5.1890   -1.8020   -1.8420 ca        1 2KE     -0.011000
     10 C33        -5.5860   -0.9550   -0.8020 ca        1 2KE     -0.388500
     11 N1         -1.9230    1.9300   -0.6970 n         1 2KE     -0.546900
     12 N2          7.9670    2.6930    0.0110 nb        1 2KE     -0.752000
     13 C3          7.7150    2.7720   -1.3240 ca        1 2KE      0.436200
     14 C4          6.4640    2.6540   -1.8960 ca        1 2KE     -0.291300
     15 C5          5.3430    2.4500   -1.0450 ca        1 2KE      0.053000
     16 C6          5.5520    2.3820    0.3570 ca        1 2KE     -0.210300
     17 C7          6.9190    2.5140    0.8470 ca        1 2KE      0.660200
     18 C8          4.0390    2.3170   -1.5730 ca        1 2KE     -0.210000
     19 C9          2.9350    2.1430   -0.7350 ca        1 2KE      0.181600
     20 C10         3.1610    2.0780    0.6770 ca        1 2KE     -0.179000
     21 N13         1.6440    2.1360   -1.2820 nh        1 2KE     -0.723600
     22 C14         0.5400    1.5420   -0.5600 c3        1 2KE      0.196800
     23 O23         0.9920   -3.9460    0.8530 os        1 2KE     -0.307900
     24 O24         0.6620   -2.1910    2.7220 os        1 2KE     -0.307900
     25 C25         0.7970   -1.2340    3.7820 c3        1 2KE      0.126400
     26 C26         0.9150   -2.0400    5.0550 c3        1 2KE     -0.099100
     27 C28         2.6600   -4.9900   -0.5750 c3        1 2KE     -0.111600
     28 C29         0.8240   -6.2650    0.5620 c3        1 2KE     -0.111600
     29 C30        -3.2070    1.9710   -1.3470 c3        1 2KE      0.130300
     30 C31        -3.8870    0.6390   -1.4960 ca        1 2KE     -0.153300
     31 C32        -4.9270    0.2700   -0.6440 ca        1 2KE     -0.009000
     32 C35        -4.1470   -1.4460   -2.6960 ca        1 2KE     -0.159000
     33 C36        -3.4910   -0.2290   -2.5220 ca        1 2KE     -0.047000
     34 O38        -7.3600   -0.2070    0.8230 o         1 2KE     -0.658300
     35 O39        -7.7660   -2.1870   -0.5040 o         1 2KE     -0.658300
     36 N40        -6.1460   -2.2810    1.3400 n3        1 2KE     -1.026700
     37 H1          0.4970    0.4230    1.9130 ha        1 2KE      0.136000
     38 H2          1.0890   -2.9510   -1.7350 ha        1 2KE      0.146000
     39 H3          0.8540   -0.5490   -2.2830 ha        1 2KE      0.149000
     40 H4          4.5460    2.1600    2.2880 ha        1 2KE      0.128000
     41 H5         -5.7240   -2.7560   -1.9950 ha        1 2KE      0.150000
     42 H6          0.5280   -4.7980   -1.0160 h1        1 2KE      0.045700
     43 H7         -1.9210    1.7590    0.2810 hn        1 2KE      0.308500
     44 H8          8.6190    2.9330   -1.9410 h4        1 2KE      0.018100
     45 H9          6.3220    2.7180   -2.9810 ha        1 2KE      0.143000
     46 H10         3.9180    2.3690   -2.6660 ha        1 2KE      0.140000
     47 H11         2.3100    1.9250    1.3580 ha        1 2KE      0.129000
     48 H12         6.5670    1.9140    2.7490 hn        1 2KE      0.403800
     49 H13         8.1110    2.4980    2.5070 hn        1 2KE      0.403800
     50 H14         1.6180    1.9410   -2.2650 hn        1 2KE      0.422800
     51 H15         0.4290    2.1350    0.3990 h1        1 2KE      0.077700
     52 H16         1.7090   -0.6040    3.6130 h1        1 2KE      0.034200
     53 H17        -0.1140   -0.5790    3.8010 h1        1 2KE      0.034200
     54 H18         0.0170   -2.6900    5.1900 hc        1 2KE      0.050367
     55 H19         1.8180   -2.6940    5.0210 hc        1 2KE      0.050367
     56 H20         0.9980   -1.3430    5.9230 hc        1 2KE      0.050367
     57 H21         2.8140   -5.7960   -1.3310 hc        1 2KE      0.049700
     58 H22         2.9470   -4.0090   -1.0240 hc        1 2KE      0.049700
     59 H23         3.3250   -5.1830    0.3010 hc        1 2KE      0.049700
     60 H24        -0.2460   -6.2310    0.8740 hc        1 2KE      0.049700
     61 H25         0.9790   -7.1190   -0.1390 hc        1 2KE      0.049700
     62 H26         1.4530   -6.4160    1.4710 hc        1 2KE      0.049700
     63 H27        -3.8660    2.6620   -0.7440 h1        1 2KE      0.075200
     64 H28        -3.0660    2.4200   -2.3740 h1        1 2KE      0.075200
     65 H29        -5.2570    0.9580    0.1550 ha        1 2KE      0.153000
     66 H30        -3.8460   -2.1230   -3.5090 ha        1 2KE      0.143000
     67 H31        -2.6600    0.0650   -3.1870 ha        1 2KE      0.162000
     68 H32        -6.0560   -3.2640    1.2770 hn        1 2KE      0.447300
     69 H33        -5.7680   -1.9160    2.1760 hn        1 2KE      0.447300
     70 O16        -0.7440    1.5970   -2.6450 o         1 2KE     -0.612100
     71 N12         7.1540    2.5260    2.2290 nh        1 2KE     -0.926500
     72 S37        -6.8610   -1.3840    0.2220 sy        1 2KE      1.527200
     73 C27         1.2090   -4.9720   -0.1370 c3        1 2KE      0.138100
@<TRIPOS>BOND
     1    1    2 ar  
     2    1    4 ar  
     3    1   37 1   
     4    2    7 ar  
     5    2   22 1   
     6    3   11 1   
     7    3   22 1   
     8    3   70 2   
     9    4    5 ar  
    10    4   24 1   
    11    5    6 ar  
    12    5   23 1   
    13    6    7 ar  
    14    6   38 1   
    15    7   39 1   
    16    8   16 ar  
    17    8   20 ar  
    18    8   40 1   
    19    9   10 ar  
    20    9   32 ar  
    21    9   41 1   
    22   10   31 ar  
    23   10   72 1   
    24   11   29 1   
    25   11   43 1   
    26   12   13 ar  
    27   12   17 ar  
    28   13   14 ar  
    29   13   44 1   
    30   14   15 ar  
    31   14   45 1   
    32   15   16 ar  
    33   15   18 ar  
    34   16   17 ar  
    35   17   71 1   
    36   18   19 ar  
    37   18   46 1   
    38   19   20 ar  
    39   19   21 1   
    40   20   47 1   
    41   21   22 1   
    42   21   50 1   
    43   22   51 1   
    44   23   73 1   
    45   24   25 1   
    46   25   26 1   
    47   25   52 1   
    48   25   53 1   
    49   26   54 1   
    50   26   55 1   
    51   26   56 1   
    52   27   57 1   
    53   27   58 1   
    54   27   59 1   
    55   27   73 1   
    56   28   60 1   
    57   28   61 1   
    58   28   62 1   
    59   28   73 1   
    60   29   30 1   
    61   29   63 1   
    62   29   64 1   
    63   30   31 ar  
    64   30   33 ar  
    65   31   65 1   
    66   32   33 ar  
    67   32   66 1   
    68   33   67 1   
    69   34   72 2   
    70   35   72 2   
    71   36   68 1   
    72   36   69 1   
    73   36   72 1   
    74   42   73 1   
    75   48   71 1   
    76   49   71 1   
@<TRIPOS>SUBSTRUCTURE
     1 2KE         1 TEMP              0 ****  ****    0 ROOT
