@<TRIPOS>MOLECULE
2KE
   75    75     1     0     0
SMALL
bcc


@<TRIPOS>ATOM
      1 C18        -1.5450    0.7780    0.8980 ca        1 2KE     -0.186000
      2 C17        -0.6490   -0.0040    0.1470 ca        1 2KE     -0.204000
      3 C15        -1.5810   -0.9290   -1.9440 c2        1 2KE      0.267000
      4 C19        -1.5490    0.7000    2.2850 ca        1 2KE      0.075000
      5 C20        -0.6460   -0.1940    2.9540 ca        1 2KE      0.132000
      6 C21         0.2350   -0.9610    2.1890 ca        1 2KE     -0.201000
      7 C22         0.2380   -0.8580    0.7950 ca        1 2KE     -0.127000
      8 C11         3.3340    2.2180   -3.3640 ca        1 2KE     -0.037000
      9 C34         3.2440   -5.4400   -3.8630 c2        1 2KE     -0.127000
     10 C33         2.2510   -4.4670   -4.3040 c2        1 2KE     -0.642000
     11 N1         -1.2550   -2.3650   -1.5780 ny        1 2KE     -0.128000
     12 N2          2.9390    5.9440   -3.6460 na        1 2KE     -0.202000
     13 C3          1.6770    6.0910   -3.0830 c2        1 2KE     -0.007000
     14 C4          0.9610    5.0220   -2.6330 c2        1 2KE     -0.158000
     15 C5          1.5100    3.6990   -2.7320 ca        1 2KE      0.089000
     16 C6          2.8030    3.5300   -3.2950 ca        1 2KE     -0.173000
     17 C7          3.5300    4.7010   -3.7710 c2        1 2KE      0.304000
     18 C8          0.7780    2.5930   -2.2750 ca        1 2KE     -0.218000
     19 C9          1.2980    1.2910   -2.3710 ca        1 2KE      0.177000
     20 C10         2.6190    1.1360   -2.9160 ca        1 2KE     -0.172000
     21 N13         0.6050    0.1470   -2.0140 nu        1 2KE     -0.316000
     22 C14        -0.6660    0.1680   -1.3490 c3        1 2KE      0.107000
     23 O23        -0.7630   -0.2030    4.3090 os        1 2KE     -0.174000
     24 O24        -2.3720    1.4220    3.1080 os        1 2KE     -0.198000
     25 C25        -3.1550    2.4680    2.4920 c3        1 2KE     -0.127000
     26 C26        -2.4630    3.6020    1.9390 c1        1 2KE     -0.069000
     27 C28         1.4950   -0.4280    5.1840 c3        1 2KE     -0.233500
     28 C29        -0.5500   -1.1880    6.4250 c3        1 2KE     -0.233500
     29 C30        -0.0110   -2.7590   -2.2140 c1        1 2KE      0.008000
     30 C31         0.0020   -3.8570   -3.0860 c2        1 2KE     -0.298000
     31 C32         1.1580   -4.1960   -3.6770 c1        1 2KE      0.254000
     32 C35         2.9640   -6.6060   -3.3420 c1        1 2KE     -0.110000
     33 C36         2.7450   -7.7860   -2.8530 c2        1 2KE     -0.126000
     34 O38         1.7630   -2.6840   -6.0370 o         1 2KE     -0.905000
     35 O39         4.0530   -3.1030   -5.4640 o         1 2KE     -0.905000
     36 N40         2.8400   -4.7450   -6.8580 n8        1 2KE     -0.949000
     37 H1         -2.2370    1.4630    0.3830 ha        1 2KE      0.147000
     38 H2          0.9540   -1.6370    2.6780 ha        1 2KE      0.163000
     39 H3          0.9760   -1.4500    0.2280 ha        1 2KE      0.137000
     40 H4          4.3390    2.0270   -3.7750 ha        1 2KE      0.149000
     41 H5          4.2970   -5.1090   -3.9860 ha        1 2KE      0.189000
     42 H6          0.1820   -2.0680    4.5720 h1        1 2KE      0.086000
     43 H7         -1.0670   -2.3830   -0.5590 hn        1 2KE      0.250500
     44 H8          3.4110    6.7710   -3.9620 hn        1 2KE      0.281000
     45 H9         -0.0380    5.1660   -2.1910 ha        1 2KE      0.189000
     46 H10        -0.2120    2.7920   -1.8320 ha        1 2KE      0.160000
     47 H11         3.0670    0.1290   -2.9800 ha        1 2KE      0.165000
     48 H12         5.2720    5.3870   -4.6600 hn        1 2KE      0.272000
     49 H13         5.1880    3.7020   -4.4290 hn        1 2KE      0.272000
     50 H14         1.1380   -0.6980   -1.9160 hn        1 2KE      0.262000
     51 H15        -1.2100    1.1350   -1.6030 h1        1 2KE      0.163000
     52 H16        -1.9230    3.3880   -0.5300 ha        1 2KE      0.003750
     53 H17        -2.4020    3.8450   -0.3690 ha        1 2KE      0.003750
     54 H18        -1.3700    3.6500    2.0360 ha        1 2KE      0.068000
     55 H19        -3.8790    2.0210    1.7560 h1        1 2KE      0.175500
     56 H20        -3.7600    2.8620    3.3740 h1        1 2KE      0.175500
     57 H21         1.9560   -0.2940    4.1760 hc        1 2KE      0.098833
     58 H22         2.1570   -1.0810    5.8020 hc        1 2KE      0.098833
     59 H23         1.4190    0.5730    5.6740 hc        1 2KE      0.098833
     60 H24        -1.5610   -1.6480    6.3140 hc        1 2KE      0.098833
     61 H25         0.0790   -1.8310    7.0850 hc        1 2KE      0.098833
     62 H26        -0.6690   -0.1820    6.8960 hc        1 2KE      0.098833
     63 H27         2.7380   -2.0450   -1.1600 ha        1 2KE      0.003750
     64 H28         3.1500   -1.5160   -1.2580 ha        1 2KE      0.003750
     65 H29        -0.9010   -4.4510   -3.3410 ha        1 2KE      0.171000
     66 H30         2.6550   -7.9700   -1.7700 ha        1 2KE      0.168000
     67 H31         2.6480   -8.6810   -3.4920 ha        1 2KE      0.168000
     68 H32         1.3090    7.1360   -3.0340 h4        1 2KE      0.204000
     69 H33         2.0900   -4.9730   -7.4720 hn        1 2KE      0.277000
     70 S37         2.7920   -3.6010   -5.7940 s6        1 2KE      2.856000
     71 C27         0.1250   -1.0620    5.0700 c3        1 2KE      0.028000
     72 H121       -2.0720   -2.9600   -1.7790 hn        1 2KE      0.250500
     73 H403        3.6260   -5.3370   -7.0120 hn        1 2KE      0.277000
     74 O16        -2.5680   -0.7600   -2.6350 o         1 2KE     -0.160000
     75 N12         4.7650    4.5960   -4.3320 nv        1 2KE     -0.337000
@<TRIPOS>BOND
     1    1    2 1   
     2    1    4 1   
     3    1   37 1   
     4    2    7 1   
     5    2   22 1   
     6    3   11 1   
     7    3   22 1   
     8    3   74 1   
     9    4    5 1   
    10    4   24 1   
    11    5    6 1   
    12    5   23 1   
    13    6    7 1   
    14    6   38 1   
    15    7   39 1   
    16    8   16 1   
    17    8   20 1   
    18    8   40 1   
    19    9   10 1   
    20    9   32 1   
    21    9   41 1   
    22   10   31 1   
    23   10   70 1   
    24   11   29 1   
    25   11   43 1   
    26   11   72 1   
    27   12   13 1   
    28   12   17 1   
    29   12   44 1   
    30   13   14 1   
    31   13   68 1   
    32   14   15 1   
    33   14   45 1   
    34   15   16 1   
    35   15   18 1   
    36   16   17 1   
    37   17   75 1   
    38   18   19 1   
    39   18   46 1   
    40   19   20 1   
    41   19   21 1   
    42   20   47 1   
    43   21   22 1   
    44   21   50 1   
    45   22   51 1   
    46   23   71 1   
    47   24   25 1   
    48   25   26 1   
    49   25   55 1   
    50   25   56 1   
    51   26   54 1   
    52   27   57 1   
    53   27   58 1   
    54   27   59 1   
    55   27   71 1   
    56   28   60 1   
    57   28   61 1   
    58   28   62 1   
    59   28   71 1   
    60   29   30 1   
    61   30   31 1   
    62   30   65 1   
    63   32   33 1   
    64   33   66 1   
    65   33   67 1   
    66   34   70 1   
    67   35   70 1   
    68   36   69 1   
    69   36   70 1   
    70   36   73 1   
    71   42   71 1   
    72   48   75 1   
    73   49   75 1   
    74   52   53 1   
    75   63   64 1   
@<TRIPOS>SUBSTRUCTURE
     1 2KE         1 TEMP              0 ****  ****    0 ROOT
