@<TRIPOS>MOLECULE
2KE
   73    62     1     0     0
SMALL
bcc


@<TRIPOS>ATOM
      1 C18        -0.5480   -0.4500    2.7340 c1        1 2KE     -0.084000
      2 C17        -1.3790   -0.1930    1.6560 c1        1 2KE     -0.107000
      3 C15        -0.0680   -1.4120   -0.0820 c1        1 2KE      0.269000
      4 C19        -1.0990   -0.6650    4.0090 c1        1 2KE      0.025000
      5 C20        -2.4780   -0.6200    4.1870 c2        1 2KE      0.076000
      6 C21        -3.3060   -0.3640    3.1070 c1        1 2KE     -0.203000
      7 C22        -2.7550   -0.1490    1.8340 c1        1 2KE     -0.090000
      8 C11        -0.9980    3.8000   -2.1970 c1        1 2KE     -0.089000
      9 C34         2.5760   -2.6360   -5.8270 c1        1 2KE     -0.011000
     10 C27        -4.2400   -0.3110    5.8570 c3        1 2KE      0.029000
     11 C33         3.3710   -2.2450   -4.7510 c1        1 2KE     -0.830000
     12 N1          0.1190   -1.8040   -1.4490 n2        1 2KE     -0.358000
     13 N2          1.2610    4.5250   -5.0310 n1        1 2KE     -0.214000
     14 C3          2.2550    3.5800   -4.8150 c1        1 2KE     -0.116250
     15 C4          2.1660    2.7090   -3.7290 c1        1 2KE     -0.116250
     16 C5          1.0870    2.7880   -2.8670 c1        1 2KE      0.025000
     17 C6          0.1120    3.7190   -3.0820 c1        1 2KE     -0.124000
     18 C7          0.2070    4.6040   -4.1910 c2        1 2KE      0.116000
     19 C8          0.9890    1.8930   -1.7470 c1        1 2KE     -0.158000
     20 C9         -0.0940    1.9760   -0.8880 c1        1 2KE      0.025000
     21 C10        -1.0920    2.9300   -1.1100 c1        1 2KE     -0.158000
     22 N12        -0.5600    5.6550   -4.7720 n3        1 2KE     -0.318000
     23 N13         0.0780    0.9760    0.1600 n2        1 2KE     -0.255000
     24 C14        -0.8120   -0.1100    0.2480 c3        1 2KE      0.035000
     25 O16         0.3470   -2.1280    0.8260 o         1 2KE     -0.384000
     26 O23        -3.0660   -1.0420    5.4850 os        1 2KE     -0.209000
     27 O24        -0.2770   -1.0770    5.0590 o         1 2KE     -0.216000
     28 C25         0.4270   -0.0320    5.6760 c3        1 2KE     -0.022000
     29 C26         1.1020   -0.5620    6.9900 c3        1 2KE     -0.216000
     30 C28        -5.3480   -1.2870    6.2320 c3        1 2KE     -0.229500
     31 C29        -3.9290    0.5750    7.0390 c3        1 2KE     -0.229500
     32 C30         1.0130   -2.8740   -1.7670 c3        1 2KE      0.010000
     33 C31         1.5500   -2.6930   -3.2430 c1        1 2KE     -0.141000
     34 C32         2.8550   -2.2740   -3.4590 c1        1 2KE     -0.005000
     35 C35         1.2630   -3.0570   -5.6070 c1        1 2KE     -0.116250
     36 C36         0.7530   -3.0850   -4.3240 c1        1 2KE     -0.116250
     37 S37         4.9670   -1.6760   -5.2690 s4        1 2KE      2.085800
     38 O38         4.8580   -0.5590   -6.1460 o         1 2KE     -0.551900
     39 O39         5.6890   -1.1080   -4.1880 o         1 2KE     -0.551900
     40 N40         5.8060   -2.9000   -5.9650 n2        1 2KE     -0.953000
     41 H1          0.4390   -0.4820    2.6060 ha        1 2KE      0.170000
     42 H2         -4.2680   -0.3320    3.2310 ha        1 2KE      0.139000
     43 H3         -3.3360    0.0300    1.0790 ha        1 2KE      0.129000
     44 H4         -1.7150    4.4820   -2.3540 ha        1 2KE      0.130000
     45 H5          2.9290   -2.6170   -6.7150 ha        1 2KE      0.162000
     46 H6         -4.5200    0.2170    5.1380 h1        1 2KE      0.086000
     47 H7         -0.3940   -1.4270   -2.1080 hn        1 2KE      0.224000
     48 H8          3.0280    3.5240   -5.4340 ha        1 2KE      0.152750
     49 H9          2.8850    2.0250   -3.5730 ha        1 2KE      0.152750
     50 H10         1.7050    1.2060   -1.5870 ha        1 2KE      0.152500
     51 H11        -1.8500    2.9880   -0.5100 ha        1 2KE      0.152500
     52 H12        -1.2120    6.0760   -4.2770 hn        1 2KE      0.192500
     53 H13        -0.4000    5.9140   -5.6230 hn        1 2KE      0.192500
     54 H14         0.7840    1.0480    0.7580 hn        1 2KE      0.199000
     55 H15        -1.5560    0.0200   -0.4020 h1        1 2KE      0.112000
     56 H16         1.1190    0.3020    5.0640 h1        1 2KE      0.081000
     57 H17        -0.1760    0.6740    5.8900 h1        1 2KE      0.081000
     58 H18         1.7480    0.0930    7.3120 hc        1 2KE      0.084667
     59 H19         1.5660   -1.4190    6.8020 hc        1 2KE      0.084667
     60 H20         0.3990   -0.7110    7.6910 hc        1 2KE      0.084667
     61 H21        -5.1950   -1.6230    7.1500 hc        1 2KE      0.088500
     62 H22        -5.3450   -2.0310    5.6120 hc        1 2KE      0.088500
     63 H23        -6.2080   -0.8350    6.1910 hc        1 2KE      0.088500
     64 H24        -4.7130    1.0750    7.2780 hc        1 2KE      0.088500
     65 H25        -3.1860    1.2110    6.7970 hc        1 2KE      0.088500
     66 H26        -3.6420    0.0050    7.8200 hc        1 2KE      0.088500
     67 H27         0.5360   -3.7310   -1.6960 h1        1 2KE      0.109500
     68 H28         1.7710   -2.8670   -1.1380 h1        1 2KE      0.109500
     69 H29         3.4220   -1.9960   -2.6880 ha        1 2KE      0.165000
     70 H30         0.6600   -3.3540   -6.4210 ha        1 2KE      0.152750
     71 H31        -0.1630   -3.3790   -4.1710 ha        1 2KE      0.152750
     72 H32         6.0310   -3.6620   -5.4600 hn        1 2KE      0.246000
     73 H33         6.0550   -2.8440   -6.8550 hn        1 2KE      0.246000
@<TRIPOS>BOND
     1    1    4 1   
     2    1   41 1   
     3    2    7 1   
     4    2   24 1   
     5    3   24 1   
     6    3   25 1   
     7    4    5 1   
     8    5    6 1   
     9    5   26 1   
    10    6   42 1   
    11    7   43 1   
    12    8   17 1   
    13    8   44 1   
    14    9   11 1   
    15    9   45 1   
    16   10   26 1   
    17   10   30 1   
    18   10   31 1   
    19   10   46 1   
    20   11   37 1   
    21   12   32 1   
    22   12   47 1   
    23   13   18 1   
    24   14   15 1   
    25   14   48 1   
    26   15   49 1   
    27   16   19 1   
    28   17   18 1   
    29   18   22 1   
    30   19   50 1   
    31   20   21 1   
    32   21   51 1   
    33   22   52 1   
    34   22   53 1   
    35   23   24 1   
    36   23   54 1   
    37   24   55 1   
    38   27   28 1   
    39   28   29 1   
    40   28   56 1   
    41   28   57 1   
    42   29   58 1   
    43   29   59 1   
    44   29   60 1   
    45   30   61 1   
    46   30   62 1   
    47   30   63 1   
    48   31   64 1   
    49   31   65 1   
    50   31   66 1   
    51   32   33 1   
    52   32   67 1   
    53   32   68 1   
    54   33   34 1   
    55   34   69 1   
    56   35   36 1   
    57   35   70 1   
    58   36   71 1   
    59   37   38 1   
    60   37   39 1   
    61   40   72 1   
    62   40   73 1   
@<TRIPOS>SUBSTRUCTURE
     1 2KE         1 TEMP              0 ****  ****    0 ROOT
