@<TRIPOS>MOLECULE
2KF
   81    84     1     0     0
SMALL
bcc


@<TRIPOS>ATOM
      1 C13        -0.2040   -0.0560    0.9160 ca        1 2KF     -0.201300
      2 C18         2.0790    0.2880    1.6420 ca        1 2KF      0.114100
      3 C17         1.1550    0.1500    0.6140 ca        1 2KF     -0.197000
      4 C19         1.6510    0.2090    3.0070 ca        1 2KF      0.159100
      5 C20         0.2990    0.0080    3.2830 ca        1 2KF     -0.194000
      6 C21        -0.6230   -0.1220    2.2400 ca        1 2KF     -0.092000
      7 C12        -1.1640   -0.2080   -0.2360 c3        1 2KF      0.254800
      8 C34         1.4420    4.8260   -3.9530 ca        1 2KF     -0.027000
      9 C33         0.8170    6.0710   -3.8430 ca        1 2KF     -0.113000
     10 C1         -4.7390   -5.6140   -3.4580 ca        1 2KF      0.454200
     11 N2         -3.6230   -6.1830   -3.9780 nb        1 2KF     -0.736000
     12 C3         -2.4170   -5.6750   -3.6260 ca        1 2KF      0.671200
     13 C4         -2.2970   -4.5270   -2.7310 ca        1 2KF     -0.193300
     14 C5         -3.4960   -3.9580   -2.2280 ca        1 2KF      0.033000
     15 C6         -4.7410   -4.5240   -2.6050 ca        1 2KF     -0.294300
     16 C7         -1.0610   -3.9720   -2.3210 ca        1 2KF     -0.061000
     17 C8         -1.0100   -2.8930   -1.4720 ca        1 2KF     -0.192000
     18 C9         -2.2130   -2.2990   -0.9820 ca        1 2KF      0.114600
     19 C10        -3.4360   -2.8360   -1.3600 ca        1 2KF     -0.128000
     20 N11        -2.2050   -1.1770   -0.1120 nh        1 2KF     -0.752600
     21 C14        -1.8130    1.2000   -0.3960 c         1 2KF      0.530100
     22 O15        -2.9320    1.5940   -0.1230 o         1 2KF     -0.417100
     23 N16        -0.8600    2.2570   -0.9360 n4        1 2KF     -0.690800
     24 O22         3.4220    0.5250    1.4690 os        1 2KF     -0.295900
     25 O23         2.6500    0.3600    3.9270 os        1 2KF     -0.299900
     26 C25         3.6550   -0.2510    5.9570 c3        1 2KF     -0.112600
     27 C26         1.7390    1.3670    5.9380 c3        1 2KF     -0.112600
     28 C28         5.3850    0.7300    0.1920 c3        1 2KF     -0.102100
     29 C29        -1.1740    2.5750   -2.3610 c3        1 2KF      0.136100
     30 C30        -0.4200    3.7740   -2.8620 ca        1 2KF     -0.052300
     31 C31        -1.0480    5.0130   -2.7470 ca        1 2KF     -0.122000
     32 C32        -0.4320    6.1680   -3.2380 ca        1 2KF     -0.056000
     33 C35         0.8520    3.6560   -3.4680 ca        1 2KF     -0.326500
     34 S36         1.5650    2.1200   -3.5850 sy        1 2KF      1.336300
     35 O37         1.5770    1.6100   -2.2510 o         1 2KF     -0.671800
     36 O38         0.8220    1.3220   -4.4660 o         1 2KF     -0.671800
     37 C39         3.1600    2.3800   -4.1400 c3        1 2KF     -0.266900
     38 C40         4.0290    1.2070   -3.7170 c3        1 2KF     -0.087100
     39 C41         3.2220    2.5200   -5.6480 c3        1 2KF     -0.087100
     40 H1          1.4850    0.1820   -0.4380 ha        1 2KF      0.167000
     41 H2         -0.0590   -0.0520    4.3230 ha        1 2KF      0.160000
     42 H3         -1.6840   -0.2710    2.4960 ha        1 2KF      0.143000
     43 H4          1.6120   -0.7480    5.3940 h1        1 2KF      0.053700
     44 H5         -0.5810   -0.3970   -1.1940 h1        1 2KF      0.109700
     45 H6          2.4300    4.7950   -4.4460 ha        1 2KF      0.154000
     46 H7          3.3750    1.2590   -0.4930 h1        1 2KF      0.041200
     47 H8          3.6800   -0.5400   -0.3170 h1        1 2KF      0.041200
     48 H9          1.3140    6.9710   -4.2410 ha        1 2KF      0.167000
     49 H10        -5.6820   -6.0950   -3.7810 h4        1 2KF      0.031100
     50 H11        -5.6780   -4.1010   -2.2210 ha        1 2KF      0.150000
     51 H12        -0.1110   -4.4140   -2.6620 ha        1 2KF      0.138000
     52 H13        -0.0330   -2.5040   -1.1470 ha        1 2KF      0.133000
     53 H14        -4.3860   -2.4150   -0.9920 ha        1 2KF      0.152000
     54 H15        -2.4750   -1.3920    0.8260 hn        1 2KF      0.429800
     55 H16        -0.9460    3.1130   -0.3780 hn        1 2KF      0.471300
     56 H17         4.0690   -1.1730    5.4850 hc        1 2KF      0.054367
     57 H18         3.4960   -0.4320    7.0470 hc        1 2KF      0.054367
     58 H19         4.3930    0.5760    5.8260 hc        1 2KF      0.054367
     59 H20         0.7920    1.6580    5.4230 hc        1 2KF      0.054367
     60 H21         2.4600    2.2160    5.8540 hc        1 2KF      0.054367
     61 H22         1.5240    1.1820    7.0170 hc        1 2KF      0.054367
     62 H23         5.8080    0.7230   -0.8410 hc        1 2KF      0.055033
     63 H24         5.5880    1.7190    0.6670 hc        1 2KF      0.055033
     64 H25         5.8870   -0.0600    0.8010 hc        1 2KF      0.055033
     65 H26        -2.2860    2.7710   -2.4290 hx        1 2KF      0.125200
     66 H27        -0.9500    1.6570   -2.9850 hx        1 2KF      0.125200
     67 H28        -2.0450    5.0910   -2.2820 ha        1 2KF      0.154000
     68 H29        -0.9380    7.1440   -3.1490 ha        1 2KF      0.167000
     69 H30         3.6240    3.2980   -3.6810 h1        1 2KF      0.122700
     70 H31         4.0090    1.0800   -2.6050 hc        1 2KF      0.065867
     71 H32         5.0860    1.3850   -4.0320 hc        1 2KF      0.065867
     72 H33         3.6770    0.2630   -4.2020 hc        1 2KF      0.065867
     73 H34         2.6570    3.4190   -5.9950 hc        1 2KF      0.065867
     74 H35         2.7860    1.6140   -6.1410 hc        1 2KF      0.065867
     75 H36         4.2830    2.6230   -5.9810 hc        1 2KF      0.065867
     76 H37        -0.4780   -5.7290   -4.2310 hn        1 2KF      0.417300
     77 H38        -1.3890   -7.0350   -4.7580 hn        1 2KF      0.417300
     78 C24         2.3280    0.1170    5.3180 c3        1 2KF      0.136100
     79 C27         3.8980    0.4720    0.1140 c3        1 2KF      0.118400
     80 H162        0.1150    1.9110   -0.8580 hn        1 2KF      0.471300
     81 N42        -1.2650   -6.3150   -4.0800 nh        1 2KF     -0.932500
@<TRIPOS>BOND
     1    1    3 ar  
     2    1    6 ar  
     3    1    7 1   
     4    2    3 ar  
     5    2    4 ar  
     6    2   24 1   
     7    3   40 1   
     8    4    5 ar  
     9    4   25 1   
    10    5    6 ar  
    11    5   41 1   
    12    6   42 1   
    13    7   20 1   
    14    7   21 1   
    15    7   44 1   
    16    8    9 ar  
    17    8   33 ar  
    18    8   45 1   
    19    9   32 ar  
    20    9   48 1   
    21   10   11 ar  
    22   10   15 ar  
    23   10   49 1   
    24   11   12 ar  
    25   12   13 ar  
    26   12   81 1   
    27   13   14 ar  
    28   13   16 ar  
    29   14   15 ar  
    30   14   19 ar  
    31   15   50 1   
    32   16   17 ar  
    33   16   51 1   
    34   17   18 ar  
    35   17   52 1   
    36   18   19 ar  
    37   18   20 1   
    38   19   53 1   
    39   20   54 1   
    40   21   22 2   
    41   21   23 1   
    42   23   29 1   
    43   23   55 1   
    44   23   80 1   
    45   24   79 1   
    46   25   78 1   
    47   26   56 1   
    48   26   57 1   
    49   26   58 1   
    50   26   78 1   
    51   27   59 1   
    52   27   60 1   
    53   27   61 1   
    54   27   78 1   
    55   28   62 1   
    56   28   63 1   
    57   28   64 1   
    58   28   79 1   
    59   29   30 1   
    60   29   65 1   
    61   29   66 1   
    62   30   31 ar  
    63   30   33 ar  
    64   31   32 ar  
    65   31   67 1   
    66   32   68 1   
    67   33   34 1   
    68   34   35 2   
    69   34   36 2   
    70   34   37 1   
    71   37   38 1   
    72   37   39 1   
    73   37   69 1   
    74   38   70 1   
    75   38   71 1   
    76   38   72 1   
    77   39   73 1   
    78   39   74 1   
    79   39   75 1   
    80   43   78 1   
    81   46   79 1   
    82   47   79 1   
    83   76   81 1   
    84   77   81 1   
@<TRIPOS>SUBSTRUCTURE
     1 2KF         1 TEMP              0 ****  ****    0 ROOT
