@<TRIPOS>MOLECULE
2KF
   80    70     1     0     0
SMALL
bcc


@<TRIPOS>ATOM
      1 C13         0.0770   -1.4620    0.3920 c1        1 2KF     -0.111000
      2 C18         0.1110   -1.3760    2.8210 c1        1 2KF      0.028000
      3 C17        -0.5850   -1.2400    1.6020 c1        1 2KF     -0.093000
      4 C19         1.4500   -1.7310    2.8150 c2        1 2KF      0.077000
      5 C20         2.1120   -1.9540    1.5930 c1        1 2KF     -0.199000
      6 C21         1.4230   -1.8190    0.3900 c1        1 2KF     -0.084000
      7 C24         3.3420   -1.2410    4.2520 c3        1 2KF      0.030000
      8 C12        -0.6430   -1.2070   -0.9320 c3        1 2KF      0.035000
      9 C34         1.2040    5.3900   -2.5520 c1        1 2KF     -0.095000
     10 C27        -0.5730    0.1090    4.6200 c3        1 2KF     -0.022000
     11 C33         1.7310    5.0340   -3.7800 c1        1 2KF     -0.095000
     12 C1         -4.2060   -5.6030   -5.2390 c1        1 2KF     -0.033000
     13 N2         -3.2510   -6.5650   -5.3540 n1        1 2KF     -0.223000
     14 C3         -2.1250   -6.5100   -4.5840 c1        1 2KF      0.134000
     15 C4         -1.9470   -5.4500   -3.6630 c1        1 2KF     -0.136000
     16 C5         -2.9040   -4.4820   -3.5450 c1        1 2KF      0.043000
     17 C6         -4.0370   -4.5440   -4.3240 c2        1 2KF     -0.221000
     18 C7         -0.7420   -5.3550   -2.9140 c1        1 2KF     -0.075000
     19 C8         -0.5370   -4.2800   -2.0640 c1        1 2KF     -0.164000
     20 C9         -1.5250   -3.2800   -1.9420 c1        1 2KF      0.067000
     21 C10        -2.6960   -3.3740   -2.6710 c2        1 2KF     -0.191000
     22 N11        -1.6920   -2.1300   -1.0800 n2        1 2KF     -0.252000
     23 C14        -1.2050    0.2130   -0.9430 c1        1 2KF      0.269000
     24 O15        -2.0310    0.5430   -0.1190 o         1 2KF     -0.392000
     25 N16        -0.7670    1.1520   -1.9380 n2        1 2KF     -0.353000
     26 O22        -0.5930   -1.2390    4.0760 o         1 2KF     -0.217000
     27 O23         2.1300   -2.0090    4.0610 os        1 2KF     -0.211000
     28 C25         3.1520   -0.2580    5.4720 c3        1 2KF     -0.229500
     29 C26         4.5220   -2.2050    4.5390 c3        1 2KF     -0.229500
     30 C28        -1.3130    0.1320    5.9370 c3        1 2KF     -0.216000
     31 C29        -1.2170    2.4950   -1.8890 c3        1 2KF     -0.012000
     32 C30        -0.1830    3.4170   -2.5840 c1        1 2KF      0.005000
     33 C31         0.3480    3.0620   -3.8170 c1        1 2KF     -0.095000
     34 C32         1.3010    3.8630   -4.4150 c1        1 2KF     -0.095000
     35 C35         0.2470    4.5870   -1.9490 c1        1 2KF     -0.799000
     36 S36        -0.5980    5.1630   -0.4560 s4        1 2KF      2.038800
     37 O37        -1.8250    5.8500   -0.7810 o         1 2KF     -0.547900
     38 O38        -1.0970    4.0530    0.3270 o         1 2KF     -0.547900
     39 C39         0.5060    6.2210    0.5250 c2        1 2KF     -0.766000
     40 C40        -0.2850    6.8560    1.6840 c3        1 2KF     -0.198000
     41 C41         1.6400    5.3850    1.0880 c3        1 2KF     -0.198000
     42 N42        -1.5210   -7.7520   -5.0070 n3        1 2KF     -0.323000
     43 H1         -1.5100   -0.9950    1.6030 ha        1 2KF      0.166000
     44 H2          3.0530   -2.2030    1.5880 ha        1 2KF      0.141000
     45 H3          1.8850   -1.9740   -0.4570 ha        1 2KF      0.134000
     46 H4          3.5330   -0.7240    3.4440 h1        1 2KF      0.084000
     47 H5         -0.0160   -1.3120   -1.6640 h1        1 2KF      0.120000
     48 H6          1.5110    6.2210   -2.1020 ha        1 2KF      0.147000
     49 H7         -1.0050    0.7170    3.9960 h1        1 2KF      0.080500
     50 H8          0.3700    0.3960    4.7650 h1        1 2KF      0.080500
     51 H9          2.4170    5.6090   -4.2110 ha        1 2KF      0.147000
     52 H10        -5.0210   -5.6470   -5.7970 ha        1 2KF      0.155000
     53 H11        -4.7030   -3.8770   -4.2470 ha        1 2KF      0.144000
     54 H12        -0.0640   -6.0450   -2.9990 ha        1 2KF      0.130000
     55 H13         0.2820   -4.2150   -1.5550 ha        1 2KF      0.136000
     56 H14        -3.3700   -2.6930   -2.5890 ha        1 2KF      0.144000
     57 H15        -2.4240   -2.0410   -0.6040 hn        1 2KF      0.203000
     58 H16        -0.2690    0.8660   -2.6430 hn        1 2KF      0.259000
     59 H17         2.9740   -0.7720    6.2790 hc        1 2KF      0.089000
     60 H18         3.9790    0.2810    5.5980 hc        1 2KF      0.089000
     61 H19         2.3890    0.3480    5.2910 hc        1 2KF      0.089000
     62 H20         4.8010   -2.1160    5.5010 hc        1 2KF      0.089000
     63 H21         4.2350   -3.1450    4.3620 hc        1 2KF      0.089000
     64 H22         5.2930   -1.9760    3.9460 hc        1 2KF      0.089000
     65 H23        -1.2410    1.0220    6.3340 hc        1 2KF      0.085000
     66 H24        -2.2620   -0.0850    5.7840 hc        1 2KF      0.085000
     67 H25        -0.9190   -0.5320    6.5470 hc        1 2KF      0.085000
     68 H26        -2.0710    2.5660   -2.3450 h1        1 2KF      0.119500
     69 H27        -1.3190    2.7650   -0.9700 h1        1 2KF      0.119500
     70 H28         0.0480    2.2420   -4.2630 ha        1 2KF      0.147000
     71 H29         1.6820    3.6080   -5.3020 ha        1 2KF      0.147000
     72 H30         0.8750    6.9350   -0.0510 ha        1 2KF      0.147000
     73 H31         0.3250    7.3960    2.2410 hc        1 2KF      0.093833
     74 H32        -0.6790    6.1640    2.2200 hc        1 2KF      0.093833
     75 H33        -0.9880    7.4280    1.3220 hc        1 2KF      0.093833
     76 H34         1.2680    4.6440    1.6290 hc        1 2KF      0.093833
     77 H35         2.1710    5.0170    0.3510 hc        1 2KF      0.093833
     78 H36         2.2110    5.9480    1.6520 hc        1 2KF      0.093833
     79 H37        -1.9190   -8.2560   -5.6640 hn        1 2KF      0.198000
     80 H38        -0.7210   -8.0200   -4.6440 hn        1 2KF      0.198000
@<TRIPOS>BOND
     1    1    6 1   
     2    1    8 1   
     3    2    3 1   
     4    2    4 1   
     5    3   43 1   
     6    4    5 1   
     7    4   27 1   
     8    5   44 1   
     9    6   45 1   
    10    7   27 1   
    11    7   28 1   
    12    7   29 1   
    13    7   46 1   
    14    8   22 1   
    15    8   23 1   
    16    8   47 1   
    17    9   11 1   
    18    9   48 1   
    19   10   26 1   
    20   10   30 1   
    21   10   49 1   
    22   10   50 1   
    23   11   51 1   
    24   12   17 1   
    25   12   52 1   
    26   13   14 1   
    27   14   42 1   
    28   15   18 1   
    29   16   17 1   
    30   16   21 1   
    31   17   53 1   
    32   18   54 1   
    33   19   20 1   
    34   19   55 1   
    35   20   21 1   
    36   21   56 1   
    37   22   57 1   
    38   23   24 1   
    39   25   31 1   
    40   25   58 1   
    41   28   59 1   
    42   28   60 1   
    43   28   61 1   
    44   29   62 1   
    45   29   63 1   
    46   29   64 1   
    47   30   65 1   
    48   30   66 1   
    49   30   67 1   
    50   31   32 1   
    51   31   68 1   
    52   31   69 1   
    53   32   35 1   
    54   33   34 1   
    55   33   70 1   
    56   34   71 1   
    57   35   36 1   
    58   36   37 1   
    59   36   38 1   
    60   39   40 1   
    61   39   41 1   
    62   39   72 1   
    63   40   73 1   
    64   40   74 1   
    65   40   75 1   
    66   41   76 1   
    67   41   77 1   
    68   41   78 1   
    69   42   79 1   
    70   42   80 1   
@<TRIPOS>SUBSTRUCTURE
     1 2KF         1 TEMP              0 ****  ****    0 ROOT
