@<TRIPOS>MOLECULE
2KF
   80    83     1     0     0
SMALL
bcc


@<TRIPOS>ATOM
      1 C13        -0.6950    0.4860   -0.4320 ca        1 2KF     -0.139300
      2 C18        -0.5110    2.2850    1.1770 ca        1 2KF      0.105100
      3 C17        -0.6360    0.9250    0.8980 ca        1 2KF     -0.171000
      4 C19        -0.4380    3.2250    0.1090 ca        1 2KF      0.122100
      5 C20        -0.4940    2.7710   -1.2090 ca        1 2KF     -0.177000
      6 C21        -0.6220    1.4070   -1.4750 ca        1 2KF     -0.106000
      7 C12        -0.8410   -0.9880   -0.7240 c3        1 2KF      0.197800
      8 C34         5.9000   -0.3270   -0.8120 ca        1 2KF     -0.042000
      9 C33         5.6620    0.7750   -1.6230 ca        1 2KF     -0.149000
     10 C1         -8.0980   -0.8470   -1.6650 ca        1 2KF      0.436200
     11 N2         -8.3620   -0.7100   -0.3380 nb        1 2KF     -0.752000
     12 C3         -7.3210   -0.7280    0.5250 ca        1 2KF      0.660200
     13 C4         -5.9420   -0.8640    0.0710 ca        1 2KF     -0.210300
     14 C5         -5.7150   -0.9820   -1.3250 ca        1 2KF      0.053000
     15 C6         -6.8330   -0.9750   -2.2050 ca        1 2KF     -0.291300
     16 C7         -4.8230   -0.8920    0.9360 ca        1 2KF     -0.064000
     17 C8         -3.5460   -1.0200    0.4520 ca        1 2KF     -0.178000
     18 C9         -3.3010   -1.1370   -0.9540 ca        1 2KF      0.178600
     19 C10        -4.3960   -1.1040   -1.8200 ca        1 2KF     -0.208000
     20 N11        -2.0190   -1.3820   -1.4680 nh        1 2KF     -0.721600
     21 C14         0.4240   -1.4100   -1.5260 c         1 2KF      0.665100
     22 O15         0.4820   -1.2680   -2.7630 o         1 2KF     -0.612100
     23 N16         1.4620   -1.9540   -0.8010 n         1 2KF     -0.553900
     24 O22        -0.4570    2.8320    2.4410 os        1 2KF     -0.305900
     25 O23        -0.2640    4.5350    0.4890 os        1 2KF     -0.311900
     26 C25        -1.2390    6.6780    0.3880 c3        1 2KF     -0.109600
     27 C26         0.5190    6.0000   -1.2640 c3        1 2KF     -0.109600
     28 C28        -0.2840    2.7240    4.7830 c3        1 2KF     -0.099100
     29 C29         2.7050   -2.3490   -1.4060 c3        1 2KF      0.095300
     30 C30         3.7720   -1.2780   -1.4150 ca        1 2KF      0.007700
     31 C31         3.5320   -0.1680   -2.2370 ca        1 2KF     -0.147000
     32 C32         4.4680    0.8560   -2.3420 ca        1 2KF     -0.065000
     33 C35         4.9670   -1.3740   -0.6860 ca        1 2KF     -0.366500
     34 S36         5.4280   -2.6510    0.3090 sy        1 2KF      1.361300
     35 O37         5.0370   -3.8840   -0.2370 o         1 2KF     -0.650800
     36 O38         6.7830   -2.5250    0.6590 o         1 2KF     -0.650800
     37 C39         4.4400   -2.3290    1.6990 c3        1 2KF     -0.260900
     38 C40         4.4600   -3.5280    2.6220 c3        1 2KF     -0.077600
     39 C41         4.8850   -1.0930    2.4450 c3        1 2KF     -0.077600
     40 H1         -0.7030    0.1920    1.7150 ha        1 2KF      0.135000
     41 H2         -0.4300    3.4820   -2.0460 ha        1 2KF      0.146000
     42 H3         -0.6480    1.0530   -2.5190 ha        1 2KF      0.152000
     43 H4         -1.4840    5.1400   -1.1300 h1        1 2KF      0.051700
     44 H5         -0.8740   -1.5560    0.2560 h1        1 2KF      0.075700
     45 H6          6.8550   -0.3920   -0.2560 ha        1 2KF      0.165000
     46 H7         -1.3740    1.3010    3.5350 h1        1 2KF      0.033700
     47 H8          0.4520    1.2030    3.3990 h1        1 2KF      0.033700
     48 H9          6.4120    1.5760   -1.7010 ha        1 2KF      0.144000
     49 H10        -8.9990   -0.8380   -2.3050 h4        1 2KF      0.018100
     50 H11        -6.6780   -1.0740   -3.2860 ha        1 2KF      0.143000
     51 H12        -4.9610   -0.8230    2.0270 ha        1 2KF      0.129000
     52 H13        -2.7000   -1.0270    1.1550 ha        1 2KF      0.129000
     53 H14        -4.2610   -1.1870   -2.9090 ha        1 2KF      0.140000
     54 H15        -1.9350   -1.1980   -2.4500 hn        1 2KF      0.420800
     55 H16         1.4300   -1.9100    0.1890 hn        1 2KF      0.310500
     56 H17        -1.5440    7.5180   -0.2790 hc        1 2KF      0.048033
     57 H18        -2.1250    6.3240    0.9680 hc        1 2KF      0.048033
     58 H19        -0.4680    7.0400    1.1090 hc        1 2KF      0.048033
     59 H20         1.3170    6.3870   -0.5850 hc        1 2KF      0.048033
     60 H21         0.9420    5.1520   -1.8540 hc        1 2KF      0.048033
     61 H22         0.2130    6.8140   -1.9640 hc        1 2KF      0.048033
     62 H23        -1.1460    3.4270    4.8820 hc        1 2KF      0.051033
     63 H24        -0.2580    2.0460    5.6680 hc        1 2KF      0.051033
     64 H25         0.6560    3.3260    4.7510 hc        1 2KF      0.051033
     65 H26         3.0650   -3.2780   -0.8750 h1        1 2KF      0.097700
     66 H27         2.5030   -2.6310   -2.4840 h1        1 2KF      0.097700
     67 H28         2.5900   -0.1200   -2.8120 ha        1 2KF      0.165000
     68 H29         4.2690    1.7220   -2.9910 ha        1 2KF      0.141000
     69 H30         3.3750   -2.1700    1.3730 h1        1 2KF      0.091700
     70 H31         5.4900   -3.6920    3.0250 hc        1 2KF      0.052867
     71 H32         3.7710   -3.3660    3.4850 hc        1 2KF      0.052867
     72 H33         4.1340   -4.4480    2.0740 hc        1 2KF      0.052867
     73 H34         4.8030   -0.1910    1.7890 hc        1 2KF      0.052867
     74 H35         4.2490   -0.9330    3.3480 hc        1 2KF      0.052867
     75 H36         5.9470   -1.2030    2.7770 hc        1 2KF      0.052867
     76 H37        -8.5290   -0.4710    2.1530 hn        1 2KF      0.404300
     77 H38        -6.9080   -0.1920    2.4330 hn        1 2KF      0.404300
     78 N42        -7.5880   -0.6840    1.9010 nh        1 2KF     -0.926500
     79 C24        -0.6800    5.5450   -0.4560 c3        1 2KF      0.137100
     80 C27        -0.4220    1.8950    3.5270 c3        1 2KF      0.126400
@<TRIPOS>BOND
     1    1    3 ar  
     2    1    6 ar  
     3    1    7 1   
     4    2    3 ar  
     5    2    4 ar  
     6    2   24 1   
     7    3   40 1   
     8    4    5 ar  
     9    4   25 1   
    10    5    6 ar  
    11    5   41 1   
    12    6   42 1   
    13    7   20 1   
    14    7   21 1   
    15    7   44 1   
    16    8    9 ar  
    17    8   33 ar  
    18    8   45 1   
    19    9   32 ar  
    20    9   48 1   
    21   10   11 ar  
    22   10   15 ar  
    23   10   49 1   
    24   11   12 ar  
    25   12   13 ar  
    26   12   78 1   
    27   13   14 ar  
    28   13   16 ar  
    29   14   15 ar  
    30   14   19 ar  
    31   15   50 1   
    32   16   17 ar  
    33   16   51 1   
    34   17   18 ar  
    35   17   52 1   
    36   18   19 ar  
    37   18   20 1   
    38   19   53 1   
    39   20   54 1   
    40   21   22 2   
    41   21   23 1   
    42   23   29 1   
    43   23   55 1   
    44   24   80 1   
    45   25   79 1   
    46   26   56 1   
    47   26   57 1   
    48   26   58 1   
    49   26   79 1   
    50   27   59 1   
    51   27   60 1   
    52   27   61 1   
    53   27   79 1   
    54   28   62 1   
    55   28   63 1   
    56   28   64 1   
    57   28   80 1   
    58   29   30 1   
    59   29   65 1   
    60   29   66 1   
    61   30   31 ar  
    62   30   33 ar  
    63   31   32 ar  
    64   31   67 1   
    65   32   68 1   
    66   33   34 1   
    67   34   35 2   
    68   34   36 2   
    69   34   37 1   
    70   37   38 1   
    71   37   39 1   
    72   37   69 1   
    73   38   70 1   
    74   38   71 1   
    75   38   72 1   
    76   39   73 1   
    77   39   74 1   
    78   39   75 1   
    79   43   79 1   
    80   46   80 1   
    81   47   80 1   
    82   76   78 1   
    83   77   78 1   
@<TRIPOS>SUBSTRUCTURE
     1 2KF         1 TEMP              0 ****  ****    0 ROOT
