@<TRIPOS>MOLECULE
2KG
   46    46     1     0     0
SMALL
bcc


@<TRIPOS>ATOM
      1 C1         -0.0340    0.0400    1.4230 cv        1 2KG      0.325000
      2 C2          1.4930   -0.0430    1.1670 cy        1 2KG     -0.067000
      3 C3          1.5780   -0.8070    2.5550 cy        1 2KG      0.083000
      4 C6          1.8370   -0.8480   -0.0530 c3        1 2KG     -0.208500
      5 C7          2.1740    1.2970    1.1810 c3        1 2KG     -0.208500
      6 C8          2.2240   -2.1460    2.5450 c2        1 2KG     -0.136000
      7 C11         4.3230   -3.3390    3.0540 c2        1 2KG     -0.125000
      8 C12         3.5900   -4.3880    2.7090 c1        1 2KG     -0.167000
      9 C15        -0.8670   -2.3380    4.1510 c1        1 2KG     -0.018000
     10 C16        -4.1440    0.6690    2.3360 c2        1 2KG     -0.917000
     11 C17        -3.9970    0.6570    3.6650 c2        1 2KG      0.052000
     12 C18        -2.7050    0.6770    4.3380 c2        1 2KG     -0.100000
     13 C19        -1.7080   -0.1050    4.0380 c1        1 2KG     -0.114000
     14 C21         6.2190   -0.1020   -0.5090 c2        1 2KG      0.148000
     15 C23        -5.4170   -0.7140    0.6050 c3        1 2KG     -0.938000
     16 O25        -6.6540    0.5610    2.4120 o         1 2KG     -0.939500
     17 S22        -5.5870    0.7050    1.5090 s6        1 2KG      2.863000
     18 O24        -5.6350    1.8050    0.6450 o         1 2KG     -0.939500
     19 C9         -0.7930   -0.9970    3.6380 c2        1 2KG      0.021000
     20 N4          0.1100   -0.6870    2.6190 n         1 2KG     -0.306000
     21 O5         -1.0190    0.5100    0.8650 o         1 2KG     -0.314000
     22 C14         1.5500   -3.3250    2.5430 c2        1 2KG     -0.111000
     23 C13         2.3390   -4.5440    2.2930 c2        1 2KG     -0.095000
     24 C10         3.7430   -2.0620    2.5150 c3        1 2KG     -0.108000
     25 H1          2.0580   -0.1750    3.3540 h1        1 2KG      0.106000
     26 H2          2.9470   -0.8800   -0.1900 hc        1 2KG      0.094333
     27 H3          1.4570   -1.8950    0.0430 hc        1 2KG      0.094333
     28 H4          1.3770   -0.3790   -0.9570 hc        1 2KG      0.094333
     29 H5          3.2830    1.1530    1.1350 hc        1 2KG      0.094333
     30 H6          1.9210    1.8680    2.1070 hc        1 2KG      0.094333
     31 H7          1.8530    1.8970    0.2950 hc        1 2KG      0.094333
     32 H8          4.0720   -1.8160    1.4690 hc        1 2KG      0.116500
     33 H9          5.1680   -3.3160    3.7450 ha        1 2KG      0.149000
     34 H10        -1.2320   -2.4510    5.1820 ha        1 2KG      0.064000
     35 H11        -3.2230    0.6910    1.7110 h4        1 2KG      0.207000
     36 H12        -4.8790    0.6600    4.3390 ha        1 2KG      0.156000
     37 H13        -2.6040    1.4230    5.1520 ha        1 2KG      0.173000
     38 H14         4.0910   -1.2290    3.1820 hc        1 2KG      0.116500
     39 H15         6.9380    0.7440   -0.4770 h4        1 2KG      0.075500
     40 H16         6.4790   -0.9310   -1.2010 h4        1 2KG      0.075500
     41 H17        -4.4790   -0.7390   -0.0030 h1        1 2KG      0.156000
     42 H18        -5.4130   -1.6370    1.2340 h1        1 2KG      0.156000
     43 H19        -6.2610   -0.8320   -0.1210 h1        1 2KG      0.156000
     44 H20         0.4540   -3.4050    2.6290 ha        1 2KG      0.186000
     45 H21         1.9100   -5.3740    1.7280 ha        1 2KG      0.158000
     46 O20         5.2010   -0.1190    0.1780 o         1 2KG     -0.297000
@<TRIPOS>BOND
     1    1    2 1   
     2    1   20 1   
     3    1   21 1   
     4    2    3 1   
     5    2    4 1   
     6    2    5 1   
     7    3    6 1   
     8    3   20 1   
     9    3   25 1   
    10    4   26 1   
    11    4   27 1   
    12    4   28 1   
    13    5   29 1   
    14    5   30 1   
    15    5   31 1   
    16    6   22 1   
    17    6   24 1   
    18    7    8 1   
    19    7   24 1   
    20    7   33 1   
    21    8   23 1   
    22    9   19 1   
    23    9   34 1   
    24   10   11 1   
    25   10   17 1   
    26   10   35 1   
    27   11   12 1   
    28   11   36 1   
    29   12   13 1   
    30   12   37 1   
    31   13   19 1   
    32   14   39 1   
    33   14   40 1   
    34   14   46 1   
    35   15   17 1   
    36   15   41 1   
    37   15   42 1   
    38   15   43 1   
    39   16   17 1   
    40   17   18 1   
    41   19   20 1   
    42   22   23 1   
    43   22   44 1   
    44   23   45 1   
    45   24   32 1   
    46   24   38 1   
@<TRIPOS>SUBSTRUCTURE
     1 2KG         1 TEMP              0 ****  ****    0 ROOT
