@<TRIPOS>MOLECULE
2KG
   46    48     1     0     0
SMALL
bcc


@<TRIPOS>ATOM
      1 C1         -0.0370   -0.2770   -0.3440 cv        1 2KG      0.305000
      2 C2          1.5030   -0.4150   -0.2730 cy        1 2KG     -0.089000
      3 C3          1.3140   -0.5030    1.2980 cy        1 2KG      0.055000
      4 C6          2.0210   -1.6480   -0.9530 c3        1 2KG     -0.202500
      5 C7          2.2220    0.8310   -0.7090 c3        1 2KG     -0.202500
      6 C8          1.8610   -1.7190    1.9580 c2        1 2KG     -0.093000
      7 C11         3.9530   -2.9840    2.4680 c2        1 2KG     -0.176000
      8 C12         3.0730   -3.7940    3.0220 c1        1 2KG     -0.117000
      9 C15        -2.3990    0.2800    1.5820 c2        1 2KG     -0.180000
     10 C16        -3.4060    0.7760    2.5410 c3        1 2KG     -0.718000
     11 C17        -2.9010    0.9820    3.9150 c2        1 2KG     -0.079000
     12 C18        -1.5830    0.8830    4.2070 c2        1 2KG     -0.192000
     13 C19        -0.6060    0.6620    3.1960 c1        1 2KG     -0.040000
     14 C21         4.8580   -0.3610    3.6050 c3        1 2KG     -0.077000
     15 C23        -4.2240   -1.7390    2.8310 c3        1 2KG     -0.958000
     16 O25        -5.6730    0.1970    3.5690 o         1 2KG     -0.919000
     17 S22        -4.8560   -0.2210    2.5120 s6        1 2KG      2.816000
     18 O24        -5.3910   -0.1670    1.2240 o         1 2KG     -0.919000
     19 C9         -1.0780    0.1360    1.9290 c2        1 2KG      0.007000
     20 N4         -0.1490   -0.4420    1.0650 n         1 2KG     -0.267000
     21 O5         -0.8830   -0.1150   -1.2130 o         1 2KG     -0.283000
     22 C14         1.1250   -2.8030    2.3090 c2        1 2KG     -0.101000
     23 C13         1.7560   -3.7880    3.2000 c2        1 2KG     -0.100000
     24 C10         3.3630   -1.5980    2.2480 c3        1 2KG      0.091000
     25 H1          1.6920    0.4050    1.8510 h1        1 2KG      0.157000
     26 H2          3.1260   -1.7350   -0.8070 hc        1 2KG      0.090500
     27 H3          1.5350   -2.5640   -0.5360 hc        1 2KG      0.090500
     28 H4          1.8090   -1.5960   -2.0490 hc        1 2KG      0.090500
     29 H5          2.1380    0.9570   -1.8160 hc        1 2KG      0.090500
     30 H6          1.7930    1.7360   -0.2130 hc        1 2KG      0.090500
     31 H7          3.3040    0.7570   -0.4380 hc        1 2KG      0.090500
     32 H8          3.8720   -1.1830    1.3280 h1        1 2KG      0.097000
     33 H9          4.9240   -3.2320    2.0380 ha        1 2KG      0.154000
     34 H10        -2.7590    0.1030    0.5520 ha        1 2KG      0.174000
     35 H11        -3.7240    1.8040    2.1640 h1        1 2KG      0.197000
     36 H12        -3.6580    1.2680    4.6670 ha        1 2KG      0.161000
     37 H13        -1.2120    1.0410    5.2340 ha        1 2KG      0.162000
     38 H14         5.4360   -1.2840    3.8570 h1        1 2KG      0.077000
     39 H15         5.3290    0.1600    2.7350 h1        1 2KG      0.077000
     40 H16         4.8000    0.3230    4.4890 h1        1 2KG      0.077000
     41 H17        -3.3920   -2.0310    2.1400 h1        1 2KG      0.169000
     42 H18        -5.0030   -2.5390    2.7250 h1        1 2KG      0.169000
     43 H19        -3.8170   -1.8420    3.8690 h1        1 2KG      0.169000
     44 H20         0.0630   -2.9210    2.0610 ha        1 2KG      0.148000
     45 H21         1.1740   -4.3030    3.9670 ha        1 2KG      0.163000
     46 O20         3.5040   -0.6790    3.3250 os        1 2KG     -0.253000
@<TRIPOS>BOND
     1    1    2 1   
     2    1   20 1   
     3    1   21 1   
     4    2    3 1   
     5    2    4 1   
     6    2    5 1   
     7    3    6 1   
     8    3   20 1   
     9    3   25 1   
    10    4   26 1   
    11    4   27 1   
    12    4   28 1   
    13    5   29 1   
    14    5   30 1   
    15    5   31 1   
    16    6   22 1   
    17    6   24 1   
    18    7    8 1   
    19    7   24 1   
    20    7   33 1   
    21    8   23 1   
    22    9   10 1   
    23    9   19 1   
    24    9   34 1   
    25   10   11 1   
    26   10   17 1   
    27   10   35 1   
    28   11   12 1   
    29   11   36 1   
    30   12   13 1   
    31   12   37 1   
    32   13   19 1   
    33   14   38 1   
    34   14   39 1   
    35   14   40 1   
    36   14   46 1   
    37   15   17 1   
    38   15   41 1   
    39   15   42 1   
    40   15   43 1   
    41   16   17 1   
    42   17   18 1   
    43   19   20 1   
    44   22   23 1   
    45   22   44 1   
    46   23   45 1   
    47   24   32 1   
    48   24   46 1   
@<TRIPOS>SUBSTRUCTURE
     1 2KG         1 TEMP              0 ****  ****    0 ROOT
