@<TRIPOS>MOLECULE
2KG
   46    48     1     0     0
SMALL
bcc


@<TRIPOS>ATOM
      1 C1         -0.1270   -0.3080   -0.3350 cv        1 2KG      0.305000
      2 C2          1.4180   -0.2230   -0.2900 cy        1 2KG     -0.088000
      3 C3          1.2600   -0.1630    1.2870 cy        1 2KG      0.073000
      4 C6          2.0730   -1.4370   -0.8830 c3        1 2KG     -0.204000
      5 C7          1.9500    1.0580   -0.8700 c3        1 2KG     -0.204000
      6 C8          1.9910   -1.1770    2.1020 c2        1 2KG     -0.127000
      7 C11         4.0670   -2.3970    2.6940 c3        1 2KG     -0.192000
      8 C12         3.3830   -2.9620    3.8640 c1        1 2KG     -0.097000
      9 C15        -2.5190    0.1880    1.4780 c2        1 2KG     -0.170000
     10 C16        -3.6190    0.5970    2.3700 c3        1 2KG     -0.724000
     11 C17        -3.2240    0.8310    3.7730 c2        1 2KG     -0.054000
     12 C18        -1.9310    0.7580    4.1700 c2        1 2KG     -0.199000
     13 C19        -0.8640    0.4750    3.2730 c1        1 2KG     -0.079000
     14 C21         5.4650   -1.8900    3.0760 c3        1 2KG      0.031000
     15 C23        -4.3050   -1.9720    2.5150 c3        1 2KG     -0.963000
     16 O25        -5.8920   -0.1520    3.2620 o         1 2KG     -0.916000
     17 S22        -5.0090   -0.4810    2.2300 s6        1 2KG      2.815000
     18 O24        -5.4800   -0.3930    0.9200 o         1 2KG     -0.916000
     19 C9         -1.2210    0.1030    1.9170 c2        1 2KG      0.004000
     20 N4         -0.1970   -0.3430    1.0810 n         1 2KG     -0.270000
     21 O5         -0.9970   -0.3550   -1.1960 o         1 2KG     -0.288000
     22 C14         1.3270   -1.8280    3.2080 c2        1 2KG      0.034000
     23 C13         2.0040   -2.6910    4.0220 c2        1 2KG     -0.253000
     24 C10         3.3090   -1.4150    1.8810 c2        1 2KG     -0.091000
     25 H1          1.4940    0.8560    1.7040 h1        1 2KG      0.133000
     26 H2          3.1800   -1.2970   -0.9460 hc        1 2KG      0.091333
     27 H3          1.8610   -2.3450   -0.2690 hc        1 2KG      0.091333
     28 H4          1.6820   -1.6040   -1.9180 hc        1 2KG      0.091333
     29 H5          3.0310    1.1710   -0.6100 hc        1 2KG      0.091333
     30 H6          1.8490    1.0470   -1.9830 hc        1 2KG      0.091333
     31 H7          1.3940    1.9420   -0.4720 hc        1 2KG      0.091333
     32 H8          3.8620   -0.8960    1.0820 ha        1 2KG      0.134000
     33 H9          4.2280   -3.3130    2.0300 hc        1 2KG      0.171000
     34 H10        -2.8000    0.0060    0.4220 ha        1 2KG      0.177000
     35 H11        -3.9720    1.6090    1.9780 h1        1 2KG      0.208000
     36 H12        -4.0450    1.0950    4.4650 ha        1 2KG      0.162000
     37 H13        -1.6530    0.9480    5.2210 ha        1 2KG      0.160000
     38 H14         5.0600   -1.3200    4.8740 ho        1 2KG      0.216000
     39 H15         5.9490   -1.3850    2.1970 h1        1 2KG      0.089500
     40 H16         6.0830   -2.7670    3.4090 h1        1 2KG      0.089500
     41 H17        -3.4320   -2.1930    1.8490 h1        1 2KG      0.171000
     42 H18        -3.9380   -2.1010    3.5640 h1        1 2KG      0.171000
     43 H19        -5.0340   -2.8080    2.3430 h1        1 2KG      0.171000
     44 H20         0.2700   -1.5740    3.3980 ha        1 2KG      0.150000
     45 H21         1.4900   -3.1710    4.8700 ha        1 2KG      0.147000
     46 O20         5.4330   -0.9060    4.0840 oh        1 2KG     -0.326000
@<TRIPOS>BOND
     1    1    2 1   
     2    1   20 1   
     3    1   21 1   
     4    2    3 1   
     5    2    4 1   
     6    2    5 1   
     7    3    6 1   
     8    3   20 1   
     9    3   25 1   
    10    4   26 1   
    11    4   27 1   
    12    4   28 1   
    13    5   29 1   
    14    5   30 1   
    15    5   31 1   
    16    6   22 1   
    17    6   24 1   
    18    7    8 1   
    19    7   14 1   
    20    7   24 1   
    21    7   33 1   
    22    8   23 1   
    23    9   10 1   
    24    9   19 1   
    25    9   34 1   
    26   10   11 1   
    27   10   17 1   
    28   10   35 1   
    29   11   12 1   
    30   11   36 1   
    31   12   13 1   
    32   12   37 1   
    33   13   19 1   
    34   14   39 1   
    35   14   40 1   
    36   14   46 1   
    37   15   17 1   
    38   15   41 1   
    39   15   42 1   
    40   15   43 1   
    41   16   17 1   
    42   17   18 1   
    43   19   20 1   
    44   22   23 1   
    45   22   44 1   
    46   23   45 1   
    47   24   32 1   
    48   38   46 1   
@<TRIPOS>SUBSTRUCTURE
     1 2KG         1 TEMP              0 ****  ****    0 ROOT
