@<TRIPOS>MOLECULE
2KH
   42    43     1     0     0
SMALL
bcc


@<TRIPOS>ATOM
      1 PA          0.0000    0.0000    0.0000 p5        1 2KH      0.689700
      2 O1A         1.6090    0.0000    0.0000 o         1 2KH     -0.545500
      3 O2A        -0.4930    0.0000    1.3950 o         1 2KH     -0.545500
      4 N3A        -0.5610    1.3740   -0.7940 ny        1 2KH     -0.205200
      5 O5'        -0.5370   -1.3140   -0.7590 os        1 2KH     -0.490200
      6 PB         -0.0220    2.7740   -0.0300 p5        1 2KH      0.694700
      7 O1B         1.4580    2.7960   -0.0300 o         1 2KH     -0.572000
      8 O2B        -0.5580    2.7990    1.4880 o         1 2KH     -0.572000
      9 O3B        -0.5780    4.0630   -0.8180 os        1 2KH     -0.502800
     10 PG         -0.4290    5.6530   -0.6070 p5        1 2KH      0.798900
     11 O1G        -0.5060    5.9680    0.8370 o         1 2KH     -0.675500
     12 O2G         0.9910    6.1400   -1.1870 o         1 2KH     -0.675500
     13 O3G        -1.6160    6.4100   -1.3870 o         1 2KH     -0.675500
     14 C5'        -1.9090   -1.7130   -0.7490 c3        1 2KH      0.279400
     15 C4'        -2.0730   -2.9980   -1.5630 c3        1 2KH      0.146100
     16 O4'        -1.3920   -4.0820   -0.9070 os        1 2KH     -0.343600
     17 C1'        -2.1630   -5.2760   -1.1570 c3        1 2KH      0.210500
     18 C2'        -3.6310   -4.7940   -1.0250 c3        1 2KH      0.106100
     19 O2'        -4.5130   -5.6370   -1.7690 oh        1 2KH     -0.572800
     20 C3'        -3.5630   -3.3780   -1.6480 c3        1 2KH      0.134100
     21 O3'        -3.9940   -3.4100   -3.0100 oh        1 2KH     -0.575800
     22 N1         -1.8660   -6.3020   -0.1540 n         1 2KH      0.083000
     23 C6         -1.4830   -7.5530   -0.5570 cc        1 2KH     -0.225400
     24 C2         -1.9670   -6.0050    1.1540 c         1 2KH      0.579500
     25 O2         -2.3040   -4.8850    1.4890 o         1 2KH     -0.702500
     26 N3         -1.6990   -6.9280    2.0960 ns        1 2KH     -0.143500
     27 C4         -1.3230   -8.1730    1.7390 c         1 2KH      0.603700
     28 O4         -1.0810   -9.0090    2.5920 o         1 2KH     -0.762500
     29 C5         -1.2090   -8.4980    0.3670 cd        1 2KH     -0.370200
     30 H2         -0.2300    1.3670   -1.7380 hn        1 2KH      0.269800
     31 H6         -2.2260   -1.8900    0.2720 h1        1 2KH     -0.014800
     32 H7         -2.5160   -0.9290   -1.1850 h1        1 2KH     -0.014800
     33 H8         -1.6710   -2.8630   -2.5600 h1        1 2KH      0.027700
     34 H9         -1.9750   -5.6460   -2.1580 h2        1 2KH      0.035700
     35 H10        -3.9240   -4.7400    0.0160 h1        1 2KH      0.056700
     36 H11        -5.2630   -5.8520   -1.2400 ho        1 2KH      0.374000
     37 H12        -4.1620   -2.6840   -1.0710 h1        1 2KH      0.017700
     38 H13        -4.6720   -2.7680   -3.1400 ho        1 2KH      0.378000
     39 H14        -1.4000   -7.7830   -1.6120 h4        1 2KH      0.118000
     40 H15        -1.7800   -6.6890    3.0650 hn        1 2KH      0.188500
     41 H16        -0.7430   -9.4290    0.0680 ha        1 2KH      0.123000
     42 H3A2       -1.5620    1.3670   -0.7960 hn        1 2KH      0.269800
@<TRIPOS>BOND
     1    1    2 1   
     2    1    3 1   
     3    1    4 1   
     4    1    5 1   
     5    4    6 1   
     6    4   30 1   
     7    4   42 1   
     8    5   14 1   
     9    6    7 1   
    10    6    8 1   
    11    6    9 1   
    12    9   10 1   
    13   10   11 1   
    14   10   12 1   
    15   10   13 1   
    16   14   15 1   
    17   14   31 1   
    18   14   32 1   
    19   15   16 1   
    20   15   20 1   
    21   15   33 1   
    22   16   17 1   
    23   17   18 1   
    24   17   22 1   
    25   17   34 1   
    26   18   19 1   
    27   18   20 1   
    28   18   35 1   
    29   19   36 1   
    30   20   21 1   
    31   20   37 1   
    32   21   38 1   
    33   22   23 1   
    34   22   24 1   
    35   23   29 2   
    36   23   39 1   
    37   24   25 2   
    38   24   26 1   
    39   26   27 1   
    40   26   40 1   
    41   27   28 2   
    42   27   29 1   
    43   29   41 1   
@<TRIPOS>SUBSTRUCTURE
     1 2KH         1 TEMP              0 ****  ****    0 ROOT
