@<TRIPOS>MOLECULE
2KJ
   32    29     1     0     0
SMALL
bcc


@<TRIPOS>ATOM
      1 OA2        -2.4510    3.9430    3.5340 o         1 2KJ     -0.583500
      2 C          -1.2310    3.9910    3.2430 c1        1 2KJ      0.297000
      3 OA1        -0.3680    4.0770    4.1590 o         1 2KJ     -0.583500
      4 CA         -0.7960    3.9430    1.7910 c2        1 2KJ     -0.118000
      5 N          -0.1060    5.1380    1.4660 n3        1 2KJ     -0.321000
      6 CB          0.1190    2.7550    1.5770 c3        1 2KJ     -0.139000
      7 CG         -0.5110    1.8060    0.5690 c3        1 2KJ     -0.175000
      8 CD          0.4980    0.7400    0.1780 c3        1 2KJ     -0.020000
      9 NE         -0.1570   -0.2790   -0.6000 n3        1 2KJ     -0.346000
     10 CZ          0.6050   -1.3440   -1.1700 c2        1 2KJ      0.152000
     11 NH2         1.8170   -1.1060   -1.6560 n1        1 2KJ     -0.400000
     12 NH1         0.0550   -2.6840   -1.2190 n3        1 2KJ     -0.108000
     13 OH          0.6470   -3.6490   -2.0180 os        1 2KJ     -0.244000
     14 C2          0.0480   -4.9200   -1.7680 c3        1 2KJ     -0.035000
     15 C1          0.6870   -5.9700   -2.6640 c3        1 2KJ     -0.230000
     16 H2         -1.5830    3.8560    1.2170 h4        1 2KJ      0.086000
     17 H3         -0.2940    5.7790    2.0930 hn        1 2KJ      0.128000
     18 H4         -0.3750    5.4320    0.6370 hn        1 2KJ      0.128000
     19 H6          0.9830    3.0650    1.2360 hc        1 2KJ      0.070000
     20 H7          0.2520    2.2890    2.4260 hc        1 2KJ      0.070000
     21 H8         -1.2950    1.3810    0.9680 hc        1 2KJ      0.099000
     22 H9         -0.7820    2.3090   -0.2310 hc        1 2KJ      0.099000
     23 H10         1.2200    1.1500   -0.3570 h1        1 2KJ      0.053500
     24 H11         0.8780    0.3400    0.9860 h1        1 2KJ      0.053500
     25 H12        -1.0590   -0.2700   -0.6900 hn        1 2KJ      0.276000
     26 H13         2.1670   -0.2520   -1.6250 DU        1 2KJ      0.130000
     27 H15        -0.6970   -2.8910   -0.7270 hn        1 2KJ      0.175000
     28 H16        -0.9200   -4.8700   -1.9580 h1        1 2KJ      0.136000
     29 H17         0.1840   -5.1660   -0.8280 h1        1 2KJ      0.136000
     30 H18         1.6510   -5.9800   -2.5170 hc        1 2KJ      0.070333
     31 H19         0.5020   -5.7550   -3.6030 hc        1 2KJ      0.070333
     32 H20         0.3120   -6.8570   -2.4490 hc        1 2KJ      0.070333
@<TRIPOS>BOND
     1    1    2 1   
     2    2    3 1   
     3    4    5 1   
     4    4    6 1   
     5    4   16 1   
     6    5   17 1   
     7    5   18 1   
     8    6    7 1   
     9    6   19 1   
    10    6   20 1   
    11    7    8 1   
    12    7   21 1   
    13    7   22 1   
    14    8    9 1   
    15    8   23 1   
    16    8   24 1   
    17    9   10 1   
    18    9   25 1   
    19   10   11 1   
    20   10   12 1   
    21   12   13 1   
    22   12   27 1   
    23   13   14 1   
    24   14   15 1   
    25   14   28 1   
    26   14   29 1   
    27   15   30 1   
    28   15   31 1   
    29   15   32 1   
@<TRIPOS>SUBSTRUCTURE
     1 2KJ         1 TEMP              0 ****  ****    0 ROOT
