@<TRIPOS>MOLECULE
2KJ
   35    33     1     0     0
SMALL
bcc


@<TRIPOS>ATOM
      1 OA2         0.5280   -1.3390    0.8580 o         1 2KJ     -0.223500
      2 C          -0.2160   -1.9510    1.5710 c1        1 2KJ      0.449000
      3 OA1        -0.9510   -2.5540    2.2710 o         1 2KJ     -0.223500
      4 CA          2.9260    1.4700   -0.9620 c2        1 2KJ     -0.622000
      5 N           2.3460    0.2250   -0.5950 nz        1 2KJ      0.086000
      6 CB          2.5160    2.2340   -2.1090 c3        1 2KJ     -0.012000
      7 CG          3.5720    2.0750   -3.2510 c3        1 2KJ     -0.221000
      8 CD          3.2710    3.0660   -4.3450 c3        1 2KJ     -0.133000
      9 NE          4.3390    3.0600   -5.4250 ny        1 2KJ     -0.050000
     10 CZ          4.1380    4.0780   -6.5100 c2        1 2KJ      0.025000
     11 NH2         3.1760    4.8860   -6.7090 n2        1 2KJ     -0.130000
     12 NH1         5.2960    4.1810   -7.5310 ny        1 2KJ      0.087000
     13 OH          6.4750    4.0650   -6.8660 os        1 2KJ     -0.256000
     14 C2          7.6300    4.8280   -7.4000 c3        1 2KJ     -0.026000
     15 C1          8.7420    4.4640   -6.4530 c3        1 2KJ     -0.238000
     16 H2          3.7100    1.8310   -0.2910 hx        1 2KJ      0.176000
     17 H3          1.3800    0.1440   -0.9270 hn        1 2KJ      0.218667
     18 H4          2.3330    0.1410    0.4290 hn        1 2KJ      0.218667
     19 H6          2.4900    3.3270   -1.8440 hc        1 2KJ      0.085500
     20 H7          1.5160    1.9440   -2.5240 hc        1 2KJ      0.085500
     21 H8          4.5810    2.2580   -2.7990 hc        1 2KJ      0.108000
     22 H9          3.5350    1.0240   -3.6310 hc        1 2KJ      0.108000
     23 H10         3.2350    4.1110   -3.9220 hx        1 2KJ      0.138000
     24 H11         2.2880    2.8240   -4.8380 hx        1 2KJ      0.138000
     25 H12         5.2540    3.2350   -4.9760 hn        1 2KJ      0.256500
     26 H13         2.3540    4.9240   -6.1390 hn        1 2KJ      0.274000
     27 H15         5.2310    5.0860   -8.0460 hn        1 2KJ      0.280000
     28 H16         7.3780    5.9200   -7.3670 h1        1 2KJ      0.128500
     29 H17         7.8290    4.4800   -8.4470 h1        1 2KJ      0.128500
     30 H18         8.9350    3.3640   -6.4550 hc        1 2KJ      0.130333
     31 H19         8.5140    4.7940   -5.4110 hc        1 2KJ      0.130333
     32 H20         9.6700    4.9910   -6.8020 hc        1 2KJ      0.130333
     33 HN3         2.8760   -0.5720   -0.9660 hn        1 2KJ      0.218667
     34 HE3         4.3770    2.1220   -5.8470 hn        1 2KJ      0.256500
     35 HH13        5.2110    3.3980   -8.2080 hn        1 2KJ      0.280000
@<TRIPOS>BOND
     1    1    2 1   
     2    2    3 1   
     3    4    5 1   
     4    4    6 1   
     5    4   16 1   
     6    5   17 1   
     7    5   18 1   
     8    5   33 1   
     9    6    7 1   
    10    6   19 1   
    11    6   20 1   
    12    7    8 1   
    13    7   21 1   
    14    7   22 1   
    15    8    9 1   
    16    8   23 1   
    17    8   24 1   
    18    9   10 1   
    19    9   25 1   
    20    9   34 1   
    21   10   11 1   
    22   10   12 1   
    23   11   26 1   
    24   12   13 1   
    25   12   27 1   
    26   12   35 1   
    27   13   14 1   
    28   14   15 1   
    29   14   28 1   
    30   14   29 1   
    31   15   30 1   
    32   15   31 1   
    33   15   32 1   
@<TRIPOS>SUBSTRUCTURE
     1 2KJ         1 TEMP              0 ****  ****    0 ROOT
