@<TRIPOS>MOLECULE
2KJ
   32    31     1     0     0
SMALL
bcc


@<TRIPOS>ATOM
      1 OA2         5.7120   -0.2870    1.1670 o         1 2KJ     -0.842800
      2 C           4.8370    0.3260    0.4900 c         1 2KJ      0.888600
      3 OA1         4.8550    1.5650    0.2520 o         1 2KJ     -0.842800
      4 CA          3.6620   -0.5100   -0.1200 c3        1 2KJ      0.016500
      5 N           3.7100   -1.9330    0.1960 n3        1 2KJ     -0.893800
      6 CB          2.3440    0.1540    0.2810 c3        1 2KJ     -0.061400
      7 CG          1.1750   -0.3760   -0.5200 c3        1 2KJ     -0.087400
      8 CD         -0.1150    0.3270   -0.0950 c3        1 2KJ      0.179800
      9 NE         -1.2720   -0.1590   -0.8290 nh        1 2KJ     -0.790200
     10 CZ         -2.5660    0.2150   -0.3600 c2        1 2KJ      0.695100
     11 NH2        -2.7360    1.1690    0.5150 n2        1 2KJ     -0.842100
     12 NH1        -3.6580   -0.5920   -0.9780 nh        1 2KJ     -0.577700
     13 OH         -4.8560    0.0040   -0.8390 os        1 2KJ     -0.255100
     14 C2         -5.6830   -0.5850    0.2030 c3        1 2KJ      0.131400
     15 C1         -6.9520    0.2320    0.2050 c3        1 2KJ     -0.103100
     16 H2          3.7680   -0.4290   -1.2420 h1        1 2KJ      0.040700
     17 H3          4.6690   -2.2250    0.0940 hn        1 2KJ      0.330800
     18 H4          3.4870   -2.0480    1.1690 hn        1 2KJ      0.330800
     19 H6          2.1540    0.0030    1.3760 hc        1 2KJ      0.050200
     20 H7          2.4630    1.2580    0.1090 hc        1 2KJ      0.050200
     21 H8          1.3640   -0.2060   -1.6120 hc        1 2KJ      0.041700
     22 H9          1.0790   -1.4820   -0.3650 hc        1 2KJ      0.041700
     23 H10        -0.2450    0.1970    1.0190 h1        1 2KJ      0.052700
     24 H11        -0.0280    1.4320   -0.2980 h1        1 2KJ      0.052700
     25 H12        -1.2040   -1.1390   -1.0290 hn        1 2KJ      0.392800
     26 H13        -3.6880    1.4240    0.6750 hn        1 2KJ      0.387400
     27 H15        -3.5000   -0.6560   -1.9830 hn        1 2KJ      0.388800
     28 H16        -5.8850   -1.6590   -0.0440 h1        1 2KJ      0.044200
     29 H17        -5.1520   -0.5210    1.1880 h1        1 2KJ      0.044200
     30 H18        -7.6420   -0.1660    0.9860 hc        1 2KJ      0.044700
     31 H19        -6.7280    1.3030    0.4260 hc        1 2KJ      0.044700
     32 H20        -7.4550    0.1780   -0.7900 hc        1 2KJ      0.044700
@<TRIPOS>BOND
     1    1    2 1   
     2    2    3 1   
     3    2    4 1   
     4    4    5 1   
     5    4    6 1   
     6    4   16 1   
     7    5   17 1   
     8    5   18 1   
     9    6    7 1   
    10    6   19 1   
    11    6   20 1   
    12    7    8 1   
    13    7   21 1   
    14    7   22 1   
    15    8    9 1   
    16    8   23 1   
    17    8   24 1   
    18    9   10 1   
    19    9   25 1   
    20   10   11 2   
    21   10   12 1   
    22   11   26 1   
    23   12   13 1   
    24   12   27 1   
    25   13   14 1   
    26   14   15 1   
    27   14   28 1   
    28   14   29 1   
    29   15   30 1   
    30   15   31 1   
    31   15   32 1   
@<TRIPOS>SUBSTRUCTURE
     1 2KJ         1 TEMP              0 ****  ****    0 ROOT
