@<TRIPOS>MOLECULE
2KJ
   35    33     1     0     0
SMALL
bcc


@<TRIPOS>ATOM
      1 OA2         0.8830   -0.9020    0.5160 o         1 2KJ     -0.228000
      2 C           1.8270   -0.1820    0.6330 c1        1 2KJ      0.450000
      3 OA1         2.7620    0.5350    0.7890 o         1 2KJ     -0.228000
      4 CA          1.8260    0.0040   -2.0580 c2        1 2KJ     -0.692000
      5 N           0.5470   -0.5410   -2.3610 n4        1 2KJ      0.084000
      6 CB          2.1780    1.3900   -2.2460 c3        1 2KJ     -0.010000
      7 CG          3.1350    1.5510   -3.4640 c3        1 2KJ     -0.220000
      8 CD          3.7730    2.9180   -3.4020 c3        1 2KJ     -0.130000
      9 NE          4.8470    3.0850   -4.4630 n4        1 2KJ     -0.048000
     10 CZ          5.5820    4.3900   -4.3900 c2        1 2KJ      0.032000
     11 NH2         5.3910    5.3990   -3.6400 n2        1 2KJ     -0.114000
     12 NH1         6.7450    4.5370   -5.3910 n4        1 2KJ      0.086000
     13 OH          6.3980    3.9170   -6.5520 os        1 2KJ     -0.251000
     14 C2          7.1810    4.2490   -7.7540 c3        1 2KJ     -0.033000
     15 C1          7.1060    5.7040   -8.1050 c3        1 2KJ     -0.289000
     16 H2          2.5840   -0.7360   -1.7850 hx        1 2KJ      0.168000
     17 H3          0.5530   -1.0880   -3.2280 hn        1 2KJ      0.217000
     18 H4         -0.1530    0.1980   -2.4480 hn        1 2KJ      0.217000
     19 H6          1.2970    2.0670   -2.4020 hc        1 2KJ      0.085500
     20 H7          2.7400    1.7460   -1.3360 hc        1 2KJ      0.085500
     21 H8          2.5530    1.4150   -4.4090 hc        1 2KJ      0.110000
     22 H9          3.9050    0.7390   -3.3950 hc        1 2KJ      0.110000
     23 H10         3.0020    3.7220   -3.5690 hx        1 2KJ      0.143500
     24 H11         4.2690    3.0650   -2.4000 hx        1 2KJ      0.143500
     25 H12         5.5180    2.3070   -4.3690 hn        1 2KJ      0.264000
     26 H13         4.6890    5.4400   -2.9260 hn        1 2KJ      0.281000
     27 H15         7.5910    4.0880   -4.9870 hn        1 2KJ      0.287500
     28 H16         6.6260    3.5940   -8.4910 h1        1 2KJ      0.162000
     29 H17         8.2300    3.8790   -7.6130 h1        1 2KJ      0.162000
     30 H18         7.7780    6.3300   -7.4700 hc        1 2KJ      0.129333
     31 H19         7.4460    5.8300   -9.1700 hc        1 2KJ      0.129333
     32 H20         6.0590    6.0920   -8.0380 hc        1 2KJ      0.129333
     33 HN3         0.2710   -1.1670   -1.5890 hn        1 2KJ      0.217000
     34 HE3         4.4110    3.0080   -5.3970 hn        1 2KJ      0.264000
     35 HH13        6.9370    5.5520   -5.5570 hn        1 2KJ      0.287500
@<TRIPOS>BOND
     1    1    2 1   
     2    2    3 1   
     3    4    5 1   
     4    4    6 1   
     5    4   16 1   
     6    5   17 1   
     7    5   18 1   
     8    5   33 1   
     9    6    7 1   
    10    6   19 1   
    11    6   20 1   
    12    7    8 1   
    13    7   21 1   
    14    7   22 1   
    15    8    9 1   
    16    8   23 1   
    17    8   24 1   
    18    9   10 1   
    19    9   25 1   
    20    9   34 1   
    21   10   11 1   
    22   10   12 1   
    23   11   26 1   
    24   12   13 1   
    25   12   27 1   
    26   12   35 1   
    27   13   14 1   
    28   14   15 1   
    29   14   28 1   
    30   14   29 1   
    31   15   30 1   
    32   15   31 1   
    33   15   32 1   
@<TRIPOS>SUBSTRUCTURE
     1 2KJ         1 TEMP              0 ****  ****    0 ROOT
