@<TRIPOS>MOLECULE
2KL
   54    48     1     0     0
SMALL
bcc


@<TRIPOS>ATOM
      1 O13         1.2890    5.3760    2.1260 o         1 2KL     -0.355000
      2 C12         2.4640    5.2020    2.0390 c1        1 2KL      0.373000
      3 N14         3.3350    6.1950    2.4190 n2        1 2KL     -0.371000
      4 C15         2.9420    7.5960    2.2940 c3        1 2KL     -0.034000
      5 C16         4.1150    8.4750    2.6070 c3        1 2KL     -0.241000
      6 C8          3.0050    3.8330    1.5990 c2        1 2KL     -0.430000
      7 S7          4.3060    2.9950    1.6250 ss        1 2KL      0.550000
      8 C9          2.0460    3.1270    0.8180 c1        1 2KL     -0.015000
      9 C5          2.7240    1.7640    0.2990 c1        1 2KL     -0.239000
     10 C6          4.0560    1.7120    0.7900 c1        1 2KL     -0.173000
     11 N3          4.8350    0.6040    0.5450 n1        1 2KL     -0.210000
     12 C2          4.3240   -0.4530   -0.1740 c1        1 2KL      0.177000
     13 N11         5.2850   -1.4270   -0.4680 n2        1 2KL     -0.329000
     14 N1          3.0090   -0.4030   -0.6590 n2        1 2KL     -0.206000
     15 C4          2.2190    0.7100   -0.4160 c1        1 2KL      0.155000
     16 C10         1.0240    0.4040   -0.9910 c1        1 2KL     -0.037000
     17 C17         0.1540   -0.4790   -0.3520 c1        1 2KL     -0.104000
     18 C21         0.6090    1.0890   -2.1240 c1        1 2KL     -0.029000
     19 CL1         1.6240    2.3030   -2.8120 cl        1 2KL      0.016000
     20 C20        -0.6840    0.8940   -2.6280 c2        1 2KL     -0.121000
     21 C19        -1.5510    0.0150   -1.9920 c1        1 2KL     -0.059000
     22 CL2        -3.1470   -0.2780   -2.6630 cl        1 2KL      0.016000
     23 C18        -1.1350   -0.6740   -0.8530 c2        1 2KL      0.057000
     24 O24        -2.0380   -1.5440   -0.1780 os        1 2KL     -0.223000
     25 C25        -2.2880   -2.8140   -0.8860 c3        1 2KL     -0.021000
     26 C26        -3.2750   -3.6800   -0.0640 c3        1 2KL     -0.074000
     27 N27        -3.8120   -4.7060   -0.8930 n3        1 2KL     -0.251000
     28 C28        -3.4320   -5.8700   -0.4390 c3        1 2KL     -0.078500
     29 C31        -5.3960   -4.6890   -0.7880 c3        1 2KL     -0.078500
     30 C30        -5.8020   -5.9130   -1.0840 c3        1 2KL     -0.172500
     31 C29        -4.6350   -6.8220   -0.7010 c3        1 2KL     -0.172500
     32 H14         4.1730    5.9800    2.7040 hn        1 2KL      0.215000
     33 H151        2.6420    7.7680    1.3820 h1        1 2KL      0.103500
     34 H152        2.2070    7.7900    2.9260 h1        1 2KL      0.103500
     35 H161        4.1960    8.5790    3.5850 hc        1 2KL      0.080667
     36 H162        3.9820    9.3710    2.1850 hc        1 2KL      0.080667
     37 H163        4.9520    8.0570    2.2460 hc        1 2KL      0.080667
     38 H9          1.1410    3.4370    0.6020 DU        1 2KL      0.185000
     39 H111        5.0900   -2.1010   -1.0600 hn        1 2KL      0.234500
     40 H112        6.1230   -1.3740   -0.0870 hn        1 2KL      0.234500
     41 H17         0.4410   -0.9530    0.4320 ha        1 2KL      0.163000
     42 H20        -0.9730    1.3740   -3.4210 ha        1 2KL      0.166000
     43 H251       -2.6880   -2.6200   -1.8010 h1        1 2KL      0.087000
     44 H252       -1.4210   -3.3120   -0.9990 h1        1 2KL      0.087000
     45 H261       -4.0240   -3.1000    0.2800 h1        1 2KL      0.087500
     46 H262       -2.8050   -4.0820    0.6860 h1        1 2KL      0.087500
     47 H281       -3.2480   -5.8200    0.4920 h1        1 2KL      0.083500
     48 H282       -2.6550   -6.1760   -0.9170 h1        1 2KL      0.083500
     49 H311       -5.7780   -4.0300   -1.4430 h1        1 2KL      0.083500
     50 H312       -5.6700   -4.4550    0.1210 h1        1 2KL      0.083500
     51 H291       -4.4330   -7.4230   -1.4170 hc        1 2KL      0.087250
     52 H292       -4.8550   -7.3340    0.1280 hc        1 2KL      0.087250
     53 H301       -6.5740   -6.1350   -0.5770 hc        1 2KL      0.087250
     54 H302       -5.9910   -5.9860   -2.0420 hc        1 2KL      0.087250
@<TRIPOS>BOND
     1    1    2 1   
     2    2    6 1   
     3    3    4 1   
     4    3   32 1   
     5    4    5 1   
     6    4   33 1   
     7    4   34 1   
     8    5   35 1   
     9    5   36 1   
    10    5   37 1   
    11    6    7 1   
    12    6    8 1   
    13    7   10 1   
    14    8    9 1   
    15    9   10 1   
    16   11   12 1   
    17   12   14 1   
    18   13   39 1   
    19   13   40 1   
    20   14   15 1   
    21   16   18 1   
    22   17   23 1   
    23   17   41 1   
    24   18   20 1   
    25   20   21 1   
    26   20   42 1   
    27   21   23 1   
    28   23   24 1   
    29   24   25 1   
    30   25   26 1   
    31   25   43 1   
    32   25   44 1   
    33   26   27 1   
    34   26   45 1   
    35   26   46 1   
    36   27   28 1   
    37   27   29 1   
    38   28   31 1   
    39   28   47 1   
    40   28   48 1   
    41   29   30 1   
    42   29   49 1   
    43   29   50 1   
    44   30   31 1   
    45   30   53 1   
    46   30   54 1   
    47   31   51 1   
    48   31   52 1   
@<TRIPOS>SUBSTRUCTURE
     1 2KL         1 TEMP              0 ****  ****    0 ROOT
