@<TRIPOS>MOLECULE
2KL
   54    57     1     0     0
SMALL
bcc


@<TRIPOS>ATOM
      1 O13         2.3450   -3.1690    1.5340 o         1 2KL     -0.605100
      2 C12         3.3430   -2.6430    1.0000 c         1 2KL      0.703300
      3 N14         4.5820   -3.2590    1.0180 n         1 2KL     -0.565900
      4 C15         4.7670   -4.5980    1.5090 c3        1 2KL      0.086000
      5 C16         5.1250   -5.6220    0.4410 c3        1 2KL     -0.121100
      6 C8          3.2570   -1.3170    0.3610 cc        1 2KL     -0.208600
      7 S7          4.4760   -0.6210   -0.5970 ss        1 2KL     -0.025900
      8 C9          2.1470   -0.5140    0.4780 cd        1 2KL     -0.005200
      9 C5          2.2990    0.7070   -0.2470 ca        1 2KL     -0.385400
     10 C6          3.5720    0.7800   -0.9050 ca        1 2KL      0.488600
     11 N3          3.9670    1.8290   -1.6560 nb        1 2KL     -0.739000
     12 C2          3.0390    2.8500   -1.7710 ca        1 2KL      0.901900
     13 N11         3.3480    3.9150   -2.6050 nh        1 2KL     -0.935500
     14 N1          1.7750    2.8810   -1.1480 nb        1 2KL     -0.730000
     15 C4          1.4310    1.8240   -0.4060 cp        1 2KL      0.592800
     16 C10         0.1100    1.8110    0.2600 cp        1 2KL     -0.118500
     17 C17        -0.7610    0.7520   -0.0190 ca        1 2KL     -0.175000
     18 C21        -0.2830    2.8180    1.1510 ca        1 2KL      0.023400
     19 CL1         0.7460    4.1070    1.5480 cl        1 2KL     -0.068400
     20 C20        -1.5460    2.7670    1.7530 ca        1 2KL     -0.100000
     21 C19        -2.4210    1.7170    1.4770 ca        1 2KL      0.004400
     22 CL2        -3.9410    1.7070    2.2310 cl        1 2KL     -0.060400
     23 C18        -2.0230    0.6950    0.5830 ca        1 2KL      0.141100
     24 O24        -2.9360   -0.3080    0.3510 os        1 2KL     -0.320900
     25 C25        -2.4710   -1.4230   -0.4270 c3        1 2KL      0.122400
     26 C26        -3.6060   -2.4550   -0.3900 c3        1 2KL      0.163800
     27 N27        -4.5660   -2.2990   -1.4700 n3        1 2KL     -0.723600
     28 C28        -5.4860   -3.4350   -1.5890 c3        1 2KL      0.152800
     29 C31        -5.3670   -1.0730   -1.4010 c3        1 2KL      0.152800
     30 C30        -6.8580   -1.4330   -1.2990 c3        1 2KL     -0.096400
     31 C29        -6.9360   -2.9460   -1.4500 c3        1 2KL     -0.096400
     32 H14         5.3230   -2.8700    0.4870 hn        1 2KL      0.304500
     33 H151        5.5970   -4.5690    2.2740 h1        1 2KL      0.063200
     34 H152        3.8220   -4.9250    2.0340 h1        1 2KL      0.063200
     35 H161        6.0640   -5.3400   -0.0930 hc        1 2KL      0.041700
     36 H162        5.2810   -6.6120    0.9330 hc        1 2KL      0.041700
     37 H163        4.3060   -5.7230   -0.3100 hc        1 2KL      0.041700
     38 H9          1.2500   -0.7720    1.0530 ha        1 2KL      0.181000
     39 H111        4.2870    4.0150   -2.9080 hn        1 2KL      0.442800
     40 H112        2.7840    4.7290   -2.5540 hn        1 2KL      0.442800
     41 H17        -0.4380   -0.0300   -0.7220 ha        1 2KL      0.159000
     42 H20        -1.8520    3.5630    2.4520 ha        1 2KL      0.165000
     43 H251       -2.2360   -1.0800   -1.4670 h1        1 2KL      0.056200
     44 H252       -1.5560   -1.8570    0.0560 h1        1 2KL      0.056200
     45 H261       -3.1250   -3.4680   -0.5080 h1        1 2KL      0.050700
     46 H262       -4.0860   -2.4110    0.6310 h1        1 2KL      0.050700
     47 H281       -5.3220   -3.8760   -2.6100 h1        1 2KL      0.050700
     48 H282       -5.2730   -4.2380   -0.8310 h1        1 2KL      0.050700
     49 H311       -5.0580   -0.4180   -0.5410 h1        1 2KL      0.050700
     50 H312       -5.1720   -0.5080   -2.3530 h1        1 2KL      0.050700
     51 H291       -7.5290   -3.2310   -2.3520 hc        1 2KL      0.046700
     52 H292       -7.4240   -3.4130   -0.5600 hc        1 2KL      0.046700
     53 H301       -7.2720   -1.1060   -0.3140 hc        1 2KL      0.046700
     54 H302       -7.4380   -0.9150   -2.1010 hc        1 2KL      0.046700
@<TRIPOS>BOND
     1    1    2 2   
     2    2    3 1   
     3    2    6 1   
     4    3    4 1   
     5    3   32 1   
     6    4    5 1   
     7    4   33 1   
     8    4   34 1   
     9    5   35 1   
    10    5   36 1   
    11    5   37 1   
    12    6    7 1   
    13    6    8 2   
    14    7   10 1   
    15    8    9 1   
    16    8   38 1   
    17    9   10 ar  
    18    9   15 ar  
    19   10   11 ar  
    20   11   12 ar  
    21   12   13 1   
    22   12   14 ar  
    23   13   39 1   
    24   13   40 1   
    25   14   15 ar  
    26   15   16 1   
    27   16   17 ar  
    28   16   18 ar  
    29   17   23 ar  
    30   17   41 1   
    31   18   19 1   
    32   18   20 ar  
    33   20   21 ar  
    34   20   42 1   
    35   21   22 1   
    36   21   23 ar  
    37   23   24 1   
    38   24   25 1   
    39   25   26 1   
    40   25   43 1   
    41   25   44 1   
    42   26   27 1   
    43   26   45 1   
    44   26   46 1   
    45   27   28 1   
    46   27   29 1   
    47   28   31 1   
    48   28   47 1   
    49   28   48 1   
    50   29   30 1   
    51   29   49 1   
    52   29   50 1   
    53   30   31 1   
    54   30   53 1   
    55   30   54 1   
    56   31   51 1   
    57   31   52 1   
@<TRIPOS>SUBSTRUCTURE
     1 2KL         1 TEMP              0 ****  ****    0 ROOT
