@<TRIPOS>MOLECULE
2KL
   55    58     1     0     0
SMALL
bcc


@<TRIPOS>ATOM
      1 O13         0.6060    2.2470    0.6970 o         1 2KL     -0.453100
      2 C12         1.7260    1.8260    0.4280 c         1 2KL      0.612300
      3 N14         2.7990    2.2590    1.4280 ny        1 2KL     -0.682800
      4 C15         3.1640    1.1470    2.3550 c3        1 2KL      0.107800
      5 C16         4.1970    1.5540    3.3830 c3        1 2KL     -0.136100
      6 C8          2.1750    1.0320   -0.6650 cc        1 2KL     -0.330600
      7 S7          3.7450    0.3990   -0.8810 ss        1 2KL     -0.052900
      8 C9          1.3180    0.6880   -1.7170 cd        1 2KL      0.120800
      9 C5          1.9740   -0.0830   -2.6930 ca        1 2KL     -0.431400
     10 C6          3.3580   -0.3310   -2.3660 ca        1 2KL      0.559600
     11 N3          4.1960   -1.0390   -3.1280 nb        1 2KL     -0.751000
     12 C2          3.6390   -1.5480   -4.3090 ca        1 2KL      0.954900
     13 N11         4.4420   -2.2810   -5.1320 nv        1 2KL     -0.900500
     14 N1          2.2930   -1.3610   -4.7160 nb        1 2KL     -0.728000
     15 C4          1.5010   -0.6420   -3.9290 cp        1 2KL      0.644800
     16 C10         0.0910   -0.4310   -4.3240 cp        1 2KL     -0.154500
     17 C17        -0.7870   -1.5170   -4.2760 ca        1 2KL     -0.163000
     18 C21        -0.3650    0.8200   -4.7570 ca        1 2KL      0.003400
     19 Cl1         0.6880    2.1480   -4.8800 cl        1 2KL     -0.074400
     20 C20        -1.7060    0.9900   -5.1180 ca        1 2KL     -0.092000
     21 C19        -2.5960   -0.0820   -5.0570 ca        1 2KL      0.010400
     22 Cl2        -4.2090    0.1750   -5.5010 cl        1 2KL     -0.031400
     23 C18        -2.1310   -1.3520   -4.6360 ca        1 2KL      0.151100
     24 O24        -3.0610   -2.3600   -4.5850 os        1 2KL     -0.311900
     25 C25        -2.5560   -3.6940   -4.4010 c3        1 2KL      0.123400
     26 C26        -3.7630   -4.6220   -4.5880 c3        1 2KL      0.165800
     27 N27        -3.9580   -5.0300   -5.9680 n3        1 2KL     -0.726600
     28 C28        -4.8510   -6.1850   -6.1110 c3        1 2KL      0.153300
     29 C31        -4.4460   -3.9670   -6.8520 c3        1 2KL      0.153300
     30 C30        -5.8030   -4.3720   -7.4480 c3        1 2KL     -0.096900
     31 C29        -6.0470   -5.8070   -7.0000 c3        1 2KL     -0.096900
     32 H14         2.4330    3.0470    1.9780 hn        1 2KL      0.455300
     33 H151        2.2160    0.8090    2.8660 hx        1 2KL      0.109200
     34 H152        3.5550    0.2940    1.7220 hx        1 2KL      0.109200
     35 H161        3.8250    2.3800    4.0380 hc        1 2KL      0.078700
     36 H162        4.4100    0.6660    4.0310 hc        1 2KL      0.078700
     37 H163        5.1550    1.8740    2.9050 hc        1 2KL      0.078700
     38 H9          0.2630    0.9910   -1.7780 ha        1 2KL      0.194000
     39 H111        4.0850   -2.6430   -5.9860 hn        1 2KL      0.472300
     40 H112        5.3960   -2.4310   -4.8980 hn        1 2KL      0.472300
     41 H17        -0.4110   -2.5020   -3.9620 ha        1 2KL      0.159000
     42 H20        -2.0600    1.9770   -5.4630 ha        1 2KL      0.176000
     43 H251       -2.1700   -3.7850   -3.3510 h1        1 2KL      0.052200
     44 H252       -1.7370   -3.9000   -5.1360 h1        1 2KL      0.052200
     45 H261       -3.5530   -5.5470   -3.9790 h1        1 2KL      0.052200
     46 H262       -4.6690   -4.1110   -4.1490 h1        1 2KL      0.052200
     47 H281       -4.2480   -6.9990   -6.5980 h1        1 2KL      0.050450
     48 H282       -5.2120   -6.5720   -5.1200 h1        1 2KL      0.050450
     49 H311       -3.6840   -3.8570   -7.6730 h1        1 2KL      0.050450
     50 H312       -4.5240   -2.9810   -6.3190 h1        1 2KL      0.050450
     51 H291       -6.1110   -6.4970   -7.8760 hc        1 2KL      0.051200
     52 H292       -7.0030   -5.8930   -6.4290 hc        1 2KL      0.051200
     53 H301       -6.6110   -3.6950   -7.0790 hc        1 2KL      0.051200
     54 H302       -5.7770   -4.2950   -8.5620 hc        1 2KL      0.051200
     55 H142        3.6320    2.5740    0.9220 hn        1 2KL      0.455300
@<TRIPOS>BOND
     1    1    2 2   
     2    2    3 1   
     3    2    6 1   
     4    3    4 1   
     5    3   32 1   
     6    3   55 1   
     7    4    5 1   
     8    4   33 1   
     9    4   34 1   
    10    5   35 1   
    11    5   36 1   
    12    5   37 1   
    13    6    7 1   
    14    6    8 2   
    15    7   10 1   
    16    8    9 1   
    17    8   38 1   
    18    9   10 ar  
    19    9   15 ar  
    20   10   11 ar  
    21   11   12 ar  
    22   12   13 1   
    23   12   14 ar  
    24   13   39 1   
    25   13   40 1   
    26   14   15 ar  
    27   15   16 1   
    28   16   17 ar  
    29   16   18 ar  
    30   17   23 ar  
    31   17   41 1   
    32   18   19 1   
    33   18   20 ar  
    34   20   21 ar  
    35   20   42 1   
    36   21   22 1   
    37   21   23 ar  
    38   23   24 1   
    39   24   25 1   
    40   25   26 1   
    41   25   43 1   
    42   25   44 1   
    43   26   27 1   
    44   26   45 1   
    45   26   46 1   
    46   27   28 1   
    47   27   29 1   
    48   28   31 1   
    49   28   47 1   
    50   28   48 1   
    51   29   30 1   
    52   29   49 1   
    53   29   50 1   
    54   30   31 1   
    55   30   53 1   
    56   30   54 1   
    57   31   51 1   
    58   31   52 1   
@<TRIPOS>SUBSTRUCTURE
     1 2KL         1 TEMP              0 ****  ****    0 ROOT
