@<TRIPOS>MOLECULE
2KL
   55    58     1     0     0
SMALL
bcc


@<TRIPOS>ATOM
      1 O13         0.6430    2.2760    0.6580 o         1 2KL     -0.453100
      2 C12         1.7580    1.8330    0.4020 c         1 2KL      0.612300
      3 N14         2.8310    2.2600    1.4040 n4        1 2KL     -0.682800
      4 C15         3.1720    1.1530    2.3470 c3        1 2KL      0.107800
      5 C16         4.2040    1.5560    3.3770 c3        1 2KL     -0.136100
      6 C8          2.2000    1.0180   -0.6780 cc        1 2KL     -0.330600
      7 S7          3.7610    0.3570   -0.8760 ss        1 2KL     -0.052900
      8 C9          1.3450    0.6770   -1.7320 cd        1 2KL      0.120800
      9 C5          1.9940   -0.1170   -2.6950 ca        1 2KL     -0.431400
     10 C6          3.3710   -0.3850   -2.3540 ca        1 2KL      0.559600
     11 N3          4.2020   -1.1150   -3.1030 nb        1 2KL     -0.751000
     12 C2          3.6440   -1.6290   -4.2810 ca        1 2KL      0.954900
     13 N11         4.4400   -2.3850   -5.0900 nh        1 2KL     -0.900500
     14 N1          2.3040   -1.4240   -4.7000 nb        1 2KL     -0.728000
     15 C4          1.5200   -0.6830   -3.9260 cp        1 2KL      0.644800
     16 C10         0.1160   -0.4530   -4.3340 cp        1 2KL     -0.154500
     17 C17        -0.7810   -1.5240   -4.2770 ca        1 2KL     -0.163000
     18 C21        -0.3160    0.8000   -4.7850 ca        1 2KL      0.003400
     19 CL1         0.7600    2.1080   -4.9180 cl        1 2KL     -0.074400
     20 C20        -1.6520    0.9880   -5.1570 ca        1 2KL     -0.092000
     21 C19        -2.5610   -0.0680   -5.0880 ca        1 2KL      0.010400
     22 CL2        -4.1650    0.2110   -5.5460 cl        1 2KL     -0.031400
     23 C18        -2.1200   -1.3410   -4.6480 ca        1 2KL      0.151100
     24 O24        -3.0670   -2.3320   -4.5910 os        1 2KL     -0.311900
     25 C25        -2.5860   -3.6710   -4.3870 c3        1 2KL      0.123400
     26 C26        -3.8080   -4.5820   -4.5720 c3        1 2KL      0.165800
     27 N27        -4.0000   -5.0020   -5.9480 n3        1 2KL     -0.726600
     28 C28        -4.9130   -6.1430   -6.0840 c3        1 2KL      0.153300
     29 C31        -4.4660   -3.9410   -6.8470 c3        1 2KL      0.153300
     30 C30        -5.8260   -4.3300   -7.4470 c3        1 2KL     -0.096900
     31 C29        -6.0960   -5.7560   -6.9850 c3        1 2KL     -0.096900
     32 H14         2.4750    3.0610    1.9420 hn        1 2KL      0.455300
     33 H151        3.5520    0.2870    1.7270 hx        1 2KL      0.109200
     34 H152        2.2150    0.8380    2.8560 hx        1 2KL      0.109200
     35 H161        3.8420    2.3950    4.0200 hc        1 2KL      0.078700
     36 H162        4.3990    0.6720    4.0370 hc        1 2KL      0.078700
     37 H163        5.1710    1.8530    2.9010 hc        1 2KL      0.078700
     38 H9          0.2950    0.9960   -1.8040 ha        1 2KL      0.194000
     39 H111        4.0820   -2.7520   -5.9420 hn        1 2KL      0.472300
     40 H112        5.3900   -2.5480   -4.8490 hn        1 2KL      0.472300
     41 H17        -0.4240   -2.5110   -3.9480 ha        1 2KL      0.159000
     42 H20        -1.9870    1.9760   -5.5160 ha        1 2KL      0.176000
     43 H251       -2.2080   -3.7570   -3.3350 h1        1 2KL      0.052200
     44 H252       -1.7660   -3.9000   -5.1160 h1        1 2KL      0.052200
     45 H261       -3.6160   -5.5030   -3.9510 h1        1 2KL      0.052200
     46 H262       -4.7070   -4.0510   -4.1440 h1        1 2KL      0.052200
     47 H281       -5.2860   -6.5120   -5.0900 h1        1 2KL      0.050450
     48 H282       -4.3190   -6.9730   -6.5580 h1        1 2KL      0.050450
     49 H311       -4.5310   -2.9480   -6.3250 h1        1 2KL      0.050450
     50 H312       -3.6970   -3.8520   -7.6640 h1        1 2KL      0.050450
     51 H291       -7.0570   -5.8190   -6.4190 hc        1 2KL      0.051200
     52 H292       -6.1660   -6.4550   -7.8530 hc        1 2KL      0.051200
     53 H301       -6.6250   -3.6350   -7.0910 hc        1 2KL      0.051200
     54 H302       -5.7920   -4.2660   -8.5620 hc        1 2KL      0.051200
     55 H142        3.6730    2.5550    0.9000 hn        1 2KL      0.455300
@<TRIPOS>BOND
     1    1    2 2   
     2    2    3 1   
     3    2    6 1   
     4    3    4 1   
     5    3   32 1   
     6    3   55 1   
     7    4    5 1   
     8    4   33 1   
     9    4   34 1   
    10    5   35 1   
    11    5   36 1   
    12    5   37 1   
    13    6    7 1   
    14    6    8 2   
    15    7   10 1   
    16    8    9 1   
    17    8   38 1   
    18    9   10 ar  
    19    9   15 ar  
    20   10   11 ar  
    21   11   12 ar  
    22   12   13 1   
    23   12   14 ar  
    24   13   39 1   
    25   13   40 1   
    26   14   15 ar  
    27   15   16 1   
    28   16   17 ar  
    29   16   18 ar  
    30   17   23 ar  
    31   17   41 1   
    32   18   19 1   
    33   18   20 ar  
    34   20   21 ar  
    35   20   42 1   
    36   21   22 1   
    37   21   23 ar  
    38   23   24 1   
    39   24   25 1   
    40   25   26 1   
    41   25   43 1   
    42   25   44 1   
    43   26   27 1   
    44   26   45 1   
    45   26   46 1   
    46   27   28 1   
    47   27   29 1   
    48   28   31 1   
    49   28   47 1   
    50   28   48 1   
    51   29   30 1   
    52   29   49 1   
    53   29   50 1   
    54   30   31 1   
    55   30   53 1   
    56   30   54 1   
    57   31   51 1   
    58   31   52 1   
@<TRIPOS>SUBSTRUCTURE
     1 2KL         1 TEMP              0 ****  ****    0 ROOT
