@<TRIPOS>MOLECULE
2KL
   56    59     1     0     0
SMALL
bcc


@<TRIPOS>ATOM
      1 O13         0.0960    0.4630    0.4030 o         1 2KL     -0.390100
      2 C12         1.3010    0.5480    0.2110 c         1 2KL      0.595300
      3 N14         2.1200    0.9910    1.4030 n4        1 2KL     -0.677800
      4 C15         2.1130   -0.0460    2.4920 c3        1 2KL      0.113800
      5 C16         2.8340    0.4220    3.7360 c3        1 2KL     -0.143100
      6 C8          2.0060    0.2990   -1.0300 cc        1 2KL     -0.283600
      7 S7          3.6680    0.0570   -1.2400 ss        1 2KL      0.143100
      8 C9          1.2940    0.2170   -2.2240 cd        1 2KL      0.058800
      9 C5          2.1590   -0.0400   -3.3240 ca        1 2KL     -0.323400
     10 C6          3.5300   -0.1450   -2.9010 ca        1 2KL      0.441600
     11 N3          4.5510   -0.3750   -3.7750 nb        1 2KL     -0.640000
     12 C2          4.1540   -0.4860   -5.0700 ca        1 2KL      0.755900
     13 N11         5.2280   -0.7410   -6.0790 n4        1 2KL     -0.819300
     14 N1          2.8770   -0.3980   -5.5950 nb        1 2KL     -0.676000
     15 C4          1.8740   -0.1710   -4.7230 cp        1 2KL      0.666800
     16 C10         0.4960   -0.0590   -5.2170 cp        1 2KL     -0.203500
     17 C17        -0.4820   -0.9070   -4.6700 ca        1 2KL     -0.186000
     18 C21         0.1490    0.8480   -6.2260 ca        1 2KL      0.046400
     19 CL1         1.2870    1.9130   -6.8920 cl        1 2KL     -0.055400
     20 C20        -1.1750    0.9140   -6.6820 ca        1 2KL     -0.097000
     21 C19        -2.1510    0.0680   -6.1600 ca        1 2KL      0.040400
     22 CL2        -3.7230    0.1710   -6.7550 cl        1 2KL      0.012600
     23 C18        -1.7950   -0.8620   -5.1430 ca        1 2KL      0.157100
     24 O24        -2.8050   -1.6500   -4.6590 os        1 2KL     -0.301900
     25 C25        -2.4200   -2.8020   -3.8870 c3        1 2KL      0.123400
     26 C26        -3.6810   -3.6740   -3.7900 c3        1 2KL      0.167800
     27 N27        -3.8040   -4.5970   -4.9030 n3        1 2KL     -0.731600
     28 C28        -4.6730   -5.7450   -4.6200 c3        1 2KL      0.153300
     29 C31        -4.2640   -3.9800   -6.1510 c3        1 2KL      0.153300
     30 C30        -5.6000   -4.6090   -6.5780 c3        1 2KL     -0.097400
     31 C29        -5.8420   -5.7660   -5.6180 c3        1 2KL     -0.097400
     32 H14         3.0850    1.2010    1.1310 hn        1 2KL      0.462800
     33 H151        2.6000   -0.9760    2.0800 hx        1 2KL      0.115200
     34 H152        1.0310   -0.2740    2.7270 hx        1 2KL      0.115200
     35 H161        2.3540    1.3290    4.1820 hc        1 2KL      0.089700
     36 H162        2.7790   -0.4030    4.4950 hc        1 2KL      0.089700
     37 H163        3.9130    0.6390    3.5400 hc        1 2KL      0.089700
     38 H9          0.2040    0.3370   -2.3250 ha        1 2KL      0.219000
     39 H111        5.0310   -1.6310   -6.5600 hn        1 2KL      0.492467
     40 H112        5.2250    0.0240   -6.7700 hn        1 2KL      0.492467
     41 H17        -0.2000   -1.6290   -3.8900 ha        1 2KL      0.146000
     42 H20        -1.4440    1.6400   -7.4720 ha        1 2KL      0.192000
     43 H251       -2.1200   -2.4500   -2.8650 h1        1 2KL      0.045700
     44 H252       -1.5700   -3.3360   -4.3820 h1        1 2KL      0.045700
     45 H261       -4.5720   -2.9890   -3.6810 h1        1 2KL      0.057200
     46 H262       -3.5790   -4.2710   -2.8380 h1        1 2KL      0.057200
     47 H281       -4.0380   -6.6650   -4.7470 h1        1 2KL      0.049700
     48 H282       -5.0620   -5.7390   -3.5660 h1        1 2KL      0.049700
     49 H311       -4.3610   -2.8640   -6.0560 h1        1 2KL      0.049700
     50 H312       -3.4760   -4.1930   -6.9250 h1        1 2KL      0.049700
     51 H291       -6.8170   -5.6480   -5.0840 hc        1 2KL      0.056950
     52 H292       -5.8690   -6.7420   -6.1610 hc        1 2KL      0.056950
     53 H301       -6.4250   -3.8580   -6.5160 hc        1 2KL      0.056950
     54 H302       -5.5420   -4.9650   -7.6350 hc        1 2KL      0.056950
     55 H142        1.7000    1.8540    1.7820 hn        1 2KL      0.462800
     56 H113        6.1500   -0.7910   -5.6230 hn        1 2KL      0.492467
@<TRIPOS>BOND
     1    1    2 2   
     2    2    3 1   
     3    2    6 1   
     4    3    4 1   
     5    3   32 1   
     6    3   55 1   
     7    4    5 1   
     8    4   33 1   
     9    4   34 1   
    10    5   35 1   
    11    5   36 1   
    12    5   37 1   
    13    6    7 1   
    14    6    8 2   
    15    7   10 1   
    16    8    9 1   
    17    8   38 1   
    18    9   10 ar  
    19    9   15 ar  
    20   10   11 ar  
    21   11   12 ar  
    22   12   13 1   
    23   12   14 ar  
    24   13   39 1   
    25   13   40 1   
    26   13   56 1   
    27   14   15 ar  
    28   15   16 1   
    29   16   17 ar  
    30   16   18 ar  
    31   17   23 ar  
    32   17   41 1   
    33   18   19 1   
    34   18   20 ar  
    35   20   21 ar  
    36   20   42 1   
    37   21   22 1   
    38   21   23 ar  
    39   23   24 1   
    40   24   25 1   
    41   25   26 1   
    42   25   43 1   
    43   25   44 1   
    44   26   27 1   
    45   26   45 1   
    46   26   46 1   
    47   27   28 1   
    48   27   29 1   
    49   28   31 1   
    50   28   47 1   
    51   28   48 1   
    52   29   30 1   
    53   29   49 1   
    54   29   50 1   
    55   30   31 1   
    56   30   53 1   
    57   30   54 1   
    58   31   51 1   
    59   31   52 1   
@<TRIPOS>SUBSTRUCTURE
     1 2KL         1 TEMP              0 ****  ****    0 ROOT
