@<TRIPOS>MOLECULE
2KN
   45    45     1     0     0
SMALL
bcc


@<TRIPOS>ATOM
      1 C11         0.5850    0.9520   -1.7210 c3        1 2KN     -0.150767
      2 C10         1.9360    0.5910   -1.1510 c3        1 2KN      0.122467
      3 N9          1.8640    0.3490    0.3440 n4        1 2KN     -0.671133
      4 C7          3.1840   -0.0240    0.9400 c         1 2KN      0.545700
      5 O8          4.1070   -0.2580    0.1710 o         1 2KN     -0.372433
      6 C4          3.3190   -0.0810    2.4180 ca        1 2KN     -0.172267
      7 C5          2.2470   -0.0470    3.3100 ca        1 2KN      0.024667
      8 C3          4.6380   -0.2030    2.9080 ca        1 2KN      0.024667
      9 C2          4.8720   -0.2770    4.2820 ca        1 2KN     -0.172267
     10 C17         6.2140   -0.4220    4.9010 c         1 2KN      0.545700
     11 O18         6.3840   -0.6250    6.0960 o         1 2KN     -0.372433
     12 N19         7.4300   -0.3160    4.0360 n4        1 2KN     -0.671133
     13 C20         8.7240   -0.3550    4.8260 c3        1 2KN      0.122467
     14 C21         9.9290   -0.2520    3.9230 c3        1 2KN     -0.150767
     15 C1          3.7850   -0.2360    5.1820 ca        1 2KN      0.024667
     16 C6          2.4810   -0.1310    4.6990 ca        1 2KN     -0.172267
     17 C12         1.2800   -0.0350    5.5650 c         1 2KN      0.545700
     18 O13         0.2350    0.5030    5.2200 o         1 2KN     -0.372433
     19 N14         1.2990   -0.6480    6.9290 n4        1 2KN     -0.671133
     20 C15         1.2150    0.4000    8.0200 c3        1 2KN      0.122467
     21 C16         1.0840   -0.2220    9.3900 c3        1 2KN     -0.150767
     22 H1          0.7210    1.1160   -2.8260 hc        1 2KN      0.099811
     23 H2          0.1790    1.8990   -1.2870 hc        1 2KN      0.099811
     24 H3         -0.1640    0.1330   -1.5910 hc        1 2KN      0.099811
     25 H4          2.6810    1.4210   -1.3200 hx        1 2KN      0.123033
     26 H5          2.3330   -0.3540   -1.6260 hx        1 2KN      0.123033
     27 H6          1.5100    1.2030    0.7950 hn        1 2KN      0.470967
     28 H7          1.1990    0.0480    2.9650 ha        1 2KN      0.187000
     29 H8          5.4620   -0.2460    2.1690 ha        1 2KN      0.187000
     30 H9          7.4400   -1.0970    3.3660 hn        1 2KN      0.470967
     31 H10         8.6940    0.5020    5.5610 hx        1 2KN      0.123033
     32 H11         8.7350   -1.3250    5.4050 hx        1 2KN      0.123033
     33 H12         9.9570    0.7120    3.3590 hc        1 2KN      0.099811
     34 H13        10.8430   -0.2880    4.5800 hc        1 2KN      0.099811
     35 H14         9.9970   -1.1060    3.2050 hc        1 2KN      0.099811
     36 H15         4.0030   -0.2750    6.2680 ha        1 2KN      0.187000
     37 H16         0.4680   -1.2590    7.0250 hn        1 2KN      0.470967
     38 H17         2.1480    1.0290    7.9530 hx        1 2KN      0.123033
     39 H18         0.3140    1.0440    7.7910 hx        1 2KN      0.123033
     40 H19         0.1520   -0.8320    9.4890 hc        1 2KN      0.099811
     41 H20         1.0210    0.6150   10.1380 hc        1 2KN      0.099811
     42 H21         1.9680   -0.8530    9.6560 hc        1 2KN      0.099811
     43 H92         1.1900   -0.4100    0.5130 hn        1 2KN      0.470967
     44 H192        7.4000    0.5650    3.5070 hn        1 2KN      0.470967
     45 H142        2.1340   -1.2250    7.0690 hn        1 2KN      0.470967
@<TRIPOS>BOND
     1    1    2 1   
     2    1   22 1   
     3    1   23 1   
     4    1   24 1   
     5    2    3 1   
     6    2   25 1   
     7    2   26 1   
     8    3    4 1   
     9    3   27 1   
    10    3   43 1   
    11    4    5 2   
    12    4    6 1   
    13    6    7 ar  
    14    6    8 ar  
    15    7   16 ar  
    16    7   28 1   
    17    8    9 ar  
    18    8   29 1   
    19    9   10 1   
    20    9   15 ar  
    21   10   11 2   
    22   10   12 1   
    23   12   13 1   
    24   12   30 1   
    25   12   44 1   
    26   13   14 1   
    27   13   31 1   
    28   13   32 1   
    29   14   33 1   
    30   14   34 1   
    31   14   35 1   
    32   15   16 ar  
    33   15   36 1   
    34   16   17 1   
    35   17   18 2   
    36   17   19 1   
    37   19   20 1   
    38   19   37 1   
    39   19   45 1   
    40   20   21 1   
    41   20   38 1   
    42   20   39 1   
    43   21   40 1   
    44   21   41 1   
    45   21   42 1   
@<TRIPOS>SUBSTRUCTURE
     1 2KN         1 TEMP              0 ****  ****    0 ROOT
