@<TRIPOS>MOLECULE
2KN
   45    45     1     0     0
SMALL
bcc


@<TRIPOS>ATOM
      1 C11         0.5660    1.0270   -1.6960 c3        1 2KN     -0.150767
      2 C10         1.9120    0.6320   -1.1360 c3        1 2KN      0.122467
      3 N9          1.8450    0.3910    0.3590 ny        1 2KN     -0.671133
      4 C7          3.1600   -0.0150    0.9450 c         1 2KN      0.545700
      5 O8          4.0710   -0.2750    0.1680 o         1 2KN     -0.372433
      6 C4          3.3060   -0.0730    2.4220 ca        1 2KN     -0.172267
      7 C5          2.2410   -0.0140    3.3220 ca        1 2KN      0.024667
      8 C3          4.6250   -0.2250    2.9010 ca        1 2KN      0.024667
      9 C2          4.8680   -0.3020    4.2730 ca        1 2KN     -0.172267
     10 C17         6.2120   -0.4760    4.8810 c         1 2KN      0.545700
     11 O18         6.3880   -0.6750    6.0770 o         1 2KN     -0.372433
     12 N19         7.4230   -0.4050    4.0060 ny        1 2KN     -0.671133
     13 C20         8.7220   -0.4760    4.7860 c3        1 2KN      0.122467
     14 C21         9.9220   -0.4080    3.8720 c3        1 2KN     -0.150767
     15 C1          3.7900   -0.2350    5.1820 ca        1 2KN      0.024667
     16 C6          2.4850   -0.1020    4.7090 ca        1 2KN     -0.172267
     17 C12         1.2940    0.0230    5.5850 c         1 2KN      0.545700
     18 O13         0.2590    0.5840    5.2470 o         1 2KN     -0.372433
     19 N14         1.3100   -0.5880    6.9500 ny        1 2KN     -0.671133
     20 C15         1.2580    0.4640    8.0390 c3        1 2KN      0.122467
     21 C16         1.1240   -0.1540    9.4110 c3        1 2KN     -0.150767
     22 H1          0.1870    1.9830   -1.2580 hc        1 2KN      0.099811
     23 H2         -0.2020    0.2260   -1.5620 hc        1 2KN      0.099811
     24 H3          0.6980    1.1890   -2.8020 hc        1 2KN      0.099811
     25 H4          2.2830   -0.3210   -1.6150 hx        1 2KN      0.123033
     26 H5          2.6760    1.4440   -1.3100 hx        1 2KN      0.123033
     27 H6          1.1530   -0.3520    0.5320 hn        1 2KN      0.470967
     28 H7          1.1930    0.1040    2.9850 ha        1 2KN      0.187000
     29 H8          5.4420   -0.2870    2.1560 ha        1 2KN      0.187000
     30 H9          7.4120    0.4750    3.4750 hn        1 2KN      0.470967
     31 H10         8.7120   -1.4440    5.3670 hx        1 2KN      0.123033
     32 H11         8.7210    0.3840    5.5170 hx        1 2KN      0.123033
     33 H12         9.9600   -1.2660    3.1550 hc        1 2KN      0.099811
     34 H13        10.8400   -0.4670    4.5210 hc        1 2KN      0.099811
     35 H14         9.9710    0.5530    3.3040 hc        1 2KN      0.099811
     36 H15         4.0160   -0.2770    6.2660 ha        1 2KN      0.187000
     37 H16         2.1320   -1.1840    7.0840 hn        1 2KN      0.470967
     38 H17         2.2050    1.0710    7.9640 hx        1 2KN      0.123033
     39 H18         0.3700    1.1270    7.8170 hx        1 2KN      0.123033
     40 H19         0.1790   -0.7420    9.5190 hc        1 2KN      0.099811
     41 H20         1.9950   -0.8040    9.6710 hc        1 2KN      0.099811
     42 H21         1.0860    0.6860   10.1580 hc        1 2KN      0.099811
     43 H92         1.5150    1.2520    0.8140 hn        1 2KN      0.470967
     44 H192        7.4060   -1.1880    3.3380 hn        1 2KN      0.470967
     45 H142        0.4660   -1.1800    7.0530 hn        1 2KN      0.470967
@<TRIPOS>BOND
     1    1    2 1   
     2    1   22 1   
     3    1   23 1   
     4    1   24 1   
     5    2    3 1   
     6    2   25 1   
     7    2   26 1   
     8    3    4 1   
     9    3   27 1   
    10    3   43 1   
    11    4    5 2   
    12    4    6 1   
    13    6    7 ar  
    14    6    8 ar  
    15    7   16 ar  
    16    7   28 1   
    17    8    9 ar  
    18    8   29 1   
    19    9   10 1   
    20    9   15 ar  
    21   10   11 2   
    22   10   12 1   
    23   12   13 1   
    24   12   30 1   
    25   12   44 1   
    26   13   14 1   
    27   13   31 1   
    28   13   32 1   
    29   14   33 1   
    30   14   34 1   
    31   14   35 1   
    32   15   16 ar  
    33   15   36 1   
    34   16   17 1   
    35   17   18 2   
    36   17   19 1   
    37   19   20 1   
    38   19   37 1   
    39   19   45 1   
    40   20   21 1   
    41   20   38 1   
    42   20   39 1   
    43   21   40 1   
    44   21   41 1   
    45   21   42 1   
@<TRIPOS>SUBSTRUCTURE
     1 2KN         1 TEMP              0 ****  ****    0 ROOT
