@<TRIPOS>MOLECULE
2KN
   45    45     1     0     0
SMALL
bcc


@<TRIPOS>ATOM
      1 C11         0.5600    0.7990   -1.7300 c3        1 2KN     -0.150767
      2 C10         1.9150    0.4620   -1.1560 c3        1 2KN      0.122467
      3 N9          1.8490    0.2510    0.3440 n4        1 2KN     -0.671133
      4 C7          3.1740   -0.0990    0.9440 c         1 2KN      0.545700
      5 O8          4.0960   -0.3460    0.1770 o         1 2KN     -0.372767
      6 C4          3.3150   -0.1190    2.4220 ca        1 2KN     -0.172267
      7 C5          2.2450   -0.0760    3.3160 ca        1 2KN      0.024667
      8 C3          4.6360   -0.2140    2.9100 ca        1 2KN      0.024667
      9 C2          4.8750   -0.2520    4.2840 ca        1 2KN     -0.172267
     10 C17         6.2210   -0.3660    4.9020 c         1 2KN      0.545700
     11 O18         6.3980   -0.5300    6.1020 o         1 2KN     -0.372767
     12 N19         7.4330   -0.2760    4.0300 n4        1 2KN     -0.671133
     13 C20         8.7300   -0.2860    4.8150 c3        1 2KN      0.122467
     14 C21         9.9310   -0.2000    3.9040 c3        1 2KN     -0.150767
     15 C1          3.7910   -0.2030    5.1870 ca        1 2KN      0.024667
     16 C6          2.4840   -0.1240    4.7060 ca        1 2KN     -0.172267
     17 C12         1.2860   -0.0200    5.5740 c         1 2KN      0.545700
     18 O13         0.2330    0.4960    5.2200 o         1 2KN     -0.372767
     19 N14         1.3170   -0.6000    6.9530 n4        1 2KN     -0.671133
     20 C15         1.2240    0.4740    8.0170 c3        1 2KN      0.122467
     21 C16         1.1050   -0.1170    9.4030 c3        1 2KN     -0.150767
     22 H1          0.1470    1.7510   -1.3150 hc        1 2KN      0.099811
     23 H2         -0.1820   -0.0240   -1.5820 hc        1 2KN      0.099811
     24 H3          0.6920    0.9410   -2.8390 hc        1 2KN      0.099811
     25 H4          2.3200   -0.4890   -1.6130 hx        1 2KN      0.123033
     26 H5          2.6530    1.2940   -1.3440 hx        1 2KN      0.123033
     27 H6          1.1820   -0.5110    0.5300 hn        1 2KN      0.470800
     28 H7          1.1950   -0.0020    2.9730 ha        1 2KN      0.187000
     29 H8          5.4580   -0.2640    2.1690 ha        1 2KN      0.187000
     30 H9          7.3960    0.5910    3.4780 hn        1 2KN      0.470800
     31 H10         8.7500   -1.2410    5.4190 hx        1 2KN      0.123033
     32 H11         8.6980    0.5890    5.5270 hx        1 2KN      0.123033
     33 H12        10.0010   -1.0720    3.2080 hc        1 2KN      0.099811
     34 H13        10.8480   -0.2140    4.5580 hc        1 2KN      0.099811
     35 H14         9.9510    0.7490    3.3150 hc        1 2KN      0.099811
     36 H15         4.0140   -0.2120    6.2730 ha        1 2KN      0.187000
     37 H16         2.1580   -1.1640    7.1040 hn        1 2KN      0.470800
     38 H17         2.1490    1.1110    7.9320 hx        1 2KN      0.123033
     39 H18         0.3140    1.1010    7.7770 hx        1 2KN      0.123033
     40 H19         0.1790   -0.7350    9.5210 hc        1 2KN      0.099811
     41 H20         1.9960   -0.7310    9.6810 hc        1 2KN      0.099811
     42 H21         1.0340    0.7380   10.1310 hc        1 2KN      0.099811
     43 H92         1.4880    1.1100    0.7780 hn        1 2KN      0.470800
     44 H192        7.4450   -1.0730    3.3800 hn        1 2KN      0.470800
     45 H142        0.4930   -1.2180    7.0660 hn        1 2KN      0.470800
@<TRIPOS>BOND
     1    1    2 1   
     2    1   22 1   
     3    1   23 1   
     4    1   24 1   
     5    2    3 1   
     6    2   25 1   
     7    2   26 1   
     8    3    4 1   
     9    3   27 1   
    10    3   43 1   
    11    4    5 2   
    12    4    6 1   
    13    6    7 ar  
    14    6    8 ar  
    15    7   16 ar  
    16    7   28 1   
    17    8    9 ar  
    18    8   29 1   
    19    9   10 1   
    20    9   15 ar  
    21   10   11 2   
    22   10   12 1   
    23   12   13 1   
    24   12   30 1   
    25   12   44 1   
    26   13   14 1   
    27   13   31 1   
    28   13   32 1   
    29   14   33 1   
    30   14   34 1   
    31   14   35 1   
    32   15   16 ar  
    33   15   36 1   
    34   16   17 1   
    35   17   18 2   
    36   17   19 1   
    37   19   20 1   
    38   19   37 1   
    39   19   45 1   
    40   20   21 1   
    41   20   38 1   
    42   20   39 1   
    43   21   40 1   
    44   21   41 1   
    45   21   42 1   
@<TRIPOS>SUBSTRUCTURE
     1 2KN         1 TEMP              0 ****  ****    0 ROOT
