@<TRIPOS>MOLECULE
2KR
   42    45     1     0     0
SMALL
bcc


@<TRIPOS>ATOM
      1 C01         0.1280    0.8890   -0.0950 c3        1 2KR      0.127700
      2 O02         1.5380    0.6630    0.0370 os        1 2KR     -0.393400
      3 C03         1.9650    0.4180    1.3220 cc        1 2KR      0.622100
      4 N04         1.2670    0.5970    2.4720 nd        1 2KR     -0.613100
      5 C05         2.1650    0.2210    3.4860 ca        1 2KR     -0.010900
      6 C06         2.0400    0.1930    4.8810 ca        1 2KR     -0.050000
      7 C07         3.1430   -0.2280    5.6130 ca        1 2KR     -0.259300
      8 C08         4.3340   -0.6110    4.9520 ca        1 2KR      0.397200
      9 N09         4.5190   -0.6110    3.6230 nb        1 2KR     -0.646000
     10 C10         3.4420   -0.2010    2.9020 ca        1 2KR      0.403800
     11 N11         3.2840   -0.0850    1.4980 na        1 2KR     -0.189100
     12 C12         4.2720   -0.2690    0.5090 ca        1 2KR     -0.002200
     13 C13         4.3360    0.5890   -0.6080 ca        1 2KR     -0.107000
     14 C14         5.3060    0.4040   -1.5820 ca        1 2KR     -0.137500
     15 C15         6.2480   -0.6440   -1.4800 ca        1 2KR      0.135600
     16 N16         7.1640   -0.8700   -2.5320 nu        1 2KR     -0.714300
     17 C17         8.5550   -0.9890   -2.3180 ca        1 2KR      0.628200
     18 C18         9.4010   -1.0430   -3.4700 ca        1 2KR     -0.289300
     19 C19        10.7660   -1.2270   -3.2970 ca        1 2KR     -0.065000
     20 C20        11.2960   -1.3490   -2.0070 ca        1 2KR     -0.231600
     21 C21        12.7420   -1.5300   -1.7750 c3        1 2KR     -0.041800
     22 C22        10.3900   -1.2790   -0.9290 ca        1 2KR      0.431200
     23 N23         9.0680   -1.1010   -1.0520 nb        1 2KR     -0.701000
     24 C24         6.1760   -1.5030   -0.3650 ca        1 2KR     -0.137500
     25 C25         5.2060   -1.3200    0.6130 ca        1 2KR     -0.107000
     26 H1          0.0010    0.9960   -1.2020 h1        1 2KR      0.058700
     27 H2         -0.1640    1.8260    0.4380 h1        1 2KR      0.058700
     28 H3         -0.4470    0.0160    0.2950 h1        1 2KR      0.058700
     29 H4          1.1030    0.4960    5.3680 ha        1 2KR      0.152000
     30 H5          3.1020   -0.2670    6.7100 ha        1 2KR      0.144000
     31 H6          5.2100   -0.9430    5.5380 h4        1 2KR      0.024100
     32 H7          3.6090    1.4100   -0.7210 ha        1 2KR      0.155500
     33 H8          5.3270    1.0930   -2.4410 ha        1 2KR      0.145500
     34 H9          6.9510   -0.3570   -3.3640 hn        1 2KR      0.415800
     35 H10         8.9790   -0.9500   -4.4800 ha        1 2KR      0.142000
     36 H11        11.4300   -1.2770   -4.1730 ha        1 2KR      0.138000
     37 H12        13.2120   -2.1040   -2.6120 hc        1 2KR      0.044367
     38 H13        12.9290   -2.0810   -0.8200 hc        1 2KR      0.044367
     39 H14        13.2490   -0.5340   -1.7080 hc        1 2KR      0.044367
     40 H15        10.7510   -1.3670    0.1130 h4        1 2KR      0.024100
     41 H16         6.8880   -2.3360   -0.2530 ha        1 2KR      0.145500
     42 H17         5.1840   -2.0100    1.4720 ha        1 2KR      0.155500
@<TRIPOS>BOND
     1    1    2 1   
     2    1   26 1   
     3    1   27 1   
     4    1   28 1   
     5    2    3 1   
     6    3    4 2   
     7    3   11 1   
     8    4    5 1   
     9    5    6 ar  
    10    5   10 ar  
    11    6    7 ar  
    12    6   29 1   
    13    7    8 ar  
    14    7   30 1   
    15    8    9 ar  
    16    8   31 1   
    17    9   10 ar  
    18   10   11 1   
    19   11   12 1   
    20   12   13 ar  
    21   12   25 ar  
    22   13   14 ar  
    23   13   32 1   
    24   14   15 ar  
    25   14   33 1   
    26   15   16 1   
    27   15   24 ar  
    28   16   17 1   
    29   16   34 1   
    30   17   18 ar  
    31   17   23 ar  
    32   18   19 ar  
    33   18   35 1   
    34   19   20 ar  
    35   19   36 1   
    36   20   21 1   
    37   20   22 ar  
    38   21   37 1   
    39   21   38 1   
    40   21   39 1   
    41   22   23 ar  
    42   22   40 1   
    43   24   25 ar  
    44   24   41 1   
    45   25   42 1   
@<TRIPOS>SUBSTRUCTURE
     1 2KR         1 TEMP              0 ****  ****    0 ROOT
