@<TRIPOS>MOLECULE
2KR
   42    45     1     0     0
SMALL
bcc


@<TRIPOS>ATOM
      1 C01         0.1320    0.9100   -0.0930 c3        1 2KR      0.127700
      2 O02         1.5420    0.6780    0.0380 os        1 2KR     -0.393400
      3 C03         1.9660    0.4220    1.3220 cc        1 2KR      0.622100
      4 N04         1.2670    0.5950    2.4730 nd        1 2KR     -0.613100
      5 C05         2.1620    0.2080    3.4860 ca        1 2KR     -0.010900
      6 C06         2.0350    0.1710    4.8800 ca        1 2KR     -0.050000
      7 C07         3.1360   -0.2590    5.6100 ca        1 2KR     -0.259300
      8 C08         4.3270   -0.6410    4.9480 ca        1 2KR      0.397200
      9 N09         4.5130   -0.6320    3.6190 nb        1 2KR     -0.646000
     10 C10         3.4390   -0.2130    2.9010 ca        1 2KR      0.403800
     11 N11         3.2840   -0.0870    1.4960 na        1 2KR     -0.189100
     12 C12         4.2720   -0.2670    0.5080 ca        1 2KR     -0.002200
     13 C13         4.3400    0.5990   -0.6030 ca        1 2KR     -0.107000
     14 C14         5.3110    0.4180   -1.5770 ca        1 2KR     -0.137500
     15 C15         6.2500   -0.6340   -1.4810 ca        1 2KR      0.135600
     16 N16         7.1670   -0.8550   -2.5330 nh        1 2KR     -0.714300
     17 C17         8.5570   -0.9790   -2.3170 ca        1 2KR      0.628200
     18 C18         9.4040   -1.0270   -3.4690 ca        1 2KR     -0.289300
     19 C19        10.7690   -1.2170   -3.2950 ca        1 2KR     -0.065000
     20 C20        11.2970   -1.3490   -2.0050 ca        1 2KR     -0.231600
     21 C21        12.7420   -1.5360   -1.7720 c3        1 2KR     -0.041800
     22 C22        10.3890   -1.2840   -0.9280 ca        1 2KR      0.431200
     23 N23         9.0680   -1.1020   -1.0520 nb        1 2KR     -0.701000
     24 C24         6.1730   -1.5010   -0.3720 ca        1 2KR     -0.137500
     25 C25         5.2030   -1.3210    0.6060 ca        1 2KR     -0.107000
     26 H1          0.0080    1.0260   -1.2000 h1        1 2KR      0.058700
     27 H2         -0.4460    0.0360    0.2900 h1        1 2KR      0.058700
     28 H3         -0.1570    1.8440    0.4460 h1        1 2KR      0.058700
     29 H4          1.0980    0.4740    5.3680 ha        1 2KR      0.152000
     30 H5          3.0920   -0.3060    6.7070 ha        1 2KR      0.144000
     31 H6          5.2010   -0.9810    5.5330 h4        1 2KR      0.024100
     32 H7          3.6160    1.4230   -0.7110 ha        1 2KR      0.155500
     33 H8          5.3360    1.1130   -2.4300 ha        1 2KR      0.145500
     34 H9          6.9560   -0.3350   -3.3610 hn        1 2KR      0.415800
     35 H10         8.9850   -0.9260   -4.4790 ha        1 2KR      0.142000
     36 H11        11.4340   -1.2620   -4.1710 ha        1 2KR      0.138000
     37 H12        13.2520   -0.5420   -1.7000 hc        1 2KR      0.044367
     38 H13        12.9260   -2.0920   -0.8200 hc        1 2KR      0.044367
     39 H14        13.2110   -2.1080   -2.6110 hc        1 2KR      0.044367
     40 H15        10.7480   -1.3810    0.1140 h4        1 2KR      0.024100
     41 H16         6.8820   -2.3370   -0.2650 ha        1 2KR      0.145500
     42 H17         5.1770   -2.0180    1.4590 ha        1 2KR      0.155500
@<TRIPOS>BOND
     1    1    2 1   
     2    1   26 1   
     3    1   27 1   
     4    1   28 1   
     5    2    3 1   
     6    3    4 2   
     7    3   11 1   
     8    4    5 1   
     9    5    6 ar  
    10    5   10 ar  
    11    6    7 ar  
    12    6   29 1   
    13    7    8 ar  
    14    7   30 1   
    15    8    9 ar  
    16    8   31 1   
    17    9   10 ar  
    18   10   11 1   
    19   11   12 1   
    20   12   13 ar  
    21   12   25 ar  
    22   13   14 ar  
    23   13   32 1   
    24   14   15 ar  
    25   14   33 1   
    26   15   16 1   
    27   15   24 ar  
    28   16   17 1   
    29   16   34 1   
    30   17   18 ar  
    31   17   23 ar  
    32   18   19 ar  
    33   18   35 1   
    34   19   20 ar  
    35   19   36 1   
    36   20   21 1   
    37   20   22 ar  
    38   21   37 1   
    39   21   38 1   
    40   21   39 1   
    41   22   23 ar  
    42   22   40 1   
    43   24   25 ar  
    44   24   41 1   
    45   25   42 1   
@<TRIPOS>SUBSTRUCTURE
     1 2KR         1 TEMP              0 ****  ****    0 ROOT
