@<TRIPOS>MOLECULE
2KR
   43    46     1     0     0
SMALL
bcc


@<TRIPOS>ATOM
      1 C01         1.4150    2.6900    0.4890 c3        1 2KR      0.127700
      2 O02         2.4730    1.7170    0.4220 os        1 2KR     -0.408400
      3 C03         2.5460    0.8680    1.4980 cc        1 2KR      0.634100
      4 N04         1.8750    0.9420    2.6640 nd        1 2KR     -0.576100
      5 C05         2.3200   -0.1710    3.4090 ca        1 2KR      0.000100
      6 C06         1.9990   -0.6170    4.6950 ca        1 2KR     -0.035000
      7 C07         2.6420   -1.7650    5.1500 ca        1 2KR     -0.239300
      8 C08         3.5760   -2.4340    4.3270 ca        1 2KR      0.411200
      9 N09         3.9230   -2.0550    3.0840 nb        1 2KR     -0.667000
     10 C10         3.2940   -0.9410    2.6380 ca        1 2KR      0.400800
     11 N11         3.4270   -0.2650    1.3870 na        1 2KR     -0.224100
     12 C12         4.3180   -0.5630    0.3590 ca        1 2KR      0.114800
     13 C13         4.8470    0.4630   -0.4640 ca        1 2KR     -0.131500
     14 C14         5.7370    0.1690   -1.4870 ca        1 2KR     -0.076500
     15 C15         6.1200   -1.1630   -1.7160 ca        1 2KR     -0.092400
     16 N16         7.0500   -1.4790   -2.8040 n4        1 2KR     -0.600100
     17 C17         8.4450   -1.0780   -2.4910 ca        1 2KR      0.439200
     18 C18         9.2860   -1.9730   -1.8010 ca        1 2KR     -0.185300
     19 C19        10.5950   -1.5550   -1.5300 ca        1 2KR     -0.085000
     20 C20        11.0180   -0.2880   -1.9380 ca        1 2KR     -0.119600
     21 C21        12.3820    0.2080   -1.6700 c3        1 2KR     -0.075800
     22 C22        10.0840    0.5340   -2.6250 ca        1 2KR      0.423200
     23 N23         8.8290    0.1670   -2.9000 nb        1 2KR     -0.648000
     24 C24         5.6060   -2.1960   -0.9120 ca        1 2KR     -0.076500
     25 C25         4.7110   -1.9020    0.1050 ca        1 2KR     -0.131500
     26 H1          1.5850    3.3820    1.3490 h1        1 2KR      0.068700
     27 H2          0.4250    2.1810    0.5750 h1        1 2KR      0.068700
     28 H3          1.5170    3.2220   -0.4900 h1        1 2KR      0.068700
     29 H4          1.2700   -0.0750    5.3160 ha        1 2KR      0.169000
     30 H5          2.4280   -2.1600    6.1540 ha        1 2KR      0.161000
     31 H6          4.0870   -3.3450    4.6920 h4        1 2KR      0.035100
     32 H7          4.5560    1.5160   -0.3010 ha        1 2KR      0.189500
     33 H8          6.1400    0.9920   -2.1020 ha        1 2KR      0.159000
     34 H9          7.0430   -2.4910   -2.9760 hn        1 2KR      0.464800
     35 H10         8.9440   -2.9660   -1.4740 ha        1 2KR      0.165000
     36 H11        11.2820   -2.2300   -0.9940 ha        1 2KR      0.176000
     37 H12        12.8200    0.6730   -2.5900 hc        1 2KR      0.074367
     38 H13        13.0570   -0.6180   -1.3350 hc        1 2KR      0.074367
     39 H14        12.3540    0.9880   -0.8660 hc        1 2KR      0.074367
     40 H15        10.3710    1.5470   -2.9730 h4        1 2KR      0.060100
     41 H16         5.8920   -3.2480   -1.0780 ha        1 2KR      0.159000
     42 H17         4.3110   -2.7350    0.7100 ha        1 2KR      0.189500
     43 H162        6.7320   -0.9900   -3.6540 hn        1 2KR      0.464800
@<TRIPOS>BOND
     1    1    2 1   
     2    1   26 1   
     3    1   27 1   
     4    1   28 1   
     5    2    3 1   
     6    3    4 2   
     7    3   11 1   
     8    4    5 1   
     9    5    6 ar  
    10    5   10 ar  
    11    6    7 ar  
    12    6   29 1   
    13    7    8 ar  
    14    7   30 1   
    15    8    9 ar  
    16    8   31 1   
    17    9   10 ar  
    18   10   11 1   
    19   11   12 1   
    20   12   13 ar  
    21   12   25 ar  
    22   13   14 ar  
    23   13   32 1   
    24   14   15 ar  
    25   14   33 1   
    26   15   16 1   
    27   15   24 ar  
    28   16   17 1   
    29   16   34 1   
    30   16   43 1   
    31   17   18 ar  
    32   17   23 ar  
    33   18   19 ar  
    34   18   35 1   
    35   19   20 ar  
    36   19   36 1   
    37   20   21 1   
    38   20   22 ar  
    39   21   37 1   
    40   21   38 1   
    41   21   39 1   
    42   22   23 ar  
    43   22   40 1   
    44   24   25 ar  
    45   24   41 1   
    46   25   42 1   
@<TRIPOS>SUBSTRUCTURE
     1 2KR         1 TEMP              0 ****  ****    0 ROOT
