@<TRIPOS>MOLECULE
2KS
   52    50     1     0     0
SMALL
bcc


@<TRIPOS>ATOM
      1 C1          0.7610    0.0470    1.0530 c3        1 2KS     -0.062000
      2 C2          0.4520   -0.7260   -0.2550 c3        1 2KS      0.052000
      3 C3          2.2670    0.3010    1.1420 c3        1 2KS     -0.153000
      4 C11        -1.1230    0.4530   -3.3720 c2        1 2KS     -0.158000
      5 C12        -1.9150   -1.8930   -0.2080 c1        1 2KS     -0.196000
      6 C13         1.8870    2.4690    2.3570 c3        1 2KS      0.033000
      7 C14        -0.2670    0.2830   -2.4130 c1        1 2KS     -0.133000
      8 C17         3.3230    4.5700    5.0150 c3        1 2KS     -0.049000
      9 C18         4.5200    5.3280    5.1980 c1        1 2KS     -0.146000
     10 C19         5.5180    5.9700    5.3710 c1        1 2KS     -0.028000
     11 C20        -1.6480   -2.3800    6.5790 c1        1 2KS      0.174000
     12 C21         6.6440    6.6970    5.5670 c1        1 2KS     -0.075000
     13 C22        -0.6890   -2.6640    5.8830 c1        1 2KS     -0.300000
     14 C23         7.6390    7.3430    5.7410 c1        1 2KS     -0.146000
     15 C24         0.3660   -2.9820    5.0930 c2        1 2KS      0.271000
     16 C4          0.0260    1.3880    1.0650 c3        1 2KS     -0.153000
     17 C5          0.2760   -0.7820    2.2640 c3        1 2KS     -0.105000
     18 C6          0.6210    0.1320   -1.4700 c2        1 2KS     -0.146000
     19 C7         -0.8450   -1.3550   -0.2090 c1        1 2KS     -0.185000
     20 C8          2.6590    1.1530    2.3290 c3        1 2KS     -0.171500
     21 C9          0.3800    2.2470    2.2590 c3        1 2KS     -0.171500
     22 N10         0.7280   -2.1550    2.3520 n3        1 2KS     -0.368000
     23 O15         2.1010    3.1200    3.6120 os        1 2KS     -0.291000
     24 H1          2.5980    0.8230    0.2040 hc        1 2KS      0.094750
     25 H2          2.8220   -0.6730    1.1850 hc        1 2KS      0.094750
     26 H3         -1.1630   -0.2110   -4.2490 ha        1 2KS      0.144000
     27 H4         -2.8660   -2.3640   -0.2240 ha        1 2KS      0.231000
     28 H5          2.2290    3.1260    1.5100 h1        1 2KS      0.093000
     29 H6         -1.8570    1.2730   -3.3660 ha        1 2KS      0.144000
     30 H7          3.2310    4.7000    2.8280 h1        1 2KS      0.079000
     31 H8          3.2520    3.7680    5.8020 hc        1 2KS      0.113000
     32 H9          2.4230    5.2360    5.1370 hc        1 2KS      0.113000
     33 H10         4.1820    3.2720    3.4670 h1        1 2KS      0.079000
     34 H11        -2.4950   -2.1320    7.1910 ha        1 2KS      0.281000
     35 H12         1.6750   -1.0430    5.0170 ha        1 2KS      0.016500
     36 H13         1.7110   -1.3010    5.6480 ha        1 2KS      0.016500
     37 H14         1.2020   -3.5840    5.5040 ha        1 2KS      0.228000
     38 H15         8.5180    7.9160    5.8960 ha        1 2KS      0.235000
     39 H16         0.2830    1.9460    0.1240 hc        1 2KS      0.094750
     40 H17        -1.0810    1.2050    1.0520 hc        1 2KS      0.094750
     41 H18        -0.8520   -0.7860    2.2560 h1        1 2KS      0.100500
     42 H19         0.6130   -0.2600    3.2050 h1        1 2KS      0.100500
     43 H20         1.6030    0.6320   -1.5530 ha        1 2KS      0.145000
     44 H21         1.2270   -1.5530   -0.3460 hc        1 2KS      0.101000
     45 H22         2.4840    0.6030    3.2900 hc        1 2KS      0.090000
     46 H23         3.7580    1.3730    2.2760 hc        1 2KS      0.090000
     47 H24         0.0110    1.7810    3.2090 hc        1 2KS      0.090000
     48 H25        -0.1270    3.2430    2.1650 hc        1 2KS      0.090000
     49 H26         1.7160   -2.2130    2.1780 hn        1 2KS      0.168000
     50 H27         0.2590   -2.7210    1.6650 hn        1 2KS      0.168000
     51 C16         3.2830    3.9220    3.6340 c3        1 2KS     -0.019000
     52 H103        0.4030   -2.6850    3.9730 ha        1 2KS      0.228000
@<TRIPOS>BOND
     1    1    2 1   
     2    1    3 1   
     3    1   16 1   
     4    1   17 1   
     5    2   18 1   
     6    2   19 1   
     7    2   44 1   
     8    3   20 1   
     9    3   24 1   
    10    3   25 1   
    11    4    7 1   
    12    4   26 1   
    13    4   29 1   
    14    5   19 1   
    15    5   27 1   
    16    6   20 1   
    17    6   21 1   
    18    6   23 1   
    19    6   28 1   
    20    7   18 1   
    21    8    9 1   
    22    8   31 1   
    23    8   32 1   
    24    8   51 1   
    25    9   10 1   
    26   10   12 1   
    27   11   13 1   
    28   11   34 1   
    29   12   14 1   
    30   13   15 1   
    31   14   38 1   
    32   15   37 1   
    33   15   52 1   
    34   16   21 1   
    35   16   39 1   
    36   16   40 1   
    37   17   22 1   
    38   17   41 1   
    39   17   42 1   
    40   18   43 1   
    41   20   45 1   
    42   20   46 1   
    43   21   47 1   
    44   21   48 1   
    45   22   49 1   
    46   22   50 1   
    47   23   51 1   
    48   30   51 1   
    49   33   51 1   
    50   35   36 1   
@<TRIPOS>SUBSTRUCTURE
     1 2KS         1 TEMP              0 ****  ****    0 ROOT
