@<TRIPOS>MOLECULE
2KT
   12    11     1     0     0
SMALL
bcc


@<TRIPOS>ATOM
      1 C4          0.0140    0.0460   -0.0300 c3        1 2KT     -0.078100
      2 C3          1.5050    0.1570    0.1310 c3        1 2KT     -0.199400
      3 C2          2.0040   -0.2090    1.5070 c         1 2KT      0.469100
      4 O3          1.2340   -0.5670    2.4060 o         1 2KT     -0.594100
      5 C1          3.5280   -0.0890    1.6530 c         1 2KT      0.853600
      6 O1          3.9840    1.0290    2.0120 o         1 2KT     -0.818300
      7 O2          4.2140   -1.1050    1.3610 o         1 2KT     -0.818300
      8 H41        -0.2940    0.3290   -1.0650 hc        1 2KT      0.021367
      9 H42        -0.5060    0.7160    0.6960 hc        1 2KT      0.021367
     10 H43        -0.3210   -1.0010    0.1710 hc        1 2KT      0.021367
     11 H31         2.0290   -0.5140   -0.6010 hc        1 2KT      0.060700
     12 H32         1.8430    1.2080   -0.0750 hc        1 2KT      0.060700
@<TRIPOS>BOND
     1    1    2 1   
     2    1    8 1   
     3    1    9 1   
     4    1   10 1   
     5    2    3 1   
     6    2   11 1   
     7    2   12 1   
     8    3    4 2   
     9    3    5 1   
    10    5    6 1   
    11    5    7 1   
@<TRIPOS>SUBSTRUCTURE
     1 2KT         1 TEMP              0 ****  ****    0 ROOT
