@<TRIPOS>MOLECULE
2KT
   12    11     1     0     0
SMALL
bcc


@<TRIPOS>ATOM
      1 C4         -1.5230    0.2180   -0.7100 c3        1 2KT     -0.078100
      2 C3         -0.0100    0.2180   -0.7100 c3        1 2KT     -0.199400
      3 C2          0.4940    0.2180    0.7160 c         1 2KT      0.469100
      4 O3         -0.0480    0.9130    1.5520 o         1 2KT     -0.594100
      5 C1          1.6740   -0.6470    1.1010 c         1 2KT      0.853600
      6 O1          2.8470   -0.2170    0.9460 o         1 2KT     -0.818300
      7 O2          1.4820   -1.7970    1.5770 o         1 2KT     -0.818300
      8 H41        -1.8490   -0.5140   -0.1540 hc        1 2KT      0.021367
      9 H42        -1.8480    0.1030   -1.6230 hc        1 2KT      0.021367
     10 H43        -1.8490    1.0670   -0.3540 hc        1 2KT      0.021367
     11 H31         0.3150   -0.5790   -1.1700 hc        1 2KT      0.060700
     12 H32         0.3150    1.0150   -1.1700 hc        1 2KT      0.060700
@<TRIPOS>BOND
     1    1    2 1   
     2    1    8 1   
     3    1    9 1   
     4    1   10 1   
     5    2    3 1   
     6    2   11 1   
     7    2   12 1   
     8    3    4 2   
     9    3    5 1   
    10    5    6 1   
    11    5    7 1   
@<TRIPOS>SUBSTRUCTURE
     1 2KT         1 TEMP              0 ****  ****    0 ROOT
