@<TRIPOS>MOLECULE
2KT
   12    11     1     0     0
SMALL
bcc


@<TRIPOS>ATOM
      1 C4          0.0200    0.0210   -0.0440 c3        1 2KT     -0.078100
      2 C3          1.5050    0.1760    0.1370 c3        1 2KT     -0.199400
      3 C2          2.0030   -0.2290    1.5020 c         1 2KT      0.469100
      4 O3          1.2380   -0.6490    2.3780 o         1 2KT     -0.594100
      5 C1          3.5210   -0.0640    1.6690 c         1 2KT      0.853600
      6 O1          3.9360    1.0540    2.0780 o         1 2KT     -0.818300
      7 O2          4.2450   -1.0430    1.3430 o         1 2KT     -0.818300
      8 H41        -0.2890    0.3350   -1.0700 hc        1 2KT      0.021367
      9 H42        -0.5290    0.6450    0.7030 hc        1 2KT      0.021367
     10 H43        -0.2810   -1.0430    0.1130 hc        1 2KT      0.021367
     11 H31         2.0570   -0.4470   -0.6160 hc        1 2KT      0.060700
     12 H32         1.8090    1.2440   -0.0230 hc        1 2KT      0.060700
@<TRIPOS>BOND
     1    1    2 1   
     2    1    8 1   
     3    1    9 1   
     4    1   10 1   
     5    2    3 1   
     6    2   11 1   
     7    2   12 1   
     8    3    4 2   
     9    3    5 1   
    10    5    6 1   
    11    5    7 1   
@<TRIPOS>SUBSTRUCTURE
     1 2KT         1 TEMP              0 ****  ****    0 ROOT
