@<TRIPOS>MOLECULE
2KT
   12    11     1     0     0
SMALL
bcc


@<TRIPOS>ATOM
      1 C4          2.7400    0.1480    0.0480 c3        1 2KT     -0.078100
      2 C3          1.3370    0.6800    0.1480 c3        1 2KT     -0.199400
      3 C2          0.2710   -0.3290   -0.1980 c         1 2KT      0.469100
      4 O3          0.5500   -1.4860   -0.5330 o         1 2KT     -0.594100
      5 C1         -1.1560    0.2310   -0.0900 c         1 2KT      0.853600
      6 O1         -1.7250    0.1390    1.0300 o         1 2KT     -0.818300
      7 O2         -1.6360    0.7820   -1.1160 o         1 2KT     -0.818300
      8 H41         2.8750   -0.7220    0.7360 hc        1 2KT      0.021367
      9 H42         2.9470   -0.2040   -0.9920 hc        1 2KT      0.021367
     10 H43         3.4820    0.9370    0.3150 hc        1 2KT      0.021367
     11 H31         1.1280    1.0370    1.1920 hc        1 2KT      0.060700
     12 H32         1.2000    1.5560   -0.5400 hc        1 2KT      0.060700
@<TRIPOS>BOND
     1    1    2 1   
     2    1    8 1   
     3    1    9 1   
     4    1   10 1   
     5    2    3 1   
     6    2   11 1   
     7    2   12 1   
     8    3    4 2   
     9    3    5 1   
    10    5    6 1   
    11    5    7 1   
@<TRIPOS>SUBSTRUCTURE
     1 2KT         1 TEMP              0 ****  ****    0 ROOT
