@<TRIPOS>MOLECULE
2KU
   29    30     1     0     0
SMALL
bcc


@<TRIPOS>ATOM
      1 C15         0.2410   -0.6150    0.0000 c3        1 2KU      0.112700
      2 C13         2.1830   -0.2600    1.3070 c3        1 2KU      0.136400
      3 C12         3.4690    0.5570    1.2560 c3        1 2KU     -0.123400
      4 C11         4.2910    0.2640    2.5010 c3        1 2KU      0.111800
      5 N1          6.0050    1.1070    4.9170 nb        1 2KU     -0.683000
      6 C2          6.8180    0.7870    5.9660 ca        1 2KU      0.673900
      7 N3          8.0000    0.1190    5.9520 nb        1 2KU     -0.616000
      8 C4          8.3960   -0.2670    4.7130 ca        1 2KU      0.453800
      9 C5          7.6120    0.0110    3.4870 ca        1 2KU     -0.139200
     10 C6          6.4090    0.7170    3.6820 ca        1 2KU      0.539200
     11 N10         5.5700    1.0490    2.5120 n4        1 2KU     -0.744700
     12 N7          8.2770   -0.5090    2.3720 nc        1 2KU     -0.580100
     13 C8          9.3970   -1.0710    2.8660 cd        1 2KU      0.502700
     14 N9          9.5250   -0.9600    4.2630 na        1 2KU     -0.359000
     15 O12         1.4880    0.0600    0.1080 os        1 2KU     -0.418600
     16 H151       -0.1710   -0.2610   -0.9790 h1        1 2KU      0.048700
     17 H152        0.3950   -1.7210   -0.0120 h1        1 2KU      0.048700
     18 H153       -0.4350   -0.3260    0.8420 h1        1 2KU      0.048700
     19 H131        2.4060   -1.3600    1.3390 h1        1 2KU      0.040700
     20 H132        1.5620    0.0210    2.1990 h1        1 2KU      0.040700
     21 H121        4.0310    0.2880    0.3230 hc        1 2KU      0.082200
     22 H122        3.2010    1.6460    1.1920 hc        1 2KU      0.082200
     23 H111        3.7100    0.5340    3.4300 hx        1 2KU      0.115200
     24 H112        4.5610   -0.8300    2.5460 hx        1 2KU      0.115200
     25 H10         6.1050    0.8440    1.6560 hn        1 2KU      0.472800
     26 H9         10.2660   -1.2970    4.8310 hn        1 2KU      0.352700
     27 H8         10.1640   -1.5800    2.2570 h5        1 2KU      0.110800
     28 H102        5.3460    2.0540    2.5270 hn        1 2KU      0.472800
     29 H2          6.4580    1.1240    6.9670 h5        1 2KU      0.100100
@<TRIPOS>BOND
     1    1   15 1   
     2    1   16 1   
     3    1   17 1   
     4    1   18 1   
     5    2    3 1   
     6    2   15 1   
     7    2   19 1   
     8    2   20 1   
     9    3    4 1   
    10    3   21 1   
    11    3   22 1   
    12    4   11 1   
    13    4   23 1   
    14    4   24 1   
    15    5    6 ar  
    16    5   10 ar  
    17    6    7 ar  
    18    6   29 1   
    19    7    8 ar  
    20    8    9 ar  
    21    8   14 1   
    22    9   10 ar  
    23    9   12 1   
    24   10   11 1   
    25   11   25 1   
    26   11   28 1   
    27   12   13 2   
    28   13   14 1   
    29   13   27 1   
    30   14   26 1   
@<TRIPOS>SUBSTRUCTURE
     1 2KU         1 TEMP              0 ****  ****    0 ROOT
