@<TRIPOS>MOLECULE
2KU
   28    29     1     0     0
SMALL
bcc


@<TRIPOS>ATOM
      1 C15         0.0370   -0.0010   -0.0150 c3        1 2KU      0.116700
      2 C13         1.9900   -0.0000    1.3180 c3        1 2KU      0.131400
      3 C12         3.5010    0.0010    1.1670 c3        1 2KU     -0.102400
      4 C11         4.1400    0.0000    2.5540 c3        1 2KU      0.222800
      5 N1          5.8080   -0.0000    4.8940 nb        1 2KU     -0.796000
      6 C2          6.6610   -0.0010    5.9540 ca        1 2KU      0.687900
      7 N3          8.0130   -0.0010    5.9910 nb        1 2KU     -0.737000
      8 C4          8.5680   -0.0000    4.7400 ca        1 2KU      0.454800
      9 C5          7.7900    0.0010    3.5060 ca        1 2KU     -0.234200
     10 C6          6.3570    0.0010    3.6340 ca        1 2KU      0.766200
     11 N10         5.5770    0.0020    2.5050 nu        1 2KU     -0.864900
     12 N7          8.6510    0.0010    2.3990 nc        1 2KU     -0.542100
     13 C8          9.8880    0.0010    2.9200 cd        1 2KU      0.397700
     14 N9          9.9060    0.0000    4.3320 na        1 2KU     -0.379000
     15 O12         1.4540   -0.0010   -0.0040 os        1 2KU     -0.422600
     16 H151       -0.3610   -0.9160    0.4890 h1        1 2KU      0.034033
     17 H152       -0.2330   -0.0010   -1.1010 h1        1 2KU      0.034033
     18 H153       -0.3610    0.9150    0.4880 h1        1 2KU      0.034033
     19 H131        1.6390    0.9140    1.8670 h1        1 2KU      0.030700
     20 H132        1.6390   -0.9150    1.8670 h1        1 2KU      0.030700
     21 H121        3.8150   -0.9030    0.5820 hc        1 2KU      0.062700
     22 H122        3.8140    0.9050    0.5830 hc        1 2KU      0.062700
     23 H111        3.7890   -0.9100    3.1240 h1        1 2KU      0.053700
     24 H112        3.7880    0.9090    3.1250 h1        1 2KU      0.053700
     25 H10         6.0320    0.0010    1.6220 hn        1 2KU      0.459800
     26 H9         10.6950   -0.0000    4.9220 hn        1 2KU      0.317700
     27 H8         10.8190    0.0010    2.3400 h5        1 2KU      0.072800
     28 H2          6.1600   -0.0010    6.9470 h5        1 2KU      0.051100
@<TRIPOS>BOND
     1    1   15 1   
     2    1   16 1   
     3    1   17 1   
     4    1   18 1   
     5    2    3 1   
     6    2   15 1   
     7    2   19 1   
     8    2   20 1   
     9    3    4 1   
    10    3   21 1   
    11    3   22 1   
    12    4   11 1   
    13    4   23 1   
    14    4   24 1   
    15    5    6 ar  
    16    5   10 ar  
    17    6    7 ar  
    18    6   28 1   
    19    7    8 ar  
    20    8    9 ar  
    21    8   14 1   
    22    9   10 ar  
    23    9   12 1   
    24   10   11 1   
    25   11   25 1   
    26   12   13 2   
    27   13   14 1   
    28   13   27 1   
    29   14   26 1   
@<TRIPOS>SUBSTRUCTURE
     1 2KU         1 TEMP              0 ****  ****    0 ROOT
