@<TRIPOS>MOLECULE
2KU
   28    29     1     0     0
SMALL
bcc


@<TRIPOS>ATOM
      1 C15         6.4580   -0.0040    0.0000 c3        1 2KU      0.116700
      2 C13         4.1100    0.2740   -0.0000 c3        1 2KU      0.131400
      3 C12         2.8400   -0.5590    0.0000 c3        1 2KU     -0.102400
      4 C11         1.6330    0.3760   -0.0000 c3        1 2KU      0.222800
      5 N1         -0.9290    1.6790   -0.0010 nb        1 2KU     -0.796000
      6 C2         -2.1750    2.2240   -0.0010 ca        1 2KU      0.687900
      7 N3         -3.3910    1.6310   -0.0010 nb        1 2KU     -0.737000
      8 C4         -3.3040    0.2660    0.0000 ca        1 2KU      0.454800
      9 C5         -2.0440   -0.4690    0.0000 ca        1 2KU     -0.234200
     10 C6         -0.8330    0.3070   -0.0000 ca        1 2KU      0.766200
     11 N10         0.3810   -0.3330   -0.0000 nh        1 2KU     -0.864900
     12 N7         -2.2950   -1.8480    0.0010 nc        1 2KU     -0.542100
     13 C8         -3.6330   -1.9590    0.0010 cd        1 2KU      0.397700
     14 N9         -4.3020   -0.7150    0.0010 na        1 2KU     -0.379000
     15 O12         5.1970   -0.6500    0.0000 os        1 2KU     -0.422600
     16 H151        6.5790    0.6270    0.9150 h1        1 2KU      0.034033
     17 H152        7.2000   -0.8420    0.0000 h1        1 2KU      0.034033
     18 H153        6.5790    0.6260   -0.9150 h1        1 2KU      0.034033
     19 H131        4.1680    0.9230   -0.9140 h1        1 2KU      0.030700
     20 H132        4.1680    0.9230    0.9140 h1        1 2KU      0.030700
     21 H121        2.8330   -1.2220   -0.9040 hc        1 2KU      0.062700
     22 H122        2.8330   -1.2220    0.9040 hc        1 2KU      0.062700
     23 H111        1.6800    1.0440    0.9090 h1        1 2KU      0.053700
     24 H112        1.6800    1.0440   -0.9100 h1        1 2KU      0.053700
     25 H10         0.3870   -1.3260    0.0010 hn        1 2KU      0.459800
     26 H9         -5.2740   -0.5570    0.0010 hn        1 2KU      0.317700
     27 H8         -4.1900   -2.9030    0.0020 h5        1 2KU      0.072800
     28 H2         -2.1900    3.3360   -0.0010 h5        1 2KU      0.051100
@<TRIPOS>BOND
     1    1   15 1   
     2    1   16 1   
     3    1   17 1   
     4    1   18 1   
     5    2    3 1   
     6    2   15 1   
     7    2   19 1   
     8    2   20 1   
     9    3    4 1   
    10    3   21 1   
    11    3   22 1   
    12    4   11 1   
    13    4   23 1   
    14    4   24 1   
    15    5    6 ar  
    16    5   10 ar  
    17    6    7 ar  
    18    6   28 1   
    19    7    8 ar  
    20    8    9 ar  
    21    8   14 1   
    22    9   10 ar  
    23    9   12 1   
    24   10   11 1   
    25   11   25 1   
    26   12   13 2   
    27   13   14 1   
    28   13   27 1   
    29   14   26 1   
@<TRIPOS>SUBSTRUCTURE
     1 2KU         1 TEMP              0 ****  ****    0 ROOT
