@<TRIPOS>MOLECULE
2KU
   28    22     1     0     0
SMALL
bcc


@<TRIPOS>ATOM
      1 C15        -4.8870    0.1900   -2.6560 c3        1 2KU     -0.073000
      2 C13        -2.8550    0.3430   -1.4060 c3        1 2KU     -0.019000
      3 C12        -1.3430    0.3820   -1.5440 c3        1 2KU     -0.181000
      4 C11        -0.7070    0.4960   -0.1580 c3        1 2KU     -0.014000
      5 N1          1.2020    1.0980    1.9420 n1        1 2KU     -0.270000
      6 C2          1.9570    1.1860    3.0660 c1        1 2KU      0.025000
      7 N3          3.0650    0.3950    3.2120 n1        1 2KU     -0.211000
      8 C4          3.4100   -0.4760    2.2350 c1        1 2KU      0.063000
      9 C5          2.6580   -0.5650    1.1130 c1        1 2KU     -0.243000
     10 C6          1.5390    0.2350    0.9690 c1        1 2KU      0.245000
     11 N10         0.7010    0.2870   -0.2620 n3        1 2KU     -0.309000
     12 N7          3.2160   -1.5000    0.3090 n1        1 2KU     -0.171000
     13 C8          4.3060   -1.9860    0.9300 c1        1 2KU     -0.058000
     14 N9          4.4270   -1.3510    2.1240 n1        1 2KU     -0.171000
     15 O12        -3.4410    0.1790   -2.6750 os        1 2KU     -0.279000
     16 H151       -5.2270    0.2260   -3.5760 h1        1 2KU      0.073333
     17 H152       -5.2040    0.9840   -2.1560 h1        1 2KU      0.073333
     18 H153       -5.2170   -0.6290   -2.2150 h1        1 2KU      0.073333
     19 H131       -3.1660    1.1720   -1.0110 h1        1 2KU      0.070000
     20 H132       -3.1100   -0.4080   -0.8310 h1        1 2KU      0.070000
     21 H121       -1.0310   -0.4370   -1.9790 hc        1 2KU      0.102000
     22 H122       -1.0830    1.1630   -2.0900 hc        1 2KU      0.102000
     23 H111       -0.8760    1.3840    0.2020 h1        1 2KU      0.093000
     24 H112       -1.0890   -0.1720    0.4320 h1        1 2KU      0.093000
     25 H10         1.0920    0.1670   -1.0960 hn        1 2KU      0.255000
     26 H2          1.7080    1.8210    3.7810 ha        1 2KU      0.188000
     27 H9          5.0780   -1.4920    2.7390 DU        1 2KU      0.235000
     28 H8          4.8780   -2.6920    0.6030 DU        1 2KU      0.235000
@<TRIPOS>BOND
     1    1   15 1   
     2    1   16 1   
     3    1   17 1   
     4    1   18 1   
     5    2    3 1   
     6    2   15 1   
     7    2   19 1   
     8    2   20 1   
     9    3    4 1   
    10    3   21 1   
    11    3   22 1   
    12    4   11 1   
    13    4   23 1   
    14    4   24 1   
    15    5    6 1   
    16    6   26 1   
    17    7    8 1   
    18    9   10 1   
    19   10   11 1   
    20   11   25 1   
    21   12   13 1   
    22   13   14 1   
@<TRIPOS>SUBSTRUCTURE
     1 2KU         1 TEMP              0 ****  ****    0 ROOT
