@<TRIPOS>MOLECULE
2KV
   48    48     1     0     0
SMALL
bcc


@<TRIPOS>ATOM
      1 C2          0.0070    0.4990    0.1130 c         1 2KV      0.733500
      2 C3         -5.5100   -0.8180   -0.3580 c3        1 2KV     -0.007700
      3 C11        -3.8980   -0.6920    1.7060 c3        1 2KV     -0.012300
      4 C12        -7.3250    0.8150   -3.2850 ca        1 2KV      0.024400
      5 C13         1.6020    0.1060    1.9640 c3        1 2KV      0.086000
      6 C16        -4.2340   -1.1550   -1.1570 c3        1 2KV      0.100800
      7 C17         1.0300    1.2970   -0.6630 c3        1 2KV     -0.144400
      8 C18        -7.1880    1.0770   -0.5180 ca        1 2KV     -0.119000
      9 C19        -8.0240    1.9110   -1.2620 ca        1 2KV     -0.102000
     10 C20        -8.0940    1.7950   -2.6470 ca        1 2KV     -0.105000
     11 C21         2.7080    0.6320    1.0530 c3        1 2KV     -0.097400
     12 C22         2.1980    1.7570    0.1810 c3        1 2KV     -0.085400
     13 N1          0.3320   -0.0770    1.3060 ns        1 2KV     -0.537900
     14 C4         -6.3980    0.1110   -1.1530 ca        1 2KV     -0.117300
     15 C5         -3.8930   -2.0910    2.0070 c1        1 2KV     -0.186100
     16 O6         -1.1580    0.3280   -0.3490 o         1 2KV     -0.816500
     17 C7         -6.4920   -0.0290   -2.5450 ca        1 2KV     -0.174000
     18 C8         -6.2610   -2.1310   -0.1480 c3        1 2KV     -0.096100
     19 C9         -5.1430   -0.1890    0.9930 c3        1 2KV     -0.089400
     20 C10        -3.8600   -3.2510    2.3030 c1        1 2KV     -0.107500
     21 N15        -3.5110    0.0610   -1.6110 nz        1 2KV     -0.826600
     22 H1         -2.9680   -0.4300    1.1210 hc        1 2KV      0.068200
     23 H2         -3.8260   -0.1220    2.6810 hc        1 2KV      0.068200
     24 H3          1.4570    0.8280    2.8220 h1        1 2KV      0.057700
     25 H4          1.9190   -0.8850    2.3990 h1        1 2KV      0.057700
     26 H5         -3.5320   -1.7600   -0.5100 hx        1 2KV      0.111700
     27 H6         -4.4890   -1.7740   -2.0640 hx        1 2KV      0.111700
     28 H7          1.3930    0.6380   -1.4980 hc        1 2KV      0.081700
     29 H8          0.5110    2.1780   -1.1220 hc        1 2KV      0.081700
     30 H9         -7.1810    1.1830    0.5780 ha        1 2KV      0.149000
     31 H10        -8.6420    2.6640   -0.7450 ha        1 2KV      0.159000
     32 H11        -8.7550    2.4560   -3.2320 ha        1 2KV      0.169000
     33 H12         3.1020   -0.1990    0.4110 hc        1 2KV      0.068200
     34 H13         3.5520    0.9930    1.6970 hc        1 2KV      0.068200
     35 H14         3.0190    2.1220   -0.4900 hc        1 2KV      0.064200
     36 H15         1.8850    2.6210    0.8250 hc        1 2KV      0.064200
     37 H16        -0.3600   -0.6000    1.7930 hn        1 2KV      0.325500
     38 H17        -5.9590   -0.8360   -3.0710 ha        1 2KV      0.136000
     39 H18        -6.5320   -2.5850   -1.1320 hc        1 2KV      0.062367
     40 H19        -5.6340   -2.8520    0.4310 hc        1 2KV      0.062367
     41 H20        -6.0210   -0.3310    1.6820 hc        1 2KV      0.064200
     42 H21        -5.0050    0.9190    0.8510 hc        1 2KV      0.064200
     43 H22        -7.2030   -1.9380    0.4220 hc        1 2KV      0.062367
     44 H23        -3.8360   -4.2790    2.5700 ha        1 2KV      0.180500
     45 H24        -3.2940    0.6550   -0.7970 hn        1 2KV      0.466467
     46 H25        -2.6140   -0.1960   -2.0400 hn        1 2KV      0.466467
     47 H153       -4.0880    0.5890   -2.2720 hn        1 2KV      0.466467
     48 Cl1        -7.4050    0.6380   -4.9690 cl        1 2KV     -0.056400
@<TRIPOS>BOND
     1    1    7 1   
     2    1   13 1   
     3    1   16 2   
     4    2    6 1   
     5    2   14 1   
     6    2   18 1   
     7    2   19 1   
     8    3   15 1   
     9    3   19 1   
    10    3   22 1   
    11    3   23 1   
    12    4   10 ar  
    13    4   17 ar  
    14    4   48 1   
    15    5   11 1   
    16    5   13 1   
    17    5   24 1   
    18    5   25 1   
    19    6   21 1   
    20    6   26 1   
    21    6   27 1   
    22    7   12 1   
    23    7   28 1   
    24    7   29 1   
    25    8    9 ar  
    26    8   14 ar  
    27    8   30 1   
    28    9   10 ar  
    29    9   31 1   
    30   10   32 1   
    31   11   12 1   
    32   11   33 1   
    33   11   34 1   
    34   12   35 1   
    35   12   36 1   
    36   13   37 1   
    37   14   17 ar  
    38   15   20 3   
    39   17   38 1   
    40   18   39 1   
    41   18   40 1   
    42   18   43 1   
    43   19   41 1   
    44   19   42 1   
    45   20   44 1   
    46   21   45 1   
    47   21   46 1   
    48   21   47 1   
@<TRIPOS>SUBSTRUCTURE
     1 2KV         1 TEMP              0 ****  ****    0 ROOT
