@<TRIPOS>MOLECULE
2KV
   48    49     1     0     0
SMALL
bcc


@<TRIPOS>ATOM
      1 C2         -0.4110   -0.1790   -0.4640 c         1 2KV      0.725500
      2 C3         -4.7910    1.2660   -0.1720 c3        1 2KV     -0.015700
      3 C11        -1.5850    1.6180    1.8770 c2        1 2KV     -0.213000
      4 C12        -6.2360   -1.7720   -1.9790 ca        1 2KV      0.023400
      5 C13        -0.4030   -1.4210    1.6870 c3        1 2KV      0.091000
      6 C16        -3.4680    1.2920   -0.9440 c3        1 2KV      0.098800
      7 C17         0.7560   -1.0030   -0.9690 c3        1 2KV     -0.143400
      8 C18        -7.1350    0.4500   -0.5710 ca        1 2KV     -0.119000
      9 C19        -8.0490   -0.4640   -1.0940 ca        1 2KV     -0.101000
     10 C20        -7.6100   -1.5770   -1.8070 ca        1 2KV     -0.103000
     11 C21         0.5080   -2.4500    1.0300 c3        1 2KV     -0.095400
     12 C22         1.4900   -1.7680    0.1060 c3        1 2KV     -0.086400
     13 N1         -0.9790   -0.4520    0.7680 n         1 2KV     -0.400000
     14 C4         -5.7570    0.2680   -0.7530 ca        1 2KV     -0.111300
     15 C5         -1.9430    0.4240    1.3680 c2        1 2KV     -0.013600
     16 O6         -0.9060    0.7010   -1.2160 o         1 2KV     -0.752500
     17 C7         -5.3130   -0.8630   -1.4500 ca        1 2KV     -0.170000
     18 C8         -4.4520    0.9070    1.2900 c3        1 2KV     -0.069400
     19 C9         -5.3920    2.6710   -0.1930 c3        1 2KV     -0.115100
     20 C10        -3.3490   -0.1130    1.4970 c3        1 2KV     -0.059200
     21 N15        -3.5710    1.6680   -2.3770 n4        1 2KV     -0.826600
     22 H1         -2.3040    2.2740    2.3840 ha        1 2KV      0.137000
     23 H2         -4.5950    3.4390   -0.0390 hc        1 2KV      0.054367
     24 H3          0.1810   -0.8640    2.4780 h1        1 2KV      0.056200
     25 H4         -1.2580   -1.9520    2.1980 h1        1 2KV      0.056200
     26 H5         -2.9910    0.2670   -0.9230 hx        1 2KV      0.129700
     27 H6         -2.7480    2.0130   -0.4500 hx        1 2KV      0.129700
     28 H7          1.4570   -0.3020   -1.4970 hc        1 2KV      0.085700
     29 H8          0.3440   -1.7130   -1.7360 hc        1 2KV      0.085700
     30 H9         -7.5140    1.3130   -0.0010 ha        1 2KV      0.148000
     31 H10        -9.1290   -0.3070   -0.9380 ha        1 2KV      0.160000
     32 H11        -8.3340   -2.2970   -2.2210 ha        1 2KV      0.169000
     33 H12         1.0530   -3.0020    1.8400 hc        1 2KV      0.066700
     34 H13        -0.1000   -3.1990    0.4590 hc        1 2KV      0.066700
     35 H14         2.1440   -1.0710    0.6950 hc        1 2KV      0.065200
     36 H15         2.1620   -2.5290   -0.3720 hc        1 2KV      0.065200
     37 H16        -0.5590    2.0080    1.8290 ha        1 2KV      0.137000
     38 H17        -4.2420   -1.0880   -1.5590 ha        1 2KV      0.135000
     39 H18        -5.3920    0.5030    1.7560 hc        1 2KV      0.069200
     40 H19        -4.1970    1.8550    1.8340 hc        1 2KV      0.069200
     41 H20        -5.9130    2.8720   -1.1600 hc        1 2KV      0.054367
     42 H21        -6.1370    2.7880    0.6330 hc        1 2KV      0.054367
     43 H22        -3.4480   -0.5180    2.5440 hc        1 2KV      0.071200
     44 H23        -3.5170   -0.9810    0.8030 hc        1 2KV      0.071200
     45 H24        -2.6290    1.6080   -2.7880 hn        1 2KV      0.460133
     46 H25        -3.9320    2.6200   -2.4740 hn        1 2KV      0.460133
     47 H153       -4.2040    1.0210   -2.8600 hn        1 2KV      0.460133
     48 CL1        -5.6720   -3.1250   -2.8310 cl        1 2KV     -0.059400
@<TRIPOS>BOND
     1    1    7 1   
     2    1   13 1   
     3    1   16 2   
     4    2    6 1   
     5    2   14 1   
     6    2   18 1   
     7    2   19 1   
     8    3   15 2   
     9    3   22 1   
    10    3   37 1   
    11    4   10 ar  
    12    4   17 ar  
    13    4   48 1   
    14    5   11 1   
    15    5   13 1   
    16    5   24 1   
    17    5   25 1   
    18    6   21 1   
    19    6   26 1   
    20    6   27 1   
    21    7   12 1   
    22    7   28 1   
    23    7   29 1   
    24    8    9 ar  
    25    8   14 ar  
    26    8   30 1   
    27    9   10 ar  
    28    9   31 1   
    29   10   32 1   
    30   11   12 1   
    31   11   33 1   
    32   11   34 1   
    33   12   35 1   
    34   12   36 1   
    35   13   15 1   
    36   14   17 ar  
    37   15   20 1   
    38   17   38 1   
    39   18   20 1   
    40   18   39 1   
    41   18   40 1   
    42   19   23 1   
    43   19   41 1   
    44   19   42 1   
    45   20   43 1   
    46   20   44 1   
    47   21   45 1   
    48   21   46 1   
    49   21   47 1   
@<TRIPOS>SUBSTRUCTURE
     1 2KV         1 TEMP              0 ****  ****    0 ROOT
