@<TRIPOS>MOLECULE
2KV
   48    47     1     0     0
SMALL
bcc


@<TRIPOS>ATOM
      1 C2         -0.3140    0.4510    0.2680 c         1 2KV      0.732500
      2 C3         -5.8010    1.3140   -0.1310 ce        1 2KV     -0.122400
      3 C11        -2.4910   -2.2570    2.6490 c2        1 2KV     -0.271100
      4 C12        -5.7860    0.4640   -3.8000 ca        1 2KV      0.023400
      5 C13         2.1020    0.0780    0.6560 c3        1 2KV      0.086000
      6 C16        -5.5740   -0.0200    0.5160 c3        1 2KV      0.148000
      7 C17        -0.0310    1.5500   -0.7320 c3        1 2KV     -0.144400
      8 C18        -7.1500    2.1390   -2.0390 ca        1 2KV     -0.104000
      9 C19        -7.4750    2.1350   -3.3950 ca        1 2KV     -0.105000
     10 C20        -6.7980    1.3020   -4.2830 ca        1 2KV     -0.098000
     11 C21         2.3810    0.9540   -0.5630 c3        1 2KV     -0.097400
     12 C22         1.3820    2.0850   -0.6520 c3        1 2KV     -0.085400
     13 N1          0.7090   -0.2410    0.8480 n         1 2KV     -0.536900
     14 C4         -6.1380    1.3000   -1.5540 ca        1 2KV     -0.073800
     15 C5         -3.2340   -3.1860    2.1280 c1        1 2KV     -0.078800
     16 O6         -1.5040    0.1370    0.5570 o         1 2KV     -0.813500
     17 C7         -5.4550    0.4580   -2.4430 ca        1 2KV     -0.134000
     18 C8         -5.3180   -4.0020    1.0900 c3        1 2KV     -0.060900
     19 C9         -5.7370    2.4400    0.5910 c2        1 2KV     -0.141000
     20 C10        -3.9540   -4.1560    1.6360 c2        1 2KV     -0.168300
     21 N15        -4.1300   -0.2930    0.7510 n4        1 2KV     -0.840600
     22 H1         -1.7690   -1.6690    2.0550 ha        1 2KV      0.144000
     23 H2         -2.5110   -2.0280    3.7270 ha        1 2KV      0.144000
     24 H3          2.6740   -0.8900    0.5560 h1        1 2KV      0.057700
     25 H4          2.4780    0.6050    1.5820 h1        1 2KV      0.057700
     26 H5         -6.0960   -0.0610    1.5170 hx        1 2KV      0.109200
     27 H6         -5.9810   -0.8490   -0.1340 hx        1 2KV      0.109200
     28 H7         -0.2250    1.1210   -1.7520 hc        1 2KV      0.080700
     29 H8         -0.7700    2.3760   -0.5610 hc        1 2KV      0.080700
     30 H9         -7.6960    2.7980   -1.3460 ha        1 2KV      0.147000
     31 H10        -8.2740    2.7960   -3.7680 ha        1 2KV      0.158000
     32 H11        -7.0570    1.3020   -5.3540 ha        1 2KV      0.167000
     33 H12         3.4210    1.3620   -0.4720 hc        1 2KV      0.067700
     34 H13         2.3400    0.3340   -1.4960 hc        1 2KV      0.067700
     35 H14         1.4860    2.7520    0.2440 hc        1 2KV      0.063700
     36 H15         1.5930    2.7100   -1.5600 hc        1 2KV      0.063700
     37 H16         0.4940   -0.9600    1.5010 hn        1 2KV      0.325500
     38 H17        -4.6520   -0.2020   -2.0860 ha        1 2KV      0.118000
     39 H18        -5.6390   -2.9310    1.0490 hc        1 2KV      0.046700
     40 H19        -5.3690   -4.4280    0.0560 hc        1 2KV      0.046700
     41 H20        -5.5090    2.4460    1.6660 ha        1 2KV      0.140000
     42 H21        -5.9220    3.4300    0.1460 ha        1 2KV      0.140000
     43 H22        -3.5470   -5.1860    1.6160 ha        1 2KV      0.167000
     44 H23        -6.0460   -4.5610    1.7320 hc        1 2KV      0.046700
     45 H24        -3.6980    0.4440    1.3210 hn        1 2KV      0.467467
     46 H25        -3.9990   -1.1960    1.2310 hn        1 2KV      0.467467
     47 H153       -3.6050   -0.3160   -0.1340 hn        1 2KV      0.467467
     48 CL1        -4.9490   -0.5560   -4.8660 cl        1 2KV     -0.064400
@<TRIPOS>BOND
     1    1    7 1   
     2    1   13 1   
     3    1   16 2   
     4    2    6 1   
     5    2   14 1   
     6    2   19 2   
     7    3   15 2   
     8    3   22 1   
     9    3   23 1   
    10    4   10 ar  
    11    4   17 ar  
    12    4   48 1   
    13    5   11 1   
    14    5   13 1   
    15    5   24 1   
    16    5   25 1   
    17    6   21 1   
    18    6   26 1   
    19    6   27 1   
    20    7   12 1   
    21    7   28 1   
    22    7   29 1   
    23    8    9 ar  
    24    8   14 ar  
    25    8   30 1   
    26    9   10 ar  
    27    9   31 1   
    28   10   32 1   
    29   11   12 1   
    30   11   33 1   
    31   11   34 1   
    32   12   35 1   
    33   12   36 1   
    34   13   37 1   
    35   14   17 ar  
    36   15   20 2   
    37   17   38 1   
    38   18   20 1   
    39   18   39 1   
    40   18   40 1   
    41   18   44 1   
    42   19   41 1   
    43   19   42 1   
    44   20   43 1   
    45   21   45 1   
    46   21   46 1   
    47   21   47 1   
@<TRIPOS>SUBSTRUCTURE
     1 2KV         1 TEMP              0 ****  ****    0 ROOT
