@<TRIPOS>MOLECULE
2KW
   40    42     1     0     0
SMALL
bcc


@<TRIPOS>ATOM
      1 C8         -0.1330   -0.1060    0.5340 cc        1 2KW     -0.088200
      2 C7          1.1570   -0.0270    0.1230 cd        1 2KW      0.093900
      3 C9         -0.5180    0.5030    1.7890 cc        1 2KW     -0.073000
      4 C10         0.3960    1.0390    2.6200 cd        1 2KW     -0.039000
      5 C5          4.5540   -3.3770   -1.3840 ca        1 2KW     -0.081000
      6 C4          4.7390   -2.0990   -1.9300 ca        1 2KW      0.003000
      7 C3          3.7510   -1.1130   -1.7940 ca        1 2KW     -0.074000
      8 C2          2.5760   -1.4470   -1.1130 ca        1 2KW      0.072100
      9 C1          2.3620   -2.7140   -0.5620 ca        1 2KW     -0.100000
     10 C13        -1.2040   -0.8350   -0.2820 c3        1 2KW      0.700100
     11 C12         2.1600    0.7450    0.8990 c         1 2KW      0.515300
     12 C18         2.1880   -1.1930    3.3720 cc        1 2KW      0.303200
     13 C21         2.2040   -3.3310    4.1570 c         1 2KW      0.715500
     14 C           3.3690   -3.6730   -0.7020 ca        1 2KW      0.016400
     15 F          -0.9360   -2.1620   -0.4980 f         1 2KW     -0.220967
     16 N           6.9270   -1.5470   -3.1900 n1        1 2KW     -0.340800
     17 O           1.5430   -0.4940   -1.1200 os        1 2KW     -0.228200
     18 Cl          3.1490   -5.2170   -0.0370 cl        1 2KW     -0.059400
     19 N11         1.8350    1.0440    2.3500 nx        1 2KW     -0.225800
     20 F14        -2.4520   -0.8230    0.2890 f         1 2KW     -0.220967
     21 F15        -1.4010   -0.3050   -1.5330 f         1 2KW     -0.220967
     22 O16         3.2160    1.1860    0.4560 o         1 2KW     -0.444100
     23 N19         1.2590   -1.8760    2.6430 nc        1 2KW     -0.442600
     24 N20         1.1500   -3.1390    3.1680 ns        1 2KW     -0.343500
     25 N22         2.7800   -2.0340    4.3620 n         1 2KW     -0.396000
     26 O23         2.4650   -4.3560    4.8040 o         1 2KW     -0.615500
     27 H1         -1.5870    0.4900    2.0680 ha        1 2KW      0.191000
     28 H2          0.1530    1.4380    3.6230 hx        1 2KW      0.195000
     29 H3          5.3410   -4.1410   -1.4920 ha        1 2KW      0.167000
     30 H4          3.8860   -0.1030   -2.2090 ha        1 2KW      0.172000
     31 H5          1.4200   -2.9370   -0.0320 ha        1 2KW      0.182000
     32 H6          4.2300   -2.6560    5.7080 h1        1 2KW      0.048367
     33 H7          3.8870   -0.8530    5.6710 h1        1 2KW      0.048367
     34 H8          4.8500   -1.6240    4.3260 h1        1 2KW      0.048367
     35 H9          2.1870    1.9960    2.5360 hn        1 2KW      0.451800
     36 H10         3.4000    0.6080    3.7480 hx        1 2KW      0.177000
     37 H11         1.1190   -3.8510    2.4590 hn        1 2KW      0.295500
     38 C17         2.5500    0.1660    3.2250 c2        1 2KW     -0.506000
     39 C6          5.9420   -1.7950   -2.6230 cg        1 2KW      0.227800
     40 C24         4.0000   -1.7790    5.0450 c3        1 2KW      0.099300
@<TRIPOS>BOND
     1    1    2 2   
     2    1    3 1   
     3    1   10 1   
     4    2   11 1   
     5    2   17 1   
     6    3    4 2   
     7    3   27 1   
     8    4   19 1   
     9    4   28 1   
    10    5    6 ar  
    11    5   14 ar  
    12    5   29 1   
    13    6    7 ar  
    14    6   39 1   
    15    7    8 ar  
    16    7   30 1   
    17    8    9 ar  
    18    8   17 1   
    19    9   14 ar  
    20    9   31 1   
    21   10   15 1   
    22   10   20 1   
    23   10   21 1   
    24   11   19 1   
    25   11   22 2   
    26   12   23 1   
    27   12   25 1   
    28   12   38 2   
    29   13   24 1   
    30   13   25 1   
    31   13   26 2   
    32   14   18 1   
    33   16   39 3   
    34   19   35 1   
    35   19   38 1   
    36   23   24 2   
    37   24   37 1   
    38   25   40 1   
    39   32   40 1   
    40   33   40 1   
    41   34   40 1   
    42   36   38 1   
@<TRIPOS>SUBSTRUCTURE
     1 2KW         1 TEMP              0 ****  ****    0 ROOT
