@<TRIPOS>MOLECULE
2KW
   40    42     1     0     0
SMALL
bcc


@<TRIPOS>ATOM
      1 C8         -0.2070   -0.2800    0.5080 cc        1 2KW     -0.088200
      2 C7          1.0750   -0.1320    0.0880 cd        1 2KW      0.093900
      3 C9         -0.6260    0.3430    1.7450 cc        1 2KW     -0.073000
      4 C10         0.2550    0.9620    2.5540 cd        1 2KW     -0.039000
      5 C5          4.6740   -3.3060   -1.3290 ca        1 2KW     -0.081000
      6 C4          4.7750   -2.0370   -1.9140 ca        1 2KW      0.003000
      7 C3          3.7280   -1.1120   -1.8050 ca        1 2KW     -0.074000
      8 C2          2.5770   -1.4980   -1.1100 ca        1 2KW      0.072100
      9 C1          2.4460   -2.7580   -0.5180 ca        1 2KW     -0.100000
     10 C13        -1.2310   -1.1000   -0.2800 c3        1 2KW      0.700100
     11 C12         2.0290    0.7260    0.8350 c         1 2KW      0.515300
     12 C18         2.1860   -1.1270    3.3670 cc        1 2KW      0.303200
     13 C21         2.3390   -3.2350    4.2190 c         1 2KW      0.715500
     14 C           3.5120   -3.6560   -0.6330 ca        1 2KW      0.016400
     15 F          -0.8810   -2.4140   -0.4560 f         1 2KW     -0.220967
     16 N           6.9220   -1.3880   -3.2010 n1        1 2KW     -0.340800
     17 O           1.4870   -0.6130   -1.1410 os        1 2KW     -0.228200
     18 CL          3.3910   -5.1890    0.0810 cl        1 2KW     -0.059400
     19 N11         1.6900    1.0490    2.2770 n4        1 2KW     -0.225800
     20 F14        -2.4760   -1.1490    0.2960 f         1 2KW     -0.220967
     21 F15        -1.4650   -0.6240   -1.5460 f         1 2KW     -0.220967
     22 O16         3.0540    1.2190    0.3740 o         1 2KW     -0.444100
     23 N19         1.3010   -1.8910    2.6640 nc        1 2KW     -0.442600
     24 N20         1.2740   -3.1400    3.2290 n         1 2KW     -0.343500
     25 N22         2.8330   -1.8980    4.3800 n         1 2KW     -0.396000
     26 O23         2.6670   -4.2210    4.8960 o         1 2KW     -0.615500
     27 H1         -1.6910    0.2720    2.0290 ha        1 2KW      0.191000
     28 H2         -0.0110    1.3760    3.5450 hx        1 2KW      0.195000
     29 H3          5.5070   -4.0220   -1.4160 ha        1 2KW      0.167000
     30 H4          3.7970   -0.1090   -2.2520 ha        1 2KW      0.172000
     31 H5          1.5210   -3.0230    0.0230 ha        1 2KW      0.182000
     32 H6          4.3230   -2.3840    5.7390 h1        1 2KW      0.048367
     33 H7          3.8660   -0.6090    5.6460 h1        1 2KW      0.048367
     34 H8          4.8730   -1.3590    4.3220 h1        1 2KW      0.048367
     35 H9          1.9810    2.0270    2.4320 hn        1 2KW      0.451800
     36 H10         3.2830    0.7570    3.6810 hx        1 2KW      0.177000
     37 H11         1.2860   -3.8750    2.5420 hn        1 2KW      0.295500
     38 C17         2.4610    0.2470    3.1760 c2        1 2KW     -0.506000
     39 C6          5.9560   -1.6800   -2.6220 cg        1 2KW      0.227800
     40 C24         4.0360   -1.5450    5.0490 c3        1 2KW      0.099300
@<TRIPOS>BOND
     1    1    2 2   
     2    1    3 1   
     3    1   10 1   
     4    2   11 1   
     5    2   17 1   
     6    3    4 2   
     7    3   27 1   
     8    4   19 1   
     9    4   28 1   
    10    5    6 ar  
    11    5   14 ar  
    12    5   29 1   
    13    6    7 ar  
    14    6   39 1   
    15    7    8 ar  
    16    7   30 1   
    17    8    9 ar  
    18    8   17 1   
    19    9   14 ar  
    20    9   31 1   
    21   10   15 1   
    22   10   20 1   
    23   10   21 1   
    24   11   19 1   
    25   11   22 2   
    26   12   23 1   
    27   12   25 1   
    28   12   38 2   
    29   13   24 1   
    30   13   25 1   
    31   13   26 2   
    32   14   18 1   
    33   16   39 3   
    34   19   35 1   
    35   19   38 1   
    36   23   24 2   
    37   24   37 1   
    38   25   40 1   
    39   32   40 1   
    40   33   40 1   
    41   34   40 1   
    42   36   38 1   
@<TRIPOS>SUBSTRUCTURE
     1 2KW         1 TEMP              0 ****  ****    0 ROOT
