@<TRIPOS>MOLECULE
2L1
   34    36     1     0     0
SMALL
bcc


@<TRIPOS>ATOM
      1 CAH         0.1240   -0.0220   -0.0430 c3        1 2L1      0.172800
      2 CAG         1.6250    0.2500    0.0480 c3        1 2L1     -0.034100
      3 CAN         2.1080    0.2410    1.4520 ca        1 2L1     -0.067300
      4 CAD         3.3110    0.8730    1.7880 ca        1 2L1     -0.127000
      5 CAB         3.7780    0.8430    3.0990 ca        1 2L1     -0.128000
      6 CAC         3.0470    0.1800    4.0860 ca        1 2L1     -0.129000
      7 CAE         1.8490   -0.4500    3.7600 ca        1 2L1     -0.127000
      8 CAO         1.3730   -0.4220    2.4440 ca        1 2L1     -0.077300
      9 CAI         0.0710   -1.1010    2.1420 c3        1 2L1      0.214100
     10 NAQ        -0.2830   -1.1850    0.7330 n3        1 2L1     -0.727600
     11 CAJ        -1.6900   -1.5030    0.5150 c3        1 2L1      0.250100
     12 CAP        -2.1640   -2.7140    1.2360 cc        1 2L1     -0.225900
     13 NAL        -2.7180   -2.6970    2.5230 na        1 2L1     -0.321900
     14 CAF        -3.0840   -4.0110    2.8230 cc        1 2L1      0.394400
     15 NAK        -2.7930   -4.8520    1.8090 nd        1 2L1     -0.668000
     16 CAM        -2.2130   -4.0620    0.8070 cd        1 2L1      0.334600
     17 CAA        -1.7430   -4.5960   -0.4820 c3        1 2L1     -0.116400
     18 H1         -0.4320    0.9080    0.2790 h1        1 2L1      0.032700
     19 H2         -0.1390   -0.2190   -1.1200 h1        1 2L1      0.032700
     20 H3          2.1860   -0.5330   -0.5310 hc        1 2L1      0.059200
     21 H4          1.8330    1.2420   -0.4330 hc        1 2L1      0.059200
     22 H5          3.8860    1.3930    1.0090 ha        1 2L1      0.131000
     23 H6          4.7250    1.3410    3.3570 ha        1 2L1      0.131000
     24 H7          3.4180    0.1530    5.1210 ha        1 2L1      0.131000
     25 H8          1.2740   -0.9770    4.5360 ha        1 2L1      0.130000
     26 H9         -0.7320   -0.5680    2.7400 h1        1 2L1      0.042200
     27 H10         0.1240   -2.1650    2.5190 h1        1 2L1      0.042200
     28 H12        -2.3580   -0.6270    0.7810 h1        1 2L1      0.044200
     29 H13        -1.8120   -1.6990   -0.5910 h1        1 2L1      0.044200
     30 H14        -2.8160   -1.9030    3.0960 hn        1 2L1      0.298700
     31 H15        -3.5490   -4.2940    3.7730 h5        1 2L1      0.059100
     32 H17        -1.2100   -3.8000   -1.0580 hc        1 2L1      0.049033
     33 H18        -2.6080   -4.9660   -1.0890 hc        1 2L1      0.049033
     34 H19        -1.0400   -5.4510   -0.3200 hc        1 2L1      0.049033
@<TRIPOS>BOND
     1    1    2 1   
     2    1   10 1   
     3    1   18 1   
     4    1   19 1   
     5    2    3 1   
     6    2   20 1   
     7    2   21 1   
     8    3    4 ar  
     9    3    8 ar  
    10    4    5 ar  
    11    4   22 1   
    12    5    6 ar  
    13    5   23 1   
    14    6    7 ar  
    15    6   24 1   
    16    7    8 ar  
    17    7   25 1   
    18    8    9 1   
    19    9   10 1   
    20    9   26 1   
    21    9   27 1   
    22   10   11 1   
    23   11   12 1   
    24   11   28 1   
    25   11   29 1   
    26   12   13 1   
    27   12   16 2   
    28   13   14 1   
    29   13   30 1   
    30   14   15 2   
    31   14   31 1   
    32   15   16 1   
    33   16   17 1   
    34   17   32 1   
    35   17   33 1   
    36   17   34 1   
@<TRIPOS>SUBSTRUCTURE
     1 2L1         1 TEMP              0 ****  ****    0 ROOT
