@<TRIPOS>MOLECULE
2L1
   34    36     1     0     0
SMALL
bcc


@<TRIPOS>ATOM
      1 CAH         0.1300   -0.0090   -0.0310 c3        1 2L1      0.172800
      2 CAG         1.6340    0.2460    0.0540 c3        1 2L1     -0.034100
      3 CAN         2.1240    0.2200    1.4560 ca        1 2L1     -0.067300
      4 CAD         3.3350    0.8360    1.7910 ca        1 2L1     -0.127000
      5 CAB         3.8090    0.7900    3.1000 ca        1 2L1     -0.128000
      6 CAC         3.0760    0.1260    4.0840 ca        1 2L1     -0.129000
      7 CAE         1.8700   -0.4890    3.7580 ca        1 2L1     -0.127000
      8 CAO         1.3870   -0.4440    2.4450 ca        1 2L1     -0.077300
      9 CAI         0.0760   -1.1070    2.1440 c3        1 2L1      0.214100
     10 NAQ        -0.2850   -1.1740    0.7370 n3        1 2L1     -0.727600
     11 CAJ        -1.6960   -1.4760    0.5220 c3        1 2L1      0.250100
     12 CAP        -2.1790   -2.6880    1.2350 cc        1 2L1     -0.225900
     13 NAL        -2.7280   -2.6760    2.5250 na        1 2L1     -0.321900
     14 CAF        -3.1050   -3.9890    2.8160 cc        1 2L1      0.394400
     15 NAK        -2.8270   -4.8250    1.7940 nd        1 2L1     -0.668000
     16 CAM        -2.2440   -4.0320    0.7960 cd        1 2L1      0.334600
     17 CAA        -1.7830   -4.5610   -0.4990 c3        1 2L1     -0.116400
     18 H1         -0.1400   -0.1940   -1.1090 h1        1 2L1      0.032700
     19 H2         -0.4140    0.9240    0.3010 h1        1 2L1      0.032700
     20 H3          2.1840   -0.5380   -0.5350 hc        1 2L1      0.059200
     21 H4          1.8500    1.2400   -0.4190 hc        1 2L1      0.059200
     22 H5          3.9130    1.3570    1.0130 ha        1 2L1      0.131000
     23 H6          4.7620    1.2760    3.3570 ha        1 2L1      0.131000
     24 H7          3.4510    0.0860    5.1170 ha        1 2L1      0.131000
     25 H8          1.2930   -1.0160    4.5330 ha        1 2L1      0.130000
     26 H9          0.1200   -2.1740    2.5120 h1        1 2L1      0.042200
     27 H10        -0.7170   -0.5700    2.7500 h1        1 2L1      0.042200
     28 H12        -1.8260   -1.6620   -0.5850 h1        1 2L1      0.044200
     29 H13        -2.3540   -0.5960    0.7990 h1        1 2L1      0.044200
     30 H14        -2.8160   -1.8860    3.1050 hn        1 2L1      0.298700
     31 H15        -3.5690   -4.2750    3.7650 h5        1 2L1      0.059100
     32 H17        -2.6530   -4.9280   -1.1010 hc        1 2L1      0.049033
     33 H18        -1.0790   -5.4170   -0.3450 hc        1 2L1      0.049033
     34 H19        -1.2550   -3.7630   -1.0760 hc        1 2L1      0.049033
@<TRIPOS>BOND
     1    1    2 1   
     2    1   10 1   
     3    1   18 1   
     4    1   19 1   
     5    2    3 1   
     6    2   20 1   
     7    2   21 1   
     8    3    4 ar  
     9    3    8 ar  
    10    4    5 ar  
    11    4   22 1   
    12    5    6 ar  
    13    5   23 1   
    14    6    7 ar  
    15    6   24 1   
    16    7    8 ar  
    17    7   25 1   
    18    8    9 1   
    19    9   10 1   
    20    9   26 1   
    21    9   27 1   
    22   10   11 1   
    23   11   12 1   
    24   11   28 1   
    25   11   29 1   
    26   12   13 1   
    27   12   16 2   
    28   13   14 1   
    29   13   30 1   
    30   14   15 2   
    31   14   31 1   
    32   15   16 1   
    33   16   17 1   
    34   17   32 1   
    35   17   33 1   
    36   17   34 1   
@<TRIPOS>SUBSTRUCTURE
     1 2L1         1 TEMP              0 ****  ****    0 ROOT
