@<TRIPOS>MOLECULE
2L1
   34    36     1     0     0
SMALL
bcc


@<TRIPOS>ATOM
      1 CAH         0.1280   -0.0330   -0.0550 c3        1 2L1      0.172800
      2 CAG         1.6290    0.2360    0.0360 c3        1 2L1     -0.034100
      3 CAN         2.1090    0.2370    1.4420 ca        1 2L1     -0.067300
      4 CAD         3.3130    0.8690    1.7750 ca        1 2L1     -0.127000
      5 CAB         3.7790    0.8480    3.0870 ca        1 2L1     -0.128000
      6 CAC         3.0440    0.1930    4.0770 ca        1 2L1     -0.129000
      7 CAE         1.8460   -0.4370    3.7540 ca        1 2L1     -0.127000
      8 CAO         1.3710   -0.4170    2.4370 ca        1 2L1     -0.077300
      9 CAI         0.0680   -1.0950    2.1380 c3        1 2L1      0.214100
     10 NAQ        -0.2830   -1.1900    0.7290 n3        1 2L1     -0.727600
     11 CAJ        -1.6890   -1.5080    0.5100 c3        1 2L1      0.250100
     12 CAP        -2.1670   -2.7100    1.2420 cc        1 2L1     -0.225900
     13 NAL        -2.7300   -2.6780    2.5250 na        1 2L1     -0.321900
     14 CAF        -3.0970   -3.9890    2.8380 cc        1 2L1      0.394400
     15 NAK        -2.7980   -4.8420    1.8370 nd        1 2L1     -0.668000
     16 CAM        -2.2120   -4.0640    0.8290 cd        1 2L1      0.334600
     17 CAA        -1.7320   -4.6140   -0.4500 c3        1 2L1     -0.116400
     18 H1         -0.4270    0.9000    0.2580 h1        1 2L1      0.032700
     19 H2         -0.1330   -0.2380   -1.1320 h1        1 2L1      0.032700
     20 H3          2.1890   -0.5520   -0.5360 hc        1 2L1      0.059200
     21 H4          1.8390    1.2250   -0.4510 hc        1 2L1      0.059200
     22 H5          3.8920    1.3820    0.9930 ha        1 2L1      0.131000
     23 H6          4.7250    1.3450    3.3430 ha        1 2L1      0.131000
     24 H7          3.4130    0.1730    5.1130 ha        1 2L1      0.131000
     25 H8          1.2680   -0.9570    4.5320 ha        1 2L1      0.130000
     26 H9         -0.7340   -0.5550    2.7290 h1        1 2L1      0.042200
     27 H10         0.1170   -2.1560    2.5240 h1        1 2L1      0.042200
     28 H12        -1.8090   -1.7150   -0.5950 h1        1 2L1      0.044200
     29 H13        -2.3570   -0.6280    0.7660 h1        1 2L1      0.044200
     30 H14        -2.8330   -1.8780    3.0880 hn        1 2L1      0.298700
     31 H15        -3.5680   -4.2610    3.7880 h5        1 2L1      0.059100
     32 H17        -1.0070   -5.4470   -0.2700 hc        1 2L1      0.049033
     33 H18        -1.2190   -3.8180   -1.0440 hc        1 2L1      0.049033
     34 H19        -2.5880   -5.0180   -1.0470 hc        1 2L1      0.049033
@<TRIPOS>BOND
     1    1    2 1   
     2    1   10 1   
     3    1   18 1   
     4    1   19 1   
     5    2    3 1   
     6    2   20 1   
     7    2   21 1   
     8    3    4 ar  
     9    3    8 ar  
    10    4    5 ar  
    11    4   22 1   
    12    5    6 ar  
    13    5   23 1   
    14    6    7 ar  
    15    6   24 1   
    16    7    8 ar  
    17    7   25 1   
    18    8    9 1   
    19    9   10 1   
    20    9   26 1   
    21    9   27 1   
    22   10   11 1   
    23   11   12 1   
    24   11   28 1   
    25   11   29 1   
    26   12   13 1   
    27   12   16 2   
    28   13   14 1   
    29   13   30 1   
    30   14   15 2   
    31   14   31 1   
    32   15   16 1   
    33   16   17 1   
    34   17   32 1   
    35   17   33 1   
    36   17   34 1   
@<TRIPOS>SUBSTRUCTURE
     1 2L1         1 TEMP              0 ****  ****    0 ROOT
