@<TRIPOS>MOLECULE
2L2
   36    38     1     0     0
SMALL
bcc


@<TRIPOS>ATOM
      1 CAH         0.2750   -0.3180   -0.0830 c3        1 2L2      0.170800
      2 CAG         1.7900   -0.2490    0.0910 c3        1 2L2     -0.037100
      3 CAO         2.1790   -0.0200    1.5070 ca        1 2L2     -0.031300
      4 CAE         3.4350    0.5250    1.7910 ca        1 2L2     -0.169000
      5 CAC         3.8210    0.7280    3.1120 ca        1 2L2     -0.092000
      6 CAD         2.9680    0.3910    4.1550 ca        1 2L2     -0.193000
      7 CAM         1.6890   -0.1530    3.8920 ca        1 2L2      0.137600
      8 NAB         0.8060   -0.3960    4.9530 nv        1 2L2     -0.815200
      9 CAQ         1.3010   -0.3630    2.5410 ca        1 2L2     -0.132300
     10 CAJ        -0.0560   -0.9350    2.2550 c3        1 2L2      0.222100
     11 NAR        -0.3480   -1.2320    0.8570 n3        1 2L2     -0.727600
     12 CAI        -1.7840   -1.3910    0.6510 c3        1 2L2      0.252100
     13 CAP        -2.1500   -1.8860   -0.7030 cc        1 2L2     -0.226900
     14 NAL        -2.7160   -1.0890   -1.7070 na        1 2L2     -0.320900
     15 CAF        -2.9610   -1.9270   -2.7970 cc        1 2L2      0.393400
     16 NAK        -2.5800   -3.1970   -2.5450 nd        1 2L2     -0.669000
     17 CAN        -2.0680   -3.1930   -1.2400 cd        1 2L2      0.335600
     18 CAA        -1.5330   -4.3880   -0.5670 c3        1 2L2     -0.115400
     19 H1          0.0510   -0.6900   -1.1230 h1        1 2L2      0.035200
     20 H2         -0.1470    0.7270    0.0080 h1        1 2L2      0.035200
     21 H3          2.2550   -1.2110   -0.2590 hc        1 2L2      0.060700
     22 H4          2.1830    0.5750   -0.5600 hc        1 2L2      0.060700
     23 H5          4.1130    0.7900    0.9680 ha        1 2L2      0.132000
     24 H6          4.8100    1.1550    3.3350 ha        1 2L2      0.130000
     25 H7          3.2910    0.5610    5.1930 ha        1 2L2      0.130000
     26 H8          1.2570   -0.4770    5.8390 hn        1 2L2      0.385300
     27 H9          0.1580   -1.1350    4.7870 hn        1 2L2      0.385300
     28 H10        -0.1590   -1.9210    2.7990 h1        1 2L2      0.037700
     29 H11        -0.8240   -0.2230    2.6910 h1        1 2L2      0.037700
     30 H13        -2.3420   -0.4290    0.8670 h1        1 2L2      0.041200
     31 H14        -2.1390   -2.1620    1.3970 h1        1 2L2      0.041200
     32 H15        -2.9120   -0.1280   -1.6380 hn        1 2L2      0.298700
     33 H16        -3.4090   -1.5700   -3.7300 h5        1 2L2      0.059100
     34 H18        -0.6470   -4.7850   -1.1250 hc        1 2L2      0.049033
     35 H19        -1.2130   -4.1300    0.4730 hc        1 2L2      0.049033
     36 H20        -2.3070   -5.1950   -0.5210 hc        1 2L2      0.049033
@<TRIPOS>BOND
     1    1    2 1   
     2    1   11 1   
     3    1   19 1   
     4    1   20 1   
     5    2    3 1   
     6    2   21 1   
     7    2   22 1   
     8    3    4 ar  
     9    3    9 ar  
    10    4    5 ar  
    11    4   23 1   
    12    5    6 ar  
    13    5   24 1   
    14    6    7 ar  
    15    6   25 1   
    16    7    8 1   
    17    7    9 ar  
    18    8   26 1   
    19    8   27 1   
    20    9   10 1   
    21   10   11 1   
    22   10   28 1   
    23   10   29 1   
    24   11   12 1   
    25   12   13 1   
    26   12   30 1   
    27   12   31 1   
    28   13   14 1   
    29   13   17 2   
    30   14   15 1   
    31   14   32 1   
    32   15   16 2   
    33   15   33 1   
    34   16   17 1   
    35   17   18 1   
    36   18   34 1   
    37   18   35 1   
    38   18   36 1   
@<TRIPOS>SUBSTRUCTURE
     1 2L2         1 TEMP              0 ****  ****    0 ROOT
