@<TRIPOS>MOLECULE
2L2
   37    39     1     0     0
SMALL
bcc


@<TRIPOS>ATOM
      1 CAH         0.1920   -0.2100   -0.0750 c3        1 2L2      0.163800
      2 CAG         1.7120   -0.1690    0.0650 c3        1 2L2     -0.052100
      3 CAO         2.1510   -0.0350    1.4780 ca        1 2L2     -0.026300
      4 CAE         3.4570    0.3860    1.7580 ca        1 2L2     -0.074000
      5 CAC         3.9040    0.4980    3.0740 ca        1 2L2     -0.097000
      6 CAD         3.0540    0.1900    4.1320 ca        1 2L2     -0.107000
      7 CAM         1.7440   -0.2350    3.8520 ca        1 2L2     -0.076400
      8 NAB         0.8570   -0.5690    4.9680 n4        1 2L2     -0.699000
      9 CAQ         1.2730   -0.3520    2.5260 ca        1 2L2     -0.047300
     10 CAJ        -0.1390   -0.7880    2.2590 c3        1 2L2      0.210100
     11 NAR        -0.4210   -1.1210    0.8750 n3        1 2L2     -0.728600
     12 CAI        -1.8490   -1.3470    0.6550 c3        1 2L2      0.264100
     13 CAP        -2.1610   -1.8930   -0.6890 cc        1 2L2     -0.266900
     14 NAL        -2.8150   -1.1790   -1.7040 na        1 2L2     -0.320900
     15 CAF        -2.9630   -2.0570   -2.7800 cc        1 2L2      0.419400
     16 NAK        -2.4270   -3.2670   -2.5140 nd        1 2L2     -0.660000
     17 CAN        -1.9210   -3.1880   -1.2110 cd        1 2L2      0.358600
     18 CAA        -1.2510   -4.3070   -0.5270 c3        1 2L2     -0.119400
     19 H1         -0.2130    0.8390    0.0320 h1        1 2L2      0.058700
     20 H2         -0.0600   -0.5760   -1.1120 h1        1 2L2      0.058700
     21 H3          2.1560   -1.1140   -0.3570 hc        1 2L2      0.085700
     22 H4          2.1030    0.6890   -0.5450 hc        1 2L2      0.085700
     23 H5          4.1380    0.6300    0.9240 ha        1 2L2      0.172000
     24 H6          4.9340    0.8310    3.2830 ha        1 2L2      0.174000
     25 H7          3.4220    0.2820    5.1670 ha        1 2L2      0.155000
     26 H8          0.6520   -1.5750    4.9500 hn        1 2L2      0.461800
     27 H9         -0.0230   -0.0480    4.8740 hn        1 2L2      0.461800
     28 H10        -0.3590   -1.7270    2.8500 h1        1 2L2      0.032700
     29 H11        -0.8240    0.0300    2.6490 h1        1 2L2      0.032700
     30 H13        -2.1800   -2.1150    1.4170 h1        1 2L2      0.044200
     31 H14        -2.4420   -0.4010    0.8400 h1        1 2L2      0.044200
     32 H15        -3.1740   -0.2650   -1.6290 hn        1 2L2      0.301700
     33 H16        -3.4550   -1.7700   -3.7170 h5        1 2L2      0.072100
     34 H18        -1.8880   -5.2260   -0.5590 hc        1 2L2      0.051367
     35 H19        -1.0500   -4.0400    0.5400 hc        1 2L2      0.051367
     36 H20        -0.2780   -4.5400   -1.0280 hc        1 2L2      0.051367
     37 HAB3        1.3030   -0.3280    5.8590 hn        1 2L2      0.461800
@<TRIPOS>BOND
     1    1    2 1   
     2    1   11 1   
     3    1   19 1   
     4    1   20 1   
     5    2    3 1   
     6    2   21 1   
     7    2   22 1   
     8    3    4 ar  
     9    3    9 ar  
    10    4    5 ar  
    11    4   23 1   
    12    5    6 ar  
    13    5   24 1   
    14    6    7 ar  
    15    6   25 1   
    16    7    8 1   
    17    7    9 ar  
    18    8   26 1   
    19    8   27 1   
    20    8   37 1   
    21    9   10 1   
    22   10   11 1   
    23   10   28 1   
    24   10   29 1   
    25   11   12 1   
    26   12   13 1   
    27   12   30 1   
    28   12   31 1   
    29   13   14 1   
    30   13   17 2   
    31   14   15 1   
    32   14   32 1   
    33   15   16 2   
    34   15   33 1   
    35   16   17 1   
    36   17   18 1   
    37   18   34 1   
    38   18   35 1   
    39   18   36 1   
@<TRIPOS>SUBSTRUCTURE
     1 2L2         1 TEMP              0 ****  ****    0 ROOT
