@<TRIPOS>MOLECULE
2L2
   36    38     1     0     0
SMALL
bcc


@<TRIPOS>ATOM
      1 CAH         0.2680   -0.3110   -0.0790 c3        1 2L2      0.170800
      2 CAG         1.7830   -0.2340    0.0930 c3        1 2L2     -0.037100
      3 CAO         2.1720   -0.0100    1.5100 ca        1 2L2     -0.031300
      4 CAE         3.4250    0.5420    1.7950 ca        1 2L2     -0.169000
      5 CAC         3.8120    0.7400    3.1160 ca        1 2L2     -0.092000
      6 CAD         2.9630    0.3910    4.1590 ca        1 2L2     -0.193000
      7 CAM         1.6880   -0.1600    3.8950 ca        1 2L2      0.137600
      8 NAB         0.8080   -0.4160    4.9560 nh        1 2L2     -0.815200
      9 CAQ         1.2980   -0.3650    2.5430 ca        1 2L2     -0.132300
     10 CAJ        -0.0540   -0.9440    2.2560 c3        1 2L2      0.222100
     11 NAR        -0.3470   -1.2350    0.8570 n3        1 2L2     -0.727600
     12 CAI        -1.7820   -1.4020    0.6520 c3        1 2L2      0.252100
     13 CAP        -2.1480   -1.8910   -0.7040 cc        1 2L2     -0.226900
     14 NAL        -2.7190   -1.0920   -1.7030 na        1 2L2     -0.320900
     15 CAF        -2.9620   -1.9250   -2.7980 cc        1 2L2      0.393400
     16 NAK        -2.5740   -3.1940   -2.5540 nd        1 2L2     -0.669000
     17 CAN        -2.0600   -3.1950   -1.2500 cd        1 2L2      0.335600
     18 CAA        -1.5170   -4.3910   -0.5840 c3        1 2L2     -0.115400
     19 H1          0.0450   -0.6790   -1.1210 h1        1 2L2      0.035200
     20 H2         -0.1610    0.7300    0.0190 h1        1 2L2      0.035200
     21 H3          2.1700    0.5970   -0.5540 hc        1 2L2      0.060700
     22 H4          2.2540   -1.1900   -0.2640 hc        1 2L2      0.060700
     23 H5          4.1010    0.8160    0.9720 ha        1 2L2      0.132000
     24 H6          4.7990    1.1730    3.3410 ha        1 2L2      0.130000
     25 H7          3.2870    0.5570    5.1970 ha        1 2L2      0.130000
     26 H8          1.2610   -0.4980    5.8400 hn        1 2L2      0.385300
     27 H9          0.1650   -1.1580    4.7860 hn        1 2L2      0.385300
     28 H10        -0.1500   -1.9350    2.7940 h1        1 2L2      0.037700
     29 H11        -0.8270   -0.2410    2.6970 h1        1 2L2      0.037700
     30 H13        -2.3460   -0.4450    0.8740 h1        1 2L2      0.041200
     31 H14        -2.1310   -2.1800    1.3940 h1        1 2L2      0.041200
     32 H15        -2.9210   -0.1320   -1.6280 hn        1 2L2      0.298700
     33 H16        -3.4130   -1.5640   -3.7280 h5        1 2L2      0.059100
     34 H18        -1.1990   -4.1370    0.4580 hc        1 2L2      0.048700
     35 H19        -0.6290   -4.7780   -1.1430 hc        1 2L2      0.048700
     36 H20        -2.2860   -5.2020   -0.5430 hc        1 2L2      0.048700
@<TRIPOS>BOND
     1    1    2 1   
     2    1   11 1   
     3    1   19 1   
     4    1   20 1   
     5    2    3 1   
     6    2   21 1   
     7    2   22 1   
     8    3    4 ar  
     9    3    9 ar  
    10    4    5 ar  
    11    4   23 1   
    12    5    6 ar  
    13    5   24 1   
    14    6    7 ar  
    15    6   25 1   
    16    7    8 1   
    17    7    9 ar  
    18    8   26 1   
    19    8   27 1   
    20    9   10 1   
    21   10   11 1   
    22   10   28 1   
    23   10   29 1   
    24   11   12 1   
    25   12   13 1   
    26   12   30 1   
    27   12   31 1   
    28   13   14 1   
    29   13   17 2   
    30   14   15 1   
    31   14   32 1   
    32   15   16 2   
    33   15   33 1   
    34   16   17 1   
    35   17   18 1   
    36   18   34 1   
    37   18   35 1   
    38   18   36 1   
@<TRIPOS>SUBSTRUCTURE
     1 2L2         1 TEMP              0 ****  ****    0 ROOT
