@<TRIPOS>MOLECULE
2L3
   26    27     1     0     0
SMALL
bcc


@<TRIPOS>ATOM
      1 OAF        -0.1640    0.2880    0.1600 o         1 2L3     -0.722533
      2 SAQ         1.2040    0.1020   -0.0500 s6        1 2L3      1.419800
      3 OAD         1.5490   -1.0970   -0.6780 o         1 2L3     -0.722533
      4 OAE         1.8910    1.2300   -0.5200 o         1 2L3     -0.722533
      5 CAP         1.9400   -0.0730    1.7600 c3        1 2L3     -0.273200
      6 CAA         1.4370    1.1860    2.4340 c3        1 2L3     -0.062100
      7 CAK         3.4450   -0.0120    1.6560 c3        1 2L3     -0.128400
      8 CAL         4.1800   -1.3050    1.4670 c         1 2L3      0.596700
      9 OAB         5.3860   -1.3060    1.1690 o         1 2L3     -0.577100
     10 CAN         3.4510   -2.5710    1.6910 ca        1 2L3     -0.113600
     11 CAI         4.0780   -3.7930    1.4130 ca        1 2L3     -0.091000
     12 CAG         3.3990   -4.9920    1.6130 ca        1 2L3     -0.142000
     13 CAH         2.0890   -4.9800    2.0940 ca        1 2L3     -0.128000
     14 CAJ         1.4610   -3.7690    2.3750 ca        1 2L3     -0.098000
     15 CAO         2.1350   -2.5590    2.1720 ca        1 2L3     -0.092600
     16 CAM         1.4460   -1.2750    2.4690 c         1 2L3      0.625700
     17 OAC         0.4970   -1.2620    3.2710 o         1 2L3     -0.570100
     18 H1          0.3180    1.1780    2.4550 hc        1 2L3      0.039033
     19 H2          1.8060    1.2560    3.4860 hc        1 2L3      0.039033
     20 H3          1.7890    2.0840    1.8690 hc        1 2L3      0.039033
     21 H4          3.7180    0.6770    0.8040 hc        1 2L3      0.076700
     22 H5          3.8690    0.4530    2.5920 hc        1 2L3      0.076700
     23 H8          5.1100   -3.7860    1.0270 ha        1 2L3      0.145000
     24 H9          3.8930   -5.9470    1.3840 ha        1 2L3      0.118000
     25 H10         1.5500   -5.9260    2.2460 ha        1 2L3      0.119000
     26 H11         0.4260   -3.7430    2.7530 ha        1 2L3      0.149000
@<TRIPOS>BOND
     1    1    2 1   
     2    2    3 1   
     3    2    4 1   
     4    2    5 1   
     5    5    6 1   
     6    5    7 1   
     7    5   16 1   
     8    6   18 1   
     9    6   19 1   
    10    6   20 1   
    11    7    8 1   
    12    7   21 1   
    13    7   22 1   
    14    8    9 2   
    15    8   10 1   
    16   10   11 ar  
    17   10   15 ar  
    18   11   12 ar  
    19   11   23 1   
    20   12   13 ar  
    21   12   24 1   
    22   13   14 ar  
    23   13   25 1   
    24   14   15 ar  
    25   14   26 1   
    26   15   16 1   
    27   16   17 2   
@<TRIPOS>SUBSTRUCTURE
     1 2L3         1 TEMP              0 ****  ****    0 ROOT
