@<TRIPOS>MOLECULE
2L3
   26    27     1     0     0
SMALL
bcc


@<TRIPOS>ATOM
      1 OAF        -0.1410    0.3080    0.1490 o         1 2L3     -0.722533
      2 SAQ         1.2280    0.1180   -0.0510 s6        1 2L3      1.419800
      3 OAD         1.5750   -1.0790   -0.6820 o         1 2L3     -0.722533
      4 OAE         1.9220    1.2470   -0.5080 o         1 2L3     -0.722533
      5 CAP         1.9470   -0.0680    1.7660 c3        1 2L3     -0.273200
      6 CAA         1.4410    1.1890    2.4420 c3        1 2L3     -0.062100
      7 CAK         3.4530   -0.0110    1.6760 c3        1 2L3     -0.128400
      8 CAL         4.1860   -1.3050    1.4870 c         1 2L3      0.596700
      9 OAB         5.3940   -1.3090    1.1990 o         1 2L3     -0.577100
     10 CAN         3.4510   -2.5700    1.6970 ca        1 2L3     -0.113600
     11 CAI         4.0770   -3.7930    1.4170 ca        1 2L3     -0.091000
     12 CAG         3.3920   -4.9910    1.6050 ca        1 2L3     -0.142000
     13 CAH         2.0780   -4.9780    2.0740 ca        1 2L3     -0.128000
     14 CAJ         1.4510   -3.7670    2.3560 ca        1 2L3     -0.098000
     15 CAO         2.1310   -2.5570    2.1650 ca        1 2L3     -0.092600
     16 CAM         1.4420   -1.2720    2.4640 c         1 2L3      0.625700
     17 OAC         0.4870   -1.2620    3.2560 o         1 2L3     -0.570100
     18 H1          1.8010    2.0890    1.8850 hc        1 2L3      0.039033
     19 H2          0.3220    1.1830    2.4520 hc        1 2L3      0.039033
     20 H3          1.8010    1.2510    3.4970 hc        1 2L3      0.039033
     21 H4          3.8700    0.4470    2.6180 hc        1 2L3      0.076700
     22 H5          3.7360    0.6810    0.8300 hc        1 2L3      0.076700
     23 H8          5.1120   -3.7870    1.0420 ha        1 2L3      0.145000
     24 H9          3.8860   -5.9460    1.3760 ha        1 2L3      0.118000
     25 H10         1.5350   -5.9230    2.2150 ha        1 2L3      0.119000
     26 H11         0.4130   -3.7400    2.7250 ha        1 2L3      0.149000
@<TRIPOS>BOND
     1    1    2 1   
     2    2    3 1   
     3    2    4 1   
     4    2    5 1   
     5    5    6 1   
     6    5    7 1   
     7    5   16 1   
     8    6   18 1   
     9    6   19 1   
    10    6   20 1   
    11    7    8 1   
    12    7   21 1   
    13    7   22 1   
    14    8    9 2   
    15    8   10 1   
    16   10   11 ar  
    17   10   15 ar  
    18   11   12 ar  
    19   11   23 1   
    20   12   13 ar  
    21   12   24 1   
    22   13   14 ar  
    23   13   25 1   
    24   14   15 ar  
    25   14   26 1   
    26   15   16 1   
    27   16   17 2   
@<TRIPOS>SUBSTRUCTURE
     1 2L3         1 TEMP              0 ****  ****    0 ROOT
