@<TRIPOS>MOLECULE
2L4
   39    39     1     0     0
SMALL
bcc


@<TRIPOS>ATOM
      1 C4         -0.0180   -0.0440   -0.1120 c         1 2L4      0.704700
      2 C6         -2.9420   -0.3670    0.3660 ce        1 2L4      0.446200
      3 C7         -4.4260   -0.3320    0.6160 c         1 2L4      0.465600
      4 N1          1.4320   -0.0950    2.3230 n         1 2L4     -0.481100
      5 N3          1.3760   -0.0030   -0.0950 n         1 2L4     -0.565500
      6 C4A        -0.7260   -0.1150    1.2080 cd        1 2L4      0.030400
      7 O4         -0.6190   -0.0180   -1.1950 o         1 2L4     -0.564500
      8 C2          2.1280   -0.0260    1.0830 c         1 2L4      0.821500
      9 O2          3.3680    0.0070    1.1070 o         1 2L4     -0.557500
     10 C8A         0.0460   -0.1220    2.3680 cc        1 2L4      0.156600
     11 N8         -0.6480   -0.1750    3.6790 n4        1 2L4     -0.639800
     12 C1'         0.2130   -0.1230    4.8970 c3        1 2L4      0.097800
     13 C2'        -0.6430   -0.1200    6.1830 c3        1 2L4      0.149100
     14 O2'        -1.5710    0.9370    6.0310 oh        1 2L4     -0.636800
     15 C3'         0.2770    0.1210    7.3990 c3        1 2L4      0.112100
     16 O3'         1.4950   -0.5520    7.1220 oh        1 2L4     -0.616800
     17 C4'        -0.3750   -0.4280    8.6800 c3        1 2L4      0.109100
     18 O4'        -1.7640   -0.1550    8.5840 oh        1 2L4     -0.634800
     19 C5'         0.2270    0.2370    9.9240 c3        1 2L4      0.094400
     20 O5'        -0.4860   -0.3060   11.0200 oh        1 2L4     -0.604800
     21 H1         -2.6720   -0.6030   -0.6900 h4        1 2L4      0.051800
     22 O1         -4.9620   -1.0160    1.4800 o         1 2L4     -0.461100
     23 H5          1.8800    0.0460   -0.9610 hn        1 2L4      0.386500
     24 H7         -1.2110   -1.0400    3.7000 hn        1 2L4      0.488800
     25 H8          0.8940   -1.0220    4.9260 hx        1 2L4      0.123700
     26 H9          0.8220    0.8260    4.8710 hx        1 2L4      0.123700
     27 H10        -1.1850   -1.0990    6.3060 h1        1 2L4      0.080700
     28 H11        -2.1050    0.9890    6.8410 ho        1 2L4      0.475000
     29 H12         0.4670    1.2270    7.5020 h1        1 2L4      0.073700
     30 H13         2.0220   -0.5500    7.9330 ho        1 2L4      0.437000
     31 H14        -0.2230   -1.5440    8.7390 h1        1 2L4      0.075700
     32 H15        -2.1500   -0.3170    9.4590 ho        1 2L4      0.458000
     33 H16         1.3190   -0.0060   10.0050 h1        1 2L4      0.042700
     34 H17         0.0890    1.3500    9.8820 h1        1 2L4      0.042700
     35 H18        -0.1570    0.1250   11.8190 ho        1 2L4      0.431000
     36 H2         -4.9750    0.3380   -0.0800 h4        1 2L4      0.052200
     37 H161        1.9990   -0.1040    3.1460 hn        1 2L4      0.371500
     38 N5         -2.1200   -0.1270    1.3280 nf        1 2L4     -0.629300
     39 H82        -1.3090    0.6260    3.7210 hn        1 2L4      0.488800
@<TRIPOS>BOND
     1    1    5 1   
     2    1    6 1   
     3    1    7 2   
     4    2    3 1   
     5    2   21 1   
     6    2   38 2   
     7    3   22 2   
     8    3   36 1   
     9    4    8 1   
    10    4   10 1   
    11    4   37 1   
    12    5    8 1   
    13    5   23 1   
    14    6   10 2   
    15    6   38 1   
    16    8    9 2   
    17   10   11 1   
    18   11   12 1   
    19   11   24 1   
    20   11   39 1   
    21   12   13 1   
    22   12   25 1   
    23   12   26 1   
    24   13   14 1   
    25   13   15 1   
    26   13   27 1   
    27   14   28 1   
    28   15   16 1   
    29   15   17 1   
    30   15   29 1   
    31   16   30 1   
    32   17   18 1   
    33   17   19 1   
    34   17   31 1   
    35   18   32 1   
    36   19   20 1   
    37   19   33 1   
    38   19   34 1   
    39   20   35 1   
@<TRIPOS>SUBSTRUCTURE
     1 2L4         1 TEMP              0 ****  ****    0 ROOT
