@<TRIPOS>MOLECULE
2L7
   37    37     1     0     0
SMALL
bcc


@<TRIPOS>ATOM
      1 N01        -0.3360   -0.7420   -0.4410 n4        1 2L7     -0.828600
      2 C02         0.7230    0.1670    0.0870 c3        1 2L7     -0.092500
      3 C03         1.0010   -0.0250    1.5740 c3        1 2L7     -0.049100
      4 C04         1.1890    1.2740    2.2810 ca        1 2L7     -0.022300
      5 C05         2.2760    2.0980    1.9530 ca        1 2L7     -0.107000
      6 C06         2.5000    3.2860    2.6400 ca        1 2L7     -0.098000
      7 C07         1.6250    3.6560    3.6780 ca        1 2L7     -0.069400
      8 N08         1.8850    4.8820    4.4420 n4        1 2L7     -0.538200
      9 C09         1.8050    6.1370    3.5910 c         1 2L7      0.545100
     10 C10         0.6490    7.0820    3.8680 c3        1 2L7     -0.043600
     11 C11         0.7540    7.6220    5.2830 c3        1 2L7     -0.110600
     12 BR1        -1.0330    6.1050    3.6260 br        1 2L7     -0.079400
     13 C13         0.7250    8.2300    2.8720 c3        1 2L7     -0.110600
     14 O14         2.7050    6.2940    2.7840 o         1 2L7     -0.386100
     15 C15         0.5280    2.8440    4.0130 ca        1 2L7     -0.098000
     16 C16         0.3220    1.6590    3.3110 ca        1 2L7     -0.107000
     17 C17         2.0660   -0.0700   -0.8030 c         1 2L7      0.946600
     18 O18         1.8410   -0.5890   -1.9190 o         1 2L7     -0.742300
     19 O19         3.1240    0.3030   -0.2720 o         1 2L7     -0.742300
     20 H1         -1.2620   -0.3290   -0.3790 hn        1 2L7      0.451800
     21 H2         -0.0830   -0.9190   -1.4430 hn        1 2L7      0.451800
     22 H4          0.4010    1.2220   -0.1320 hx        1 2L7      0.090700
     23 H5          1.9610   -0.6140    1.6710 hc        1 2L7      0.081200
     24 H6          0.1890   -0.6120    2.0830 hc        1 2L7      0.081200
     25 H7          2.9700    1.7870    1.1390 ha        1 2L7      0.196500
     26 H8          3.3600    3.9200    2.3600 ha        1 2L7      0.162000
     27 H9          2.8390    4.8110    4.8250 hn        1 2L7      0.463800
     28 H10        -0.0180    8.4210    5.4340 hc        1 2L7      0.080367
     29 H11         1.7590    8.0860    5.4440 hc        1 2L7      0.080367
     30 H12         0.5850    6.8350    6.0560 hc        1 2L7      0.080367
     31 H13         0.6890    7.8540    1.8200 hc        1 2L7      0.080367
     32 H14         1.6840    8.7900    3.0130 hc        1 2L7      0.080367
     33 H15        -0.1280    8.9340    3.0370 hc        1 2L7      0.080367
     34 H16        -0.1680    3.1190    4.8220 ha        1 2L7      0.162000
     35 H17        -0.5320    1.0190    3.5870 ha        1 2L7      0.196500
     36 H013       -0.3210   -1.6330    0.0550 hn        1 2L7      0.451800
     37 H082        1.2170    4.9460    5.2190 hn        1 2L7      0.463800
@<TRIPOS>BOND
     1    1    2 1   
     2    1   20 1   
     3    1   21 1   
     4    1   36 1   
     5    2    3 1   
     6    2   17 1   
     7    2   22 1   
     8    3    4 1   
     9    3   23 1   
    10    3   24 1   
    11    4    5 ar  
    12    4   16 ar  
    13    5    6 ar  
    14    5   25 1   
    15    6    7 ar  
    16    6   26 1   
    17    7    8 1   
    18    7   15 ar  
    19    8    9 1   
    20    8   27 1   
    21    8   37 1   
    22    9   10 1   
    23    9   14 2   
    24   10   11 1   
    25   10   12 1   
    26   10   13 1   
    27   11   28 1   
    28   11   29 1   
    29   11   30 1   
    30   13   31 1   
    31   13   32 1   
    32   13   33 1   
    33   15   16 ar  
    34   15   34 1   
    35   16   35 1   
    36   17   18 1   
    37   17   19 1   
@<TRIPOS>SUBSTRUCTURE
     1 2L7         1 TEMP              0 ****  ****    0 ROOT
