@<TRIPOS>MOLECULE
2L7
   36    36     1     0     0
SMALL
bcc


@<TRIPOS>ATOM
      1 N01         0.0200    0.0550   -0.1070 nz        1 2L7     -0.835600
      2 C02         1.4880   -0.1990    0.0160 c3        1 2L7     -0.068500
      3 C03         1.9840   -0.0740    1.4500 c3        1 2L7     -0.045100
      4 C04         1.6520    1.2440    2.0530 ca        1 2L7     -0.143300
      5 C05         2.3540    2.3950    1.6790 ca        1 2L7     -0.112500
      6 C06         2.0510    3.6350    2.2310 ca        1 2L7     -0.161500
      7 C07         1.0210    3.7520    3.1910 ca        1 2L7      0.072600
      8 N08         0.6840    4.9700    3.8030 ns        1 2L7     -0.465100
      9 C09         0.9680    6.2380    3.3190 c         1 2L7      0.668100
     10 C10         0.4640    7.4220    4.1600 c3        1 2L7     -0.033600
     11 C11         0.8310    8.7180    3.4610 c3        1 2L7     -0.093100
     12 Br1        -1.4980    7.3030    4.3040 br        1 2L7     -0.160400
     13 C13         1.0870    7.3860    5.5410 c3        1 2L7     -0.093100
     14 O14         1.6180    6.4350    2.2780 o         1 2L7     -0.569100
     15 C15         0.3210    2.5830    3.5760 ca        1 2L7     -0.161500
     16 C16         0.6390    1.3540    3.0110 ca        1 2L7     -0.112500
     17 C17         1.8150   -1.6820   -0.5070 c         1 2L7      0.935600
     18 O18         3.0230   -1.9450   -0.6110 o         1 2L7     -0.757300
     19 O19         0.8000   -2.3860   -0.7520 o         1 2L7     -0.757300
     20 H1         -0.4190   -0.8780   -0.2890 hn        1 2L7      0.445133
     21 H2         -0.1710    0.6690   -0.8930 hn        1 2L7      0.445133
     22 H4          2.0260    0.5320   -0.6450 hx        1 2L7      0.089700
     23 H5          1.5670   -0.9100    2.0730 hc        1 2L7      0.091700
     24 H6          3.1000   -0.2250    1.4070 hc        1 2L7      0.091700
     25 H7          3.1690    2.3180    0.9410 ha        1 2L7      0.140500
     26 H8          2.6220    4.5220    1.9110 ha        1 2L7      0.155500
     27 H9          0.0810    4.9010    4.5940 hn        1 2L7      0.326500
     28 H10         0.4570    9.5950    4.0420 hc        1 2L7      0.061200
     29 H11         0.4040    8.7470    2.4290 hc        1 2L7      0.061200
     30 H12         1.9440    8.7880    3.3740 hc        1 2L7      0.061200
     31 H13         2.2010    7.3430    5.4460 hc        1 2L7      0.061200
     32 H14         0.7480    6.5010    6.1310 hc        1 2L7      0.061200
     33 H15         0.8180    8.3110    6.1090 hc        1 2L7      0.061200
     34 H16        -0.4770    2.6330    4.3330 ha        1 2L7      0.155500
     35 H17         0.1000    0.4540    3.3440 ha        1 2L7      0.140500
     36 H013       -0.3560    0.4610    0.7490 hn        1 2L7      0.445133
@<TRIPOS>BOND
     1    1    2 1   
     2    1   20 1   
     3    1   21 1   
     4    1   36 1   
     5    2    3 1   
     6    2   17 1   
     7    2   22 1   
     8    3    4 1   
     9    3   23 1   
    10    3   24 1   
    11    4    5 ar  
    12    4   16 ar  
    13    5    6 ar  
    14    5   25 1   
    15    6    7 ar  
    16    6   26 1   
    17    7    8 1   
    18    7   15 ar  
    19    8    9 1   
    20    8   27 1   
    21    9   10 1   
    22    9   14 2   
    23   10   11 1   
    24   10   12 1   
    25   10   13 1   
    26   11   28 1   
    27   11   29 1   
    28   11   30 1   
    29   13   31 1   
    30   13   32 1   
    31   13   33 1   
    32   15   16 ar  
    33   15   34 1   
    34   16   35 1   
    35   17   18 1   
    36   17   19 1   
@<TRIPOS>SUBSTRUCTURE
     1 2L7         1 TEMP              0 ****  ****    0 ROOT
