@<TRIPOS>MOLECULE
2L7
   36    36     1     0     0
SMALL
bcc


@<TRIPOS>ATOM
      1 N01         0.0040    0.0420   -0.0820 n4        1 2L7     -0.835600
      2 C02         1.4760   -0.2010    0.0190 c3        1 2L7     -0.068500
      3 C03         1.9940   -0.0700    1.4430 c3        1 2L7     -0.045100
      4 C04         1.6630    1.2470    2.0490 ca        1 2L7     -0.143300
      5 C05         2.3490    2.4020    1.6610 ca        1 2L7     -0.112500
      6 C06         2.0450    3.6410    2.2150 ca        1 2L7     -0.161500
      7 C07         1.0320    3.7520    3.1920 ca        1 2L7      0.072600
      8 N08         0.6960    4.9700    3.8070 n         1 2L7     -0.465100
      9 C09         0.9600    6.2390    3.3140 c         1 2L7      0.668100
     10 C10         0.4620    7.4210    4.1600 c3        1 2L7     -0.033600
     11 C11         0.8040    8.7180    3.4510 c3        1 2L7     -0.093100
     12 BR1        -1.4960    7.2860    4.3420 br        1 2L7     -0.160400
     13 C13         1.1100    7.3950    5.5300 c3        1 2L7     -0.093100
     14 O14         1.5890    6.4370    2.2610 o         1 2L7     -0.569100
     15 C15         0.3470    2.5790    3.5920 ca        1 2L7     -0.161500
     16 C16         0.6650    1.3520    3.0250 ca        1 2L7     -0.112500
     17 C17         1.8040   -1.6830   -0.5080 c         1 2L7      0.935600
     18 O18         3.0120   -1.9380   -0.6280 o         1 2L7     -0.757300
     19 O19         0.7900   -2.3940   -0.7360 o         1 2L7     -0.757300
     20 H1         -0.4310   -0.8940   -0.2570 hn        1 2L7      0.445133
     21 H2         -0.2040    0.6550   -0.8650 hn        1 2L7      0.445133
     22 H4          1.9980    0.5320   -0.6530 hx        1 2L7      0.089700
     23 H5          1.5920   -0.9070    2.0750 hc        1 2L7      0.091700
     24 H6          3.1100   -0.2130    1.3830 hc        1 2L7      0.091700
     25 H7          3.1510    2.3300    0.9090 ha        1 2L7      0.140500
     26 H8          2.6040    4.5320    1.8830 ha        1 2L7      0.155500
     27 H9          0.1070    4.8990    4.6090 hn        1 2L7      0.326500
     28 H10         0.3580    8.7400    2.4270 hc        1 2L7      0.061200
     29 H11         1.9150    8.7970    3.3430 hc        1 2L7      0.061200
     30 H12         0.4330    9.5930    4.0360 hc        1 2L7      0.061200
     31 H13         0.8440    8.3190    6.0990 hc        1 2L7      0.061200
     32 H14         0.7910    6.5080    6.1290 hc        1 2L7      0.061200
     33 H15         2.2230    7.3610    5.4140 hc        1 2L7      0.061200
     34 H16        -0.4380    2.6250    4.3620 ha        1 2L7      0.155500
     35 H17         0.1380    0.4480    3.3690 ha        1 2L7      0.140500
     36 H013       -0.3610    0.4460    0.7800 hn        1 2L7      0.445133
@<TRIPOS>BOND
     1    1    2 1   
     2    1   20 1   
     3    1   21 1   
     4    1   36 1   
     5    2    3 1   
     6    2   17 1   
     7    2   22 1   
     8    3    4 1   
     9    3   23 1   
    10    3   24 1   
    11    4    5 ar  
    12    4   16 ar  
    13    5    6 ar  
    14    5   25 1   
    15    6    7 ar  
    16    6   26 1   
    17    7    8 1   
    18    7   15 ar  
    19    8    9 1   
    20    8   27 1   
    21    9   10 1   
    22    9   14 2   
    23   10   11 1   
    24   10   12 1   
    25   10   13 1   
    26   11   28 1   
    27   11   29 1   
    28   11   30 1   
    29   13   31 1   
    30   13   32 1   
    31   13   33 1   
    32   15   16 ar  
    33   15   34 1   
    34   16   35 1   
    35   17   18 1   
    36   17   19 1   
@<TRIPOS>SUBSTRUCTURE
     1 2L7         1 TEMP              0 ****  ****    0 ROOT
