@<TRIPOS>MOLECULE
2LA
   41    37     1     0     0
SMALL
bcc


@<TRIPOS>ATOM
      1 P          -1.1960   -4.8700    1.1870 p3        1 2LA      2.520000
      2 N1          2.9730    2.7850    1.1270 n3        1 2LA     -0.352000
      3 C2          3.3010    1.7690    0.1700 c2        1 2LA      0.278000
      4 N2          4.6590    1.4540   -0.0770 n3        1 2LA     -0.304000
      5 N3          2.2700    0.9580   -0.3950 n1        1 2LA     -0.263000
      6 C4          0.8810    1.1580   -0.0040 c1        1 2LA     -0.001500
      7 C5          0.5600    2.1300    0.9080 c1        1 2LA     -0.215000
      8 C6          1.6480    2.9820    1.5090 c1        1 2LA      0.390000
      9 O6          1.3720    3.7950    2.4570 o         1 2LA     -0.443000
     10 C7         -0.8030    2.1440    1.0480 c1        1 2LA     -0.215000
     11 C8         -1.3220    1.1750    0.2170 c1        1 2LA     -0.001500
     12 N9         -0.2810    0.5710   -0.4280 n2        1 2LA     -0.159000
     13 C1'        -1.1830    0.1350   -1.4590 c2        1 2LA      0.162000
     14 C10        -1.7790    3.1350    1.6840 c2        1 2LA     -0.034000
     15 N11        -1.9210    2.8320    3.1020 n3        1 2LA     -0.340000
     16 OP1        -0.7480   -5.9100    0.2150 o         1 2LA     -1.231000
     17 C2'        -0.3680   -0.4950   -2.6860 c3        1 2LA     -0.177000
     18 OP2        -0.0640   -4.5170    2.0920 os        1 2LA     -1.267000
     19 C3'        -0.1120   -1.7300   -2.3540 c3        1 2LA     -0.005000
     20 O3'        -0.1510   -2.6020   -3.5500 oh        1 2LA     -0.373000
     21 C4'        -1.2320   -2.1210   -1.3820 c3        1 2LA     -0.031000
     22 O4'        -1.9530   -0.8060   -1.0150 os        1 2LA     -0.305000
     23 C5'        -0.6820   -2.7260   -0.2190 c3        1 2LA      0.071000
     24 O5'        -1.6750   -3.5750    0.3960 os        1 2LA     -0.731000
     25 H1N1        3.6070    3.2240    1.5240 hn        1 2LA      0.234000
     26 H8         -2.2650    0.9210    0.1510 DU        1 2LA      0.143000
     27 H10        -2.6320    3.0630    1.2550 h4        1 2LA      0.096500
     28 H10A       -1.4500    4.0100    1.5820 h4        1 2LA      0.096500
     29 H1'        -1.7070    0.8680   -1.7600 h4        1 2LA      0.078000
     30 HN11       -1.6420    3.5490    3.5970 hn        1 2LA      0.132000
     31 HN1A       -2.7640    2.6620    3.2820 hn        1 2LA      0.132000
     32 H12'       -0.9480   -0.4670   -3.5590 hc        1 2LA      0.093000
     33 H22'        0.4800    0.0030   -2.8240 hc        1 2LA      0.093000
     34 HN2         5.3370    1.9500    0.3350 hn        1 2LA      0.266000
     35 HN2A        4.8680    0.7420   -0.5590 hn        1 2LA      0.266000
     36 H3'         0.7260   -1.7900   -1.9300 h1        1 2LA      0.211000
     37 H4'        -1.8630   -2.7410   -1.8240 h1        1 2LA      0.087000
     38 H15'       -0.4210   -2.0560    0.3910 h1        1 2LA      0.044500
     39 H25'        0.1230   -3.2790   -0.4750 h1        1 2LA      0.044500
     40 OP3        -2.3620   -5.4180    2.0170 o         1 2LA     -1.231000
     41 HO3'        0.7190   -2.9080   -3.7450 ho        1 2LA      0.240000
@<TRIPOS>BOND
     1    1   16 1   
     2    1   24 1   
     3    1   40 1   
     4    2    3 1   
     5    2    8 1   
     6    2   25 1   
     7    3    4 1   
     8    3    5 1   
     9    4   34 1   
    10    4   35 1   
    11    6    7 1   
    12    6   12 1   
    13    7   10 1   
    14    8    9 1   
    15   10   11 1   
    16   11   12 1   
    17   13   17 1   
    18   13   22 1   
    19   13   29 1   
    20   14   15 1   
    21   14   27 1   
    22   14   28 1   
    23   15   30 1   
    24   15   31 1   
    25   17   19 1   
    26   17   32 1   
    27   17   33 1   
    28   19   20 1   
    29   19   21 1   
    30   19   36 1   
    31   20   41 1   
    32   21   22 1   
    33   21   23 1   
    34   21   37 1   
    35   23   24 1   
    36   23   38 1   
    37   23   39 1   
@<TRIPOS>SUBSTRUCTURE
     1 2LA         1 TEMP              0 ****  ****    0 ROOT
