@<TRIPOS>MOLECULE
2LA
   41    43     1     0     0
SMALL
bcc


@<TRIPOS>ATOM
      1 P           3.3010   -1.2360    0.9210 p5        1 2LA      1.345900
      2 N1         -5.3140   -0.0730   -0.5060 n         1 2LA     -0.493400
      3 C2         -4.8320    1.2110   -0.8310 cc        1 2LA      0.555800
      4 N2         -5.8160    2.1300   -1.3650 nh        1 2LA     -0.861800
      5 N3         -3.5670    1.6140   -0.6620 nd        1 2LA     -0.620100
      6 C4         -2.7100    0.6740   -0.1030 cd        1 2LA      0.100100
      7 C5         -3.1120   -0.6620    0.2770 cc        1 2LA     -0.228600
      8 C6         -4.4790   -1.0610    0.0750 c         1 2LA      0.743100
      9 O6         -5.0210   -2.1550    0.3400 o         1 2LA     -0.678500
     10 C7         -1.9550   -1.3150    0.7990 cc        1 2LA     -0.165300
     11 C8         -0.8990   -0.3860    0.7370 cd        1 2LA     -0.089300
     12 N9         -1.3540    0.8200    0.2040 na        1 2LA     -0.042100
     13 C1'        -0.5370    1.9980   -0.0810 c3        1 2LA      0.245800
     14 N11        -0.5430   -3.3390    1.2240 n3        1 2LA     -0.922800
     15 OP1         1.8390   -1.5870    1.1320 o         1 2LA     -0.927167
     16 C2'         0.3470    2.4180    1.1150 c3        1 2LA     -0.119400
     17 OP2         4.2550   -2.3600    0.6890 o         1 2LA     -0.927167
     18 C3'         1.6920    1.7500    0.8230 c3        1 2LA      0.111100
     19 O3'         2.7550    2.6000    1.1890 oh        1 2LA     -0.655800
     20 C4'         1.6840    1.4720   -0.6970 c3        1 2LA      0.062100
     21 O4'         0.3460    1.7660   -1.1780 os        1 2LA     -0.438600
     22 C5'         2.0330    0.0100   -1.0670 c3        1 2LA      0.218400
     23 O5'         3.2500   -0.3850   -0.5880 os        1 2LA     -0.568200
     24 H1N1       -6.2780   -0.2820   -0.6260 hn        1 2LA      0.315500
     25 H8          0.1710   -0.5590    1.0280 h4        1 2LA      0.301000
     26 H10        -2.1350   -2.6950    2.4030 h1        1 2LA      0.032200
     27 H10A       -2.5870   -3.3420    0.7650 h1        1 2LA      0.032200
     28 H1'        -1.2290    2.8210   -0.4190 h2        1 2LA      0.070700
     29 HN11       -0.2330   -3.3670    0.2710 hn        1 2LA      0.384300
     30 HN1A        0.1650   -2.8230    1.7320 hn        1 2LA      0.384300
     31 H12'        0.4470    3.5300    1.1200 hc        1 2LA      0.051700
     32 H22'       -0.0610    2.0890    2.0980 hc        1 2LA      0.051700
     33 HN2        -5.9790    1.9140   -2.3300 hn        1 2LA      0.368800
     34 HN2A       -5.4870    3.0750   -1.2880 hn        1 2LA      0.368800
     35 H3'         1.8000    0.7590    1.3760 h1        1 2LA      0.148700
     36 H4'         2.3560    2.1880   -1.2350 h1        1 2LA      0.049700
     37 H15'        1.2080   -0.6650   -0.7050 h1        1 2LA      0.001200
     38 H25'        2.0540   -0.0300   -2.1970 h1        1 2LA      0.001200
     39 OP3         3.7130   -0.0700    1.7890 o         1 2LA     -0.927167
     40 HO3'        3.4720    1.9910    1.4700 ho        1 2LA      0.480000
     41 C10        -1.8330   -2.7030    1.3130 c3        1 2LA      0.237100
@<TRIPOS>BOND
     1    1   15 1   
     2    1   17 1   
     3    1   23 1   
     4    1   39 1   
     5    2    3 1   
     6    2    8 1   
     7    2   24 1   
     8    3    4 1   
     9    3    5 2   
    10    4   33 1   
    11    4   34 1   
    12    5    6 1   
    13    6    7 2   
    14    6   12 1   
    15    7    8 1   
    16    7   10 1   
    17    8    9 2   
    18   10   11 2   
    19   10   41 1   
    20   11   12 1   
    21   11   25 1   
    22   12   13 1   
    23   13   16 1   
    24   13   21 1   
    25   13   28 1   
    26   14   29 1   
    27   14   30 1   
    28   14   41 1   
    29   16   18 1   
    30   16   31 1   
    31   16   32 1   
    32   18   19 1   
    33   18   20 1   
    34   18   35 1   
    35   19   40 1   
    36   20   21 1   
    37   20   22 1   
    38   20   36 1   
    39   22   23 1   
    40   22   37 1   
    41   22   38 1   
    42   26   41 1   
    43   27   41 1   
@<TRIPOS>SUBSTRUCTURE
     1 2LA         1 TEMP              0 ****  ****    0 ROOT
