@<TRIPOS>MOLECULE
2LB
   26    27     1     0     0
SMALL
bcc


@<TRIPOS>ATOM
      1 OAF         0.1830   -0.1910   -0.2230 o         1 2LB     -0.722533
      2 SAQ         1.5790   -0.2090   -0.1850 s6        1 2LB      1.419800
      3 OAD         2.1670   -1.4180   -0.5650 o         1 2LB     -0.722533
      4 OAE         2.1960    0.9390   -0.7030 o         1 2LB     -0.722533
      5 CAP         2.0110   -0.0540    1.7220 c3        1 2LB     -0.273200
      6 CAA         3.5180   -0.2030    1.7230 c3        1 2LB     -0.062100
      7 CAK         1.6510    1.3430    2.1670 c3        1 2LB     -0.128400
      8 CAL         0.2630    1.5700    2.6850 c         1 2LB      0.596700
      9 OAB        -0.1610    2.7230    2.8700 o         1 2LB     -0.577100
     10 CAN        -0.5680    0.3940    3.0160 ca        1 2LB     -0.113600
     11 CAI        -1.9050    0.5710    3.3940 ca        1 2LB     -0.091000
     12 CAG        -2.7000   -0.5300    3.7020 ca        1 2LB     -0.142000
     13 CAH        -2.1650   -1.8170    3.6350 ca        1 2LB     -0.128000
     14 CAJ        -0.8360   -2.0010    3.2630 ca        1 2LB     -0.098000
     15 CAO        -0.0320   -0.8990    2.9470 ca        1 2LB     -0.092600
     16 CAM         1.3840   -1.1140    2.5430 c         1 2LB      0.625700
     17 OAC         1.9660   -2.1550    2.8890 o         1 2LB     -0.570100
     18 H1          3.9760    0.5820    1.0720 hc        1 2LB      0.039033
     19 H2          3.9320   -0.1020    2.7550 hc        1 2LB      0.039033
     20 H3          3.7940   -1.2140    1.3310 hc        1 2LB      0.039033
     21 H4          1.8250    2.0500    1.3030 hc        1 2LB      0.076700
     22 H5          2.3480    1.6680    2.9910 hc        1 2LB      0.076700
     23 H8         -2.3160    1.5920    3.4360 ha        1 2LB      0.145000
     24 H9         -3.7510   -0.3850    3.9900 ha        1 2LB      0.118000
     25 H10        -2.7940   -2.6880    3.8710 ha        1 2LB      0.119000
     26 H11        -0.4000   -3.0110    3.2040 ha        1 2LB      0.149000
@<TRIPOS>BOND
     1    1    2 1   
     2    2    3 1   
     3    2    4 1   
     4    2    5 1   
     5    5    6 1   
     6    5    7 1   
     7    5   16 1   
     8    6   18 1   
     9    6   19 1   
    10    6   20 1   
    11    7    8 1   
    12    7   21 1   
    13    7   22 1   
    14    8    9 2   
    15    8   10 1   
    16   10   11 ar  
    17   10   15 ar  
    18   11   12 ar  
    19   11   23 1   
    20   12   13 ar  
    21   12   24 1   
    22   13   14 ar  
    23   13   25 1   
    24   14   15 ar  
    25   14   26 1   
    26   15   16 1   
    27   16   17 2   
@<TRIPOS>SUBSTRUCTURE
     1 2LB         1 TEMP              0 ****  ****    0 ROOT
