@<TRIPOS>MOLECULE
2LB
   26    27     1     0     0
SMALL
bcc


@<TRIPOS>ATOM
      1 OAF         0.1700   -0.2150   -0.2240 o         1 2LB     -0.722533
      2 SAQ         1.5670   -0.2320   -0.1910 s6        1 2LB      1.419800
      3 OAD         2.1540   -1.4440   -0.5630 o         1 2LB     -0.722533
      4 OAE         2.1810    0.9120   -0.7210 o         1 2LB     -0.722533
      5 CAP         2.0060   -0.0600    1.7140 c3        1 2LB     -0.273200
      6 CAA         3.5130   -0.2090    1.7100 c3        1 2LB     -0.062100
      7 CAK         1.6460    1.3410    2.1470 c3        1 2LB     -0.128400
      8 CAL         0.2600    1.5700    2.6690 c         1 2LB      0.596700
      9 OAB        -0.1640    2.7250    2.8450 o         1 2LB     -0.577100
     10 CAN        -0.5690    0.3970    3.0130 ca        1 2LB     -0.113600
     11 CAI        -1.9050    0.5760    3.3940 ca        1 2LB     -0.091000
     12 CAG        -2.6990   -0.5230    3.7140 ca        1 2LB     -0.142000
     13 CAH        -2.1630   -1.8100    3.6570 ca        1 2LB     -0.128000
     14 CAJ        -0.8350   -1.9960    3.2810 ca        1 2LB     -0.098000
     15 CAO        -0.0320   -0.8960    2.9530 ca        1 2LB     -0.092600
     16 CAM         1.3820   -1.1140    2.5450 c         1 2LB      0.625700
     17 OAC         1.9660   -2.1510    2.8980 o         1 2LB     -0.570100
     18 H1          3.9680    0.5710    1.0520 hc        1 2LB      0.039033
     19 H2          3.9300   -0.0990    2.7400 hc        1 2LB      0.039033
     20 H3          3.7880   -1.2230    1.3270 hc        1 2LB      0.039033
     21 H4          1.8160    2.0400    1.2770 hc        1 2LB      0.076700
     22 H5          2.3460    1.6730    2.9660 hc        1 2LB      0.076700
     23 H8         -2.3160    1.5980    3.4280 ha        1 2LB      0.145000
     24 H9         -3.7480   -0.3760    4.0040 ha        1 2LB      0.118000
     25 H10        -2.7900   -2.6780    3.9020 ha        1 2LB      0.119000
     26 H11        -0.3980   -3.0060    3.2290 ha        1 2LB      0.149000
@<TRIPOS>BOND
     1    1    2 1   
     2    2    3 1   
     3    2    4 1   
     4    2    5 1   
     5    5    6 1   
     6    5    7 1   
     7    5   16 1   
     8    6   18 1   
     9    6   19 1   
    10    6   20 1   
    11    7    8 1   
    12    7   21 1   
    13    7   22 1   
    14    8    9 2   
    15    8   10 1   
    16   10   11 ar  
    17   10   15 ar  
    18   11   12 ar  
    19   11   23 1   
    20   12   13 ar  
    21   12   24 1   
    22   13   14 ar  
    23   13   25 1   
    24   14   15 ar  
    25   14   26 1   
    26   15   16 1   
    27   16   17 2   
@<TRIPOS>SUBSTRUCTURE
     1 2LB         1 TEMP              0 ****  ****    0 ROOT
