@<TRIPOS>MOLECULE
2LC
   57    60     1     0     0
SMALL
bcc


@<TRIPOS>ATOM
      1 C1          0.6890    2.0340   -0.7170 c3        1 2LC     -0.070800
      2 C2          2.0340    1.4790   -0.5700 cc        1 2LC      0.035700
      3 C3          2.9190    1.6780    0.4740 cd        1 2LC     -0.223300
      4 N4          4.1460    0.9800    0.2050 na        1 2LC      0.010800
      5 C5          3.9760    0.3140   -1.0580 cd        1 2LC     -0.029600
      6 C6          2.7060    0.6060   -1.5330 cc        1 2LC     -0.163600
      7 C7          2.1910    0.0590   -2.7960 c         1 2LC      0.594700
      8 O8          1.0290    0.2340   -3.1650 o         1 2LC     -0.472100
      9 C9          3.2060   -0.7030   -3.6000 c3        1 2LC     -0.178400
     10 C10         4.2000   -1.4950   -2.7520 c3        1 2LC     -0.037000
     11 C11         3.4810   -2.6150   -2.0150 c3        1 2LC     -0.099600
     12 C12         5.2480   -2.1020   -3.6780 c3        1 2LC     -0.099600
     13 C13         4.9280   -0.5860   -1.7440 c3        1 2LC     -0.035100
     14 C14         5.2290    0.9980    1.0250 ca        1 2LC      0.200800
     15 C15         5.0920    1.3810    2.4120 ca        1 2LC     -0.182000
     16 C16         6.1700    1.4200    3.2710 ca        1 2LC      0.128600
     17 N17         5.9610    1.7780    4.6830 n4        1 2LC     -0.654400
     18 C18         4.5380    1.9010    5.1750 c3        1 2LC      0.083500
     19 C20         4.5010    1.9610    6.7210 c3        1 2LC     -0.140400
     20 C21         4.2730    3.4390    7.0570 c3        1 2LC      0.105400
     21 O22         4.2820    4.1600    5.8120 os        1 2LC     -0.388600
     22 C23         3.9120    3.2640    4.7740 c3        1 2LC      0.099400
     23 C24         7.5090    1.1220    2.8250 ca        1 2LC     -0.332600
     24 C25         8.6260    1.2410    3.7330 c         1 2LC      0.581700
     25 N26        10.0360    1.0540    3.2430 n4        1 2LC     -0.738400
     26 O27         8.5880    1.5060    4.9400 o         1 2LC     -0.508100
     27 C28         7.6230    0.7210    1.4580 ca        1 2LC      0.259900
     28 F29         8.8360    0.3930    0.9530 f         1 2LC     -0.122900
     29 C30         6.5400    0.6580    0.5910 ca        1 2LC     -0.227000
     30 H1          0.2610    2.3380    0.2690 hc        1 2LC      0.085700
     31 H2          0.7210    2.9340   -1.3870 hc        1 2LC      0.085700
     32 H3          0.0100    1.2810   -1.2000 hc        1 2LC      0.085700
     33 H4          2.8040    2.2990    1.3610 h4        1 2LC      0.177000
     34 H5          3.7590    0.0400   -4.2380 hc        1 2LC      0.098200
     35 H6          2.6700   -1.4070   -4.2930 hc        1 2LC      0.098200
     36 H7          4.2080   -3.2300   -1.4340 hc        1 2LC      0.051700
     37 H8          2.9620   -3.2820   -2.7460 hc        1 2LC      0.051700
     38 H9          2.7190   -2.1960   -1.3150 hc        1 2LC      0.051700
     39 H10         5.7760   -1.3060   -4.2570 hc        1 2LC      0.051700
     40 H11         6.0000   -2.6780   -3.0860 hc        1 2LC      0.051700
     41 H12         4.7580   -2.7990   -4.4010 hc        1 2LC      0.051700
     42 H13         5.6840    0.0360   -2.3010 hc        1 2LC      0.066700
     43 H14         5.4720   -1.2400   -1.0120 hc        1 2LC      0.066700
     44 H15         4.0730    1.6220    2.7700 ha        1 2LC      0.188000
     45 H16         6.4320    2.6830    4.8580 hn        1 2LC      0.475800
     46 H17         3.9580    1.0190    4.7870 hx        1 2LC      0.125700
     47 H18         5.4230    1.5680    7.2150 hc        1 2LC      0.101200
     48 H19         3.6410    1.3370    7.0790 hc        1 2LC      0.101200
     49 H20         5.0950    3.8890    7.6710 h1        1 2LC      0.099200
     50 H21         3.2850    3.6010    7.5590 h1        1 2LC      0.099200
     51 H22         2.7970    3.1470    4.7340 h1        1 2LC      0.094700
     52 H23         4.2950    3.7110    3.8230 h1        1 2LC      0.094700
     53 H24        10.2390    1.7100    2.4780 hn        1 2LC      0.487467
     54 H25        10.1670    0.0970    2.8890 hn        1 2LC      0.487467
     55 H26         6.7340    0.3710   -0.4600 ha        1 2LC      0.212000
     56 H172        6.4360    1.0650    5.2640 hn        1 2LC      0.475800
     57 H263       10.6940    1.2220    4.0220 hn        1 2LC      0.487467
@<TRIPOS>BOND
     1    1    2 1   
     2    1   30 1   
     3    1   31 1   
     4    1   32 1   
     5    2    3 2   
     6    2    6 1   
     7    3    4 1   
     8    3   33 1   
     9    4    5 1   
    10    4   14 1   
    11    5    6 2   
    12    5   13 1   
    13    6    7 1   
    14    7    8 2   
    15    7    9 1   
    16    9   10 1   
    17    9   34 1   
    18    9   35 1   
    19   10   11 1   
    20   10   12 1   
    21   10   13 1   
    22   11   36 1   
    23   11   37 1   
    24   11   38 1   
    25   12   39 1   
    26   12   40 1   
    27   12   41 1   
    28   13   42 1   
    29   13   43 1   
    30   14   15 ar  
    31   14   29 ar  
    32   15   16 ar  
    33   15   44 1   
    34   16   17 1   
    35   16   23 ar  
    36   17   18 1   
    37   17   45 1   
    38   17   56 1   
    39   18   19 1   
    40   18   22 1   
    41   18   46 1   
    42   19   20 1   
    43   19   47 1   
    44   19   48 1   
    45   20   21 1   
    46   20   49 1   
    47   20   50 1   
    48   21   22 1   
    49   22   51 1   
    50   22   52 1   
    51   23   24 1   
    52   23   27 ar  
    53   24   25 1   
    54   24   26 2   
    55   25   53 1   
    56   25   54 1   
    57   25   57 1   
    58   27   28 1   
    59   27   29 ar  
    60   29   55 1   
@<TRIPOS>SUBSTRUCTURE
     1 2LC         1 TEMP              0 ****  ****    0 ROOT
