@<TRIPOS>MOLECULE
2LC
   55    58     1     0     0
SMALL
bcc


@<TRIPOS>ATOM
      1 C1          3.2640    3.2630   -1.8110 c3        1 2LC     -0.040800
      2 C2          2.7050    2.0730   -1.1680 cc        1 2LC     -0.063300
      3 C3          1.3940    1.6010   -1.2900 cd        1 2LC     -0.173300
      4 N4          1.2550    0.4280   -0.5230 na        1 2LC     -0.000200
      5 C5          2.4740    0.1640    0.1020 cd        1 2LC     -0.035600
      6 C6          3.3910    1.1660   -0.2820 cc        1 2LC     -0.240600
      7 C7          4.7600    1.1740    0.1990 c         1 2LC      0.613700
      8 O8          5.6340    1.9570   -0.1970 o         1 2LC     -0.548100
      9 C9          5.0590    0.1600    1.2770 c3        1 2LC     -0.174400
     10 C10         4.3010   -1.1590    1.1310 c3        1 2LC     -0.039000
     11 C11         4.7700   -1.8930   -0.1170 c3        1 2LC     -0.092100
     12 C12         4.5910   -2.0230    2.3530 c3        1 2LC     -0.092100
     13 C13         2.7870   -0.9190    1.0600 c3        1 2LC     -0.017100
     14 C14         0.0520   -0.3040   -0.4210 ca        1 2LC      0.097800
     15 C15        -1.1490    0.3740   -0.1740 ca        1 2LC     -0.243000
     16 C16        -2.3830   -0.3220   -0.0880 ca        1 2LC      0.274600
     17 N17        -3.5540    0.3520    0.2020 nh        1 2LC     -0.749600
     18 C18        -3.6870    1.7740   -0.0080 c3        1 2LC      0.192500
     19 C20        -5.1150    2.2170   -0.4070 c3        1 2LC     -0.122400
     20 C21        -5.4570    3.3780    0.5170 c3        1 2LC      0.125400
     21 O22        -4.3110    3.6860    1.3150 os        1 2LC     -0.418600
     22 C23        -3.3690    2.6170    1.2570 c3        1 2LC      0.113400
     23 C24        -2.3810   -1.7410   -0.2260 ca        1 2LC     -0.265600
     24 C25        -3.6570   -2.5050   -0.1410 c         1 2LC      0.683700
     25 N26        -3.6890   -3.6400    0.6280 n         1 2LC     -0.651000
     26 O27        -4.7050   -2.1160   -0.7060 o         1 2LC     -0.633100
     27 C28        -1.1600   -2.3980   -0.4780 ca        1 2LC      0.205900
     28 F29        -1.1310   -3.7450   -0.6400 f         1 2LC     -0.137900
     29 C30         0.0500   -1.7020   -0.5920 ca        1 2LC     -0.243000
     30 H1          2.9740    3.3050   -2.8900 hc        1 2LC      0.053367
     31 H2          2.8840    4.1900   -1.3100 hc        1 2LC      0.053367
     32 H3          4.3820    3.2560   -1.7370 hc        1 2LC      0.053367
     33 H4          0.5570    1.9870   -1.8710 h4        1 2LC      0.174000
     34 H5          6.1610   -0.0480    1.2890 hc        1 2LC      0.072200
     35 H6          4.7900    0.6340    2.2590 hc        1 2LC      0.072200
     36 H7          5.8690   -2.0810   -0.0640 hc        1 2LC      0.040867
     37 H8          4.2460   -2.8740   -0.2110 hc        1 2LC      0.040867
     38 H9          4.5550   -1.2810   -1.0260 hc        1 2LC      0.040867
     39 H10         4.2760   -1.5010    3.2880 hc        1 2LC      0.040867
     40 H11         4.0380   -2.9910    2.2800 hc        1 2LC      0.040867
     41 H12         5.6840   -2.2410    2.4170 hc        1 2LC      0.040867
     42 H13         2.4120   -0.6160    2.0770 hc        1 2LC      0.061700
     43 H14         2.2740   -1.8780    0.7850 hc        1 2LC      0.061700
     44 H15        -1.1290    1.4670   -0.0270 ha        1 2LC      0.158000
     45 H16        -4.4040   -0.1730    0.1410 hn        1 2LC      0.457800
     46 H17        -2.9820    2.0990   -0.8310 h1        1 2LC      0.059700
     47 H18        -5.1220    2.5410   -1.4770 hc        1 2LC      0.066200
     48 H19        -5.8690    1.3970   -0.3000 hc        1 2LC      0.066200
     49 H20        -5.7040    4.3160   -0.0420 h1        1 2LC      0.052200
     50 H21        -6.2990    3.1200    1.2110 h1        1 2LC      0.052200
     51 H22        -3.4530    2.0230    2.2030 h1        1 2LC      0.058700
     52 H23        -2.3590    3.0950    1.1920 h1        1 2LC      0.058700
     53 H24        -2.8530   -4.0390    0.9740 hn        1 2LC      0.315500
     54 H25        -4.5110   -4.1940    0.6270 hn        1 2LC      0.315500
     55 H26         0.9700   -2.2560   -0.8310 ha        1 2LC      0.166000
@<TRIPOS>BOND
     1    1    2 1   
     2    1   30 1   
     3    1   31 1   
     4    1   32 1   
     5    2    3 2   
     6    2    6 1   
     7    3    4 1   
     8    3   33 1   
     9    4    5 1   
    10    4   14 1   
    11    5    6 2   
    12    5   13 1   
    13    6    7 1   
    14    7    8 2   
    15    7    9 1   
    16    9   10 1   
    17    9   34 1   
    18    9   35 1   
    19   10   11 1   
    20   10   12 1   
    21   10   13 1   
    22   11   36 1   
    23   11   37 1   
    24   11   38 1   
    25   12   39 1   
    26   12   40 1   
    27   12   41 1   
    28   13   42 1   
    29   13   43 1   
    30   14   15 ar  
    31   14   29 ar  
    32   15   16 ar  
    33   15   44 1   
    34   16   17 1   
    35   16   23 ar  
    36   17   18 1   
    37   17   45 1   
    38   18   19 1   
    39   18   22 1   
    40   18   46 1   
    41   19   20 1   
    42   19   47 1   
    43   19   48 1   
    44   20   21 1   
    45   20   49 1   
    46   20   50 1   
    47   21   22 1   
    48   22   51 1   
    49   22   52 1   
    50   23   24 1   
    51   23   27 ar  
    52   24   25 1   
    53   24   26 2   
    54   25   53 1   
    55   25   54 1   
    56   27   28 1   
    57   27   29 ar  
    58   29   55 1   
@<TRIPOS>SUBSTRUCTURE
     1 2LC         1 TEMP              0 ****  ****    0 ROOT
