@<TRIPOS>MOLECULE
2LC
   55    51     1     0     0
SMALL
bcc


@<TRIPOS>ATOM
      1 C1         -4.5730   -2.0790   -1.3920 c3        1 2LC     -0.166000
      2 C2         -3.1500   -1.5800   -1.3110 c2        1 2LC     -0.056000
      3 C3         -2.2830   -1.7220   -0.2090 c1        1 2LC     -0.150000
      4 N4         -1.0590   -1.1400   -0.5420 n2        1 2LC     -0.093000
      5 C5         -1.1550   -0.6470   -1.8110 c1        1 2LC     -0.004000
      6 C6         -2.4750   -0.9270   -2.2940 c1        1 2LC     -0.220000
      7 C7         -2.9150   -0.2940   -3.6740 c1        1 2LC      0.304000
      8 O8         -4.0560   -0.4020   -4.0550 o         1 2LC     -0.309000
      9 C9         -2.0350    0.6790   -4.2850 c3        1 2LC     -0.203000
     10 C10        -0.6240    0.3580   -4.0970 c3        1 2LC     -0.039000
     11 C11        -0.3120   -0.9120   -4.9330 c3        1 2LC     -0.210000
     12 C12         0.1990    1.5150   -4.6670 c3        1 2LC     -0.210000
     13 C13        -0.1730    0.1210   -2.7510 c2        1 2LC     -0.103000
     14 C14         0.1140   -1.1010    0.2950 c1        1 2LC      0.139000
     15 C15         0.1540   -0.2510    1.4030 c1        1 2LC     -0.240000
     16 C16         1.2580   -0.2730    2.2630 c1        1 2LC      0.185000
     17 N17         1.2410    0.5250    3.5010 n2        1 2LC     -0.296000
     18 C18         0.9550    1.8660    3.4490 c3        1 2LC     -0.014000
     19 C20        -0.2260    2.1810    4.3200 c3        1 2LC     -0.221000
     20 C21         0.2840    2.8290    5.3770 c3        1 2LC     -0.024000
     21 O22         1.6180    3.5300    4.8710 os        1 2LC     -0.274000
     22 C23         2.1590    2.7110    4.0420 c3        1 2LC     -0.027000
     23 C24         2.3160   -1.1420    2.0130 c2        1 2LC     -0.237000
     24 C25         3.5460   -1.1610    2.9640 c2        1 2LC      0.359000
     25 N26         4.6710   -2.0160    2.6720 n         1 2LC     -0.411000
     26 O27         3.5820   -0.4140    3.9300 o         1 2LC     -0.392000
     27 C28         2.2760   -1.9930    0.9030 c1        1 2LC      0.168000
     28 F29         3.2190   -2.9310    0.7500 f         1 2LC     -0.103000
     29 C30         1.1730   -1.9710    0.0450 c1        1 2LC     -0.239000
     30 H1         -5.1890   -1.3130   -1.3820 hc        1 2LC      0.093000
     31 H2         -4.6940   -2.5850   -2.2210 hc        1 2LC      0.093000
     32 H3         -4.7600   -2.6600   -0.6230 hc        1 2LC      0.093000
     33 H4         -2.5020   -2.1580    0.6440 DU        1 2LC      0.173000
     34 H5         -2.1470    1.6120   -4.0130 hc        1 2LC      0.111500
     35 H6         -2.2890    0.7340   -5.2280 hc        1 2LC      0.111500
     36 H7         -0.6360   -0.7860   -5.8580 hc        1 2LC      0.080167
     37 H8          0.6570   -1.0670   -4.9440 hc        1 2LC      0.080167
     38 H9         -0.7660   -1.6940   -4.5280 hc        1 2LC      0.080167
     39 H10        -0.0810    2.3600   -4.2370 hc        1 2LC      0.080167
     40 H11         1.1500    1.3580   -4.4910 hc        1 2LC      0.080167
     41 H12         0.0530    1.5760   -5.6300 hc        1 2LC      0.080167
     42 H13        -0.0210    0.9980   -2.3450 ha        1 2LC      0.101000
     43 H14         0.6340   -0.4180   -2.8160 ha        1 2LC      0.101000
     44 H15        -0.5550    0.4000    1.5410 ha        1 2LC      0.157000
     45 H16         1.3680    0.1120    4.3170 hn        1 2LC      0.249000
     46 H17         0.7750    2.1380    2.5230 h1        1 2LC      0.111000
     47 H18        -0.6710    1.3470    4.6110 hc        1 2LC      0.102000
     48 H19        -0.8590    2.7560    3.8400 hc        1 2LC      0.102000
     49 H20         0.4900    2.1950    6.0920 h1        1 2LC      0.092500
     50 H21        -0.3500    3.5030    5.6960 h1        1 2LC      0.092500
     51 H22         2.7940    2.1180    4.5130 h1        1 2LC      0.099500
     52 H23         2.6180    3.2050    3.3230 h1        1 2LC      0.099500
     53 H24         4.9740   -2.0920    1.8150 hn        1 2LC      0.229500
     54 H25         5.1320   -2.4260    3.3650 hn        1 2LC      0.229500
     55 H26         1.1450   -2.5740   -0.7410 ha        1 2LC      0.167000
@<TRIPOS>BOND
     1    1    2 1   
     2    1   30 1   
     3    1   31 1   
     4    1   32 1   
     5    2    3 1   
     6    2    6 1   
     7    3    4 1   
     8    4    5 1   
     9    5    6 1   
    10    7    8 1   
    11    7    9 1   
    12    9   10 1   
    13    9   34 1   
    14    9   35 1   
    15   10   11 1   
    16   10   12 1   
    17   10   13 1   
    18   11   36 1   
    19   11   37 1   
    20   11   38 1   
    21   12   39 1   
    22   12   40 1   
    23   12   41 1   
    24   13   42 1   
    25   13   43 1   
    26   14   29 1   
    27   15   16 1   
    28   15   44 1   
    29   16   23 1   
    30   17   18 1   
    31   17   45 1   
    32   18   19 1   
    33   18   22 1   
    34   18   46 1   
    35   19   20 1   
    36   19   47 1   
    37   19   48 1   
    38   20   21 1   
    39   20   49 1   
    40   20   50 1   
    41   21   22 1   
    42   22   51 1   
    43   22   52 1   
    44   23   24 1   
    45   23   27 1   
    46   24   25 1   
    47   24   26 1   
    48   25   53 1   
    49   25   54 1   
    50   27   28 1   
    51   29   55 1   
@<TRIPOS>SUBSTRUCTURE
     1 2LC         1 TEMP              0 ****  ****    0 ROOT
