@<TRIPOS>MOLECULE
2LC
   56    59     1     0     0
SMALL
bcc


@<TRIPOS>ATOM
      1 C1          0.0860    0.2860   -0.0220 c3        1 2LC     -0.051800
      2 C2          1.5480    0.2040   -0.0370 cc        1 2LC     -0.033300
      3 C3          2.3990    0.2890    1.0600 cd        1 2LC     -0.181300
      4 N4          3.7420    0.1520    0.6200 na        1 2LC     -0.027200
      5 C5          3.7250    0.0020   -0.7810 cd        1 2LC     -0.031600
      6 C6          2.3880    0.0300   -1.2050 cc        1 2LC     -0.209600
      7 C7          2.0160   -0.1000   -2.6090 c         1 2LC      0.604700
      8 O8          0.8510   -0.2230   -2.9980 o         1 2LC     -0.515100
      9 C9          3.1710   -0.0360   -3.5740 c3        1 2LC     -0.176400
     10 C10         4.4600   -0.6720   -3.0550 c3        1 2LC     -0.039000
     11 C11         4.2760   -2.1750   -2.9050 c3        1 2LC     -0.095100
     12 C12         5.5720   -0.4050   -4.0620 c3        1 2LC     -0.095100
     13 C13         4.8750   -0.0580   -1.7090 c3        1 2LC     -0.021100
     14 C14         4.8340    0.1820    1.4850 ca        1 2LC      0.179800
     15 C15         4.8350    1.0320    2.5890 ca        1 2LC     -0.282000
     16 C16         5.9190    1.0800    3.5220 ca        1 2LC      0.347600
     17 N17         5.8190    1.8570    4.6320 nu        1 2LC     -0.717600
     18 C18         4.6890    2.7220    4.9190 c3        1 2LC      0.177500
     19 C20         4.7550    3.3260    6.3420 c3        1 2LC     -0.122400
     20 C21         5.0130    4.8170    6.1430 c3        1 2LC      0.116400
     21 O22         5.1640    5.0630    4.7390 os        1 2LC     -0.403600
     22 C23         4.6060    3.9770    4.0080 c3        1 2LC      0.103400
     23 C24         7.1010    0.2960    3.2440 ca        1 2LC     -0.366600
     24 C25         8.2580    0.4320    4.0810 c         1 2LC      0.590700
     25 N26         9.6080    0.0050    3.5160 nz        1 2LC     -0.755400
     26 O27         8.3860    0.8880    5.2180 o         1 2LC     -0.494100
     27 C28         7.0320   -0.6180    2.1380 ca        1 2LC      0.206900
     28 F29         8.0580   -1.4860    1.9260 f         1 2LC     -0.152900
     29 C30         5.9500   -0.6910    1.2880 ca        1 2LC     -0.224000
     30 H1         -0.3320   -0.1970    0.8960 hc        1 2LC      0.065033
     31 H2         -0.2400    1.3580   -0.0370 hc        1 2LC      0.065033
     32 H3         -0.3410   -0.2190   -0.9270 hc        1 2LC      0.065033
     33 H4          2.1700    0.3950    2.1200 h4        1 2LC      0.176000
     34 H5          3.3550    1.0490   -3.8020 hc        1 2LC      0.082700
     35 H6          2.8740   -0.5380   -4.5340 hc        1 2LC      0.082700
     36 H7          3.9890   -2.6260   -3.8860 hc        1 2LC      0.044700
     37 H8          5.2250   -2.6510   -2.5610 hc        1 2LC      0.044700
     38 H9          3.4710   -2.3950   -2.1630 hc        1 2LC      0.044700
     39 H10         5.3110   -0.8610   -5.0480 hc        1 2LC      0.044700
     40 H11         6.5310   -0.8530   -3.7060 hc        1 2LC      0.044700
     41 H12         5.7200    0.6920   -4.2060 hc        1 2LC      0.044700
     42 H13         5.2450    0.9920   -1.8830 hc        1 2LC      0.058200
     43 H14         5.7300   -0.6500   -1.2930 hc        1 2LC      0.058200
     44 H15         3.9700    1.7020    2.7470 ha        1 2LC      0.176000
     45 H16         6.5950    1.9400    5.2560 hn        1 2LC      0.465800
     46 H17         3.7480    2.1080    4.8130 h1        1 2LC      0.084700
     47 H18         5.5450    2.8640    6.9840 hc        1 2LC      0.077200
     48 H19         3.7730    3.1590    6.8520 hc        1 2LC      0.077200
     49 H20         5.9690    5.1610    6.6160 h1        1 2LC      0.068700
     50 H21         4.1590    5.4390    6.5160 h1        1 2LC      0.068700
     51 H22         5.1960    3.9040    3.0610 h1        1 2LC      0.068200
     52 H23         3.5310    4.1990    3.7780 h1        1 2LC      0.068200
     53 H24        10.3550    0.3150    4.1480 hn        1 2LC      0.467467
     54 H25         9.6380   -1.0180    3.4300 hn        1 2LC      0.467467
     55 H26         5.9330   -1.4530    0.4910 ha        1 2LC      0.190000
     56 H263        9.7430    0.4100    2.5880 hn        1 2LC      0.467467
@<TRIPOS>BOND
     1    1    2 1   
     2    1   30 1   
     3    1   31 1   
     4    1   32 1   
     5    2    3 2   
     6    2    6 1   
     7    3    4 1   
     8    3   33 1   
     9    4    5 1   
    10    4   14 1   
    11    5    6 2   
    12    5   13 1   
    13    6    7 1   
    14    7    8 2   
    15    7    9 1   
    16    9   10 1   
    17    9   34 1   
    18    9   35 1   
    19   10   11 1   
    20   10   12 1   
    21   10   13 1   
    22   11   36 1   
    23   11   37 1   
    24   11   38 1   
    25   12   39 1   
    26   12   40 1   
    27   12   41 1   
    28   13   42 1   
    29   13   43 1   
    30   14   15 ar  
    31   14   29 ar  
    32   15   16 ar  
    33   15   44 1   
    34   16   17 1   
    35   16   23 ar  
    36   17   18 1   
    37   17   45 1   
    38   18   19 1   
    39   18   22 1   
    40   18   46 1   
    41   19   20 1   
    42   19   47 1   
    43   19   48 1   
    44   20   21 1   
    45   20   49 1   
    46   20   50 1   
    47   21   22 1   
    48   22   51 1   
    49   22   52 1   
    50   23   24 1   
    51   23   27 ar  
    52   24   25 1   
    53   24   26 2   
    54   25   53 1   
    55   25   54 1   
    56   25   56 1   
    57   27   28 1   
    58   27   29 ar  
    59   29   55 1   
@<TRIPOS>SUBSTRUCTURE
     1 2LC         1 TEMP              0 ****  ****    0 ROOT
