@<TRIPOS>MOLECULE
2LC
   56    59     1     0     0
SMALL
bcc


@<TRIPOS>ATOM
      1 C1          0.0860    0.2970   -0.0280 c3        1 2LC     -0.051800
      2 C2          1.5470    0.2110   -0.0410 cc        1 2LC     -0.033300
      3 C3          2.3970    0.2960    1.0580 cd        1 2LC     -0.181300
      4 N4          3.7410    0.1540    0.6200 na        1 2LC     -0.027200
      5 C5          3.7250   -0.0010   -0.7800 cd        1 2LC     -0.031600
      6 C6          2.3890    0.0310   -1.2060 cc        1 2LC     -0.209600
      7 C7          2.0190   -0.1020   -2.6100 c         1 2LC      0.604700
      8 O8          0.8540   -0.2220   -3.0010 o         1 2LC     -0.515100
      9 C9          3.1760   -0.0440   -3.5740 c3        1 2LC     -0.176400
     10 C10         4.4620   -0.6820   -3.0510 c3        1 2LC     -0.039000
     11 C11         4.2730   -2.1840   -2.8980 c3        1 2LC     -0.095100
     12 C12         5.5770   -0.4220   -4.0570 c3        1 2LC     -0.095100
     13 C13         4.8770   -0.0660   -1.7060 c3        1 2LC     -0.021100
     14 C14         4.8310    0.1820    1.4870 ca        1 2LC      0.179800
     15 C15         4.8330    1.0350    2.5880 ca        1 2LC     -0.282000
     16 C16         5.9150    1.0830    3.5230 ca        1 2LC      0.347600
     17 N17         5.8170    1.8630    4.6310 nh        1 2LC     -0.717600
     18 C18         4.6900    2.7330    4.9130 c3        1 2LC      0.177500
     19 C20         4.7560    3.3420    6.3340 c3        1 2LC     -0.122400
     20 C21         5.0200    4.8320    6.1300 c3        1 2LC      0.116400
     21 O22         5.1740    5.0720    4.7260 os        1 2LC     -0.403600
     22 C23         4.6130    3.9860    3.9970 c3        1 2LC      0.103400
     23 C24         7.0960    0.2930    3.2490 ca        1 2LC     -0.366600
     24 C25         8.2520    0.4280    4.0880 c         1 2LC      0.590700
     25 N26         9.6010   -0.0060    3.5270 n4        1 2LC     -0.755400
     26 O27         8.3790    0.8860    5.2240 o         1 2LC     -0.494100
     27 C28         7.0260   -0.6240    2.1460 ca        1 2LC      0.206900
     28 F29         8.0480   -1.4960    1.9380 f         1 2LC     -0.152900
     29 C30         5.9450   -0.6950    1.2940 ca        1 2LC     -0.224000
     30 H1         -0.2370    1.3700   -0.0460 hc        1 2LC      0.065033
     31 H2         -0.3350   -0.1820    0.8900 hc        1 2LC      0.065033
     32 H3         -0.3420   -0.2090   -0.9320 hc        1 2LC      0.065033
     33 H4          2.1660    0.4060    2.1170 h4        1 2LC      0.176000
     34 H5          3.3640    1.0400   -3.8040 hc        1 2LC      0.082700
     35 H6          2.8790   -0.5480   -4.5330 hc        1 2LC      0.082700
     36 H7          3.9860   -2.6370   -3.8780 hc        1 2LC      0.044700
     37 H8          5.2200   -2.6630   -2.5500 hc        1 2LC      0.044700
     38 H9          3.4660   -2.4000   -2.1560 hc        1 2LC      0.044700
     39 H10         5.3160   -0.8790   -5.0420 hc        1 2LC      0.044700
     40 H11         6.5330   -0.8720   -3.6980 hc        1 2LC      0.044700
     41 H12         5.7280    0.6750   -4.2040 hc        1 2LC      0.044700
     42 H13         5.2500    0.9820   -1.8820 hc        1 2LC      0.058200
     43 H14         5.7290   -0.6600   -1.2870 hc        1 2LC      0.058200
     44 H15         3.9710    1.7090    2.7430 ha        1 2LC      0.176000
     45 H16         6.5920    1.9460    5.2560 hn        1 2LC      0.465800
     46 H17         3.7470    2.1230    4.8080 h1        1 2LC      0.084700
     47 H18         3.7720    3.1810    6.8430 hc        1 2LC      0.077200
     48 H19         5.5430    2.8790    6.9790 hc        1 2LC      0.077200
     49 H20         4.1680    5.4580    6.5000 h1        1 2LC      0.068700
     50 H21         5.9760    5.1730    6.6030 h1        1 2LC      0.068700
     51 H22         3.5400    4.2110    3.7650 h1        1 2LC      0.068200
     52 H23         5.2040    3.9070    3.0510 h1        1 2LC      0.068200
     53 H24         9.6270   -1.0290    3.4440 hn        1 2LC      0.467467
     54 H25        10.3480    0.3030    4.1590 hn        1 2LC      0.467467
     55 H26         5.9260   -1.4600    0.5000 ha        1 2LC      0.190000
     56 H263        9.7390    0.3960    2.5980 hn        1 2LC      0.467467
@<TRIPOS>BOND
     1    1    2 1   
     2    1   30 1   
     3    1   31 1   
     4    1   32 1   
     5    2    3 2   
     6    2    6 1   
     7    3    4 1   
     8    3   33 1   
     9    4    5 1   
    10    4   14 1   
    11    5    6 2   
    12    5   13 1   
    13    6    7 1   
    14    7    8 2   
    15    7    9 1   
    16    9   10 1   
    17    9   34 1   
    18    9   35 1   
    19   10   11 1   
    20   10   12 1   
    21   10   13 1   
    22   11   36 1   
    23   11   37 1   
    24   11   38 1   
    25   12   39 1   
    26   12   40 1   
    27   12   41 1   
    28   13   42 1   
    29   13   43 1   
    30   14   15 ar  
    31   14   29 ar  
    32   15   16 ar  
    33   15   44 1   
    34   16   17 1   
    35   16   23 ar  
    36   17   18 1   
    37   17   45 1   
    38   18   19 1   
    39   18   22 1   
    40   18   46 1   
    41   19   20 1   
    42   19   47 1   
    43   19   48 1   
    44   20   21 1   
    45   20   49 1   
    46   20   50 1   
    47   21   22 1   
    48   22   51 1   
    49   22   52 1   
    50   23   24 1   
    51   23   27 ar  
    52   24   25 1   
    53   24   26 2   
    54   25   53 1   
    55   25   54 1   
    56   25   56 1   
    57   27   28 1   
    58   27   29 ar  
    59   29   55 1   
@<TRIPOS>SUBSTRUCTURE
     1 2LC         1 TEMP              0 ****  ****    0 ROOT
