@<TRIPOS>MOLECULE
2LD
   29    28     1     0     0
SMALL
bcc


@<TRIPOS>ATOM
      1 C4          0.2480    0.4480   -0.6280 ce        1 2LD     -0.135000
      2 C5         -0.1600    0.2980    1.7840 c1        1 2LD     -0.059900
      3 C6          1.4960   -0.0450   -0.6520 c2        1 2LD     -0.148200
      4 C7          2.9470   -1.8470   -4.3670 c2        1 2LD     -0.257200
      5 C8          4.7870   -2.7510   -3.0940 c1        1 2LD      0.207700
      6 C10         3.0450   -1.2020   -5.5440 ce        1 2LD      0.015900
      7 C13         3.0740   -1.4770   -1.9070 c3        1 2LD     -0.070400
      8 C1          0.5400   -0.3000    4.1790 c2        1 2LD     -0.205100
      9 C2         -0.5450    0.6130    0.5690 ce        1 2LD     -0.112100
     10 C3          0.1860    0.0030    2.9620 c1        1 2LD     -0.049900
     11 C9          3.8620   -1.6320   -3.2100 c3        1 2LD      0.051600
     12 C11         4.0830   -0.1870   -5.8800 c         1 2LD      0.575100
     13 C12         2.2930   -0.1780   -1.8930 c3        1 2LD     -0.053200
     14 N14         5.5310   -3.6400   -3.0030 n1        1 2LD     -0.362800
     15 O15         3.8300    0.8800   -6.4280 o         1 2LD     -0.473100
     16 H1         -0.2490    0.7640   -1.5620 ha        1 2LD      0.127000
     17 H2          1.9980   -0.3640    0.2770 ha        1 2LD      0.132000
     18 H3          2.1470   -2.5870   -4.1990 ha        1 2LD      0.144000
     19 H4          4.4780   -0.6950   -3.3640 hc        1 2LD      0.075700
     20 H5          3.7890   -1.4960   -1.0420 hc        1 2LD      0.059200
     21 H6          2.3740   -2.3440   -1.7860 hc        1 2LD      0.059200
     22 H7          1.5250   -0.7300    4.4100 ha        1 2LD      0.132500
     23 H8         -1.5550    1.0420    0.4220 ha        1 2LD      0.141000
     24 H9         -0.1280   -0.1420    5.0380 ha        1 2LD      0.132500
     25 H11         3.0060    0.6900   -1.9560 hc        1 2LD      0.054700
     26 H12         1.6330   -0.1300   -2.8010 hc        1 2LD      0.054700
     27 H13         1.5280   -2.0700   -6.3330 ho        1 2LD      0.423000
     28 H10         5.1140   -0.4820   -5.5840 h4        1 2LD      0.019200
     29 O16         2.1870   -1.4090   -6.5960 oh        1 2LD     -0.476100
@<TRIPOS>BOND
     1    1    3 2   
     2    1    9 1   
     3    1   16 1   
     4    2    9 2   
     5    2   10 2   
     6    3   13 1   
     7    3   17 1   
     8    4    6 2   
     9    4   11 1   
    10    4   18 1   
    11    5   11 1   
    12    5   14 3   
    13    6   12 1   
    14    6   29 1   
    15    7   11 1   
    16    7   13 1   
    17    7   20 1   
    18    7   21 1   
    19    8   10 2   
    20    8   22 1   
    21    8   24 1   
    22    9   23 1   
    23   11   19 1   
    24   12   15 2   
    25   12   28 1   
    26   13   25 1   
    27   13   26 1   
    28   27   29 1   
@<TRIPOS>SUBSTRUCTURE
     1 2LD         1 TEMP              0 ****  ****    0 ROOT
