@<TRIPOS>MOLECULE
2LD
   29    38     1     0     0
SMALL
bcc


@<TRIPOS>ATOM
      1 C4          0.0000    0.0000    0.0000 c2        1 2LD     -0.327000
      2 C5          2.0730    0.0000    1.1980 c2        1 2LD     -0.267000
      3 C6          1.3830    0.0000    0.0000 c3        1 2LD      0.090000
      4 C7          2.4470   -1.3390   -4.2640 c2        1 2LD     -0.576000
      5 C8          4.4920   -1.5490   -3.0520 c2        1 2LD     -0.009000
      6 C10         3.1460   -1.3420   -5.4370 c3        1 2LD      0.021000
      7 C13         2.3900   -1.4440   -1.7450 c3        1 2LD     -0.151000
      8 C1         -0.0010   -0.0050    2.3940 c3        1 2LD      0.579000
      9 C2         -0.6920    0.0010    1.1970 c2        1 2LD     -0.071000
     10 C3          1.3820    0.0020    2.3950 c3        1 2LD      0.117000
     11 C9          3.1440   -1.4460   -3.0510 DU        1 2LD      0.015000
     12 C11         4.5510   -1.4560   -5.4020 c3        1 2LD      0.353000
     13 C12         2.1360   -0.0020   -1.3050 c3        1 2LD     -0.371000
     14 N14         5.1880   -1.5630   -4.2200 n7        1 2LD     -0.062000
     15 O15         5.1900   -1.4610   -6.4430 o         1 2LD     -0.292000
     16 H1          0.3800   -0.1200   -1.0070 ha        1 2LD      0.254000
     17 H2          1.2340    0.0010    0.5120 ha        1 2LD      0.027000
     18 H3          2.5830   -1.0830   -3.2200 DU        1 2LD      0.339000
     19 H4          3.4860   -1.4540   -3.4430 h4        1 2LD     -0.108000
     20 H5          3.4600   -1.5210   -1.8930 DU        1 2LD      0.218000
     21 H6          1.4430   -1.9540   -1.8750 hc        1 2LD      0.139000
     22 H7          0.6560   -0.4350    1.6480 DU        1 2LD      0.069000
     23 H8         -0.6180   -0.0010    2.2770 DU        1 2LD      0.179000
     24 H9          0.3690    0.0010    2.0110 DU        1 2LD     -0.697000
     25 H11         2.0870   -0.0020   -0.2220 DU        1 2LD      0.276000
     26 H12         1.5510    0.5090   -2.0600 hc        1 2LD      0.141000
     27 H13         2.5910   -0.9490   -5.7330 DU        1 2LD      0.317000
     28 H10         4.5190   -1.1280   -4.8240 DU        1 2LD      0.084000
     29 O16         2.4940   -1.2350   -6.6260 oh        1 2LD     -0.289000
@<TRIPOS>BOND
     1    1    3 1   
     2    1    9 1   
     3    1   16 1   
     4    2    3 1   
     5    2   10 1   
     6    2   17 1   
     7    3   13 1   
     8    3   25 1   
     9    4    6 1   
    10    4   11 1   
    11    4   18 1   
    12    5   11 1   
    13    5   14 1   
    14    5   19 1   
    15    6   12 1   
    16    6   27 1   
    17    6   29 1   
    18    7   11 1   
    19    7   13 1   
    20    7   20 1   
    21    7   21 1   
    22    8    9 1   
    23    8   10 1   
    24    8   22 1   
    25    8   23 1   
    26    9   23 1   
    27   10   22 1   
    28   10   24 1   
    29   11   18 1   
    30   11   20 1   
    31   12   14 1   
    32   12   15 1   
    33   12   28 1   
    34   13   25 1   
    35   13   26 1   
    36   14   28 1   
    37   22   24 1   
    38   27   29 1   
@<TRIPOS>SUBSTRUCTURE
     1 2LD         1 TEMP              0 ****  ****    0 ROOT
