@<TRIPOS>MOLECULE
2LD
   29    22     1     0     0
SMALL
bcc


@<TRIPOS>ATOM
      1 C4         -2.2820    1.9250    0.5200 c1        1 2LD     -0.128500
      2 C5         -0.9920    1.4250    2.4820 c1        1 2LD     -0.127000
      3 C6         -1.0980    1.5000    1.1020 c1        1 2LD     -0.075000
      4 C7          1.4790   -0.7180   -2.2420 c1        1 2LD     -0.102000
      5 C8          1.3700   -2.1600   -0.1040 c1        1 2LD     -0.035000
      6 C10         2.5900   -1.5480   -2.7250 c1        1 2LD     -0.019000
      7 C13        -0.3680   -0.2370   -0.5010 c3        1 2LD     -0.103000
      8 C1         -3.2530    2.2020    2.6990 c1        1 2LD     -0.128500
      9 C2         -3.3590    2.2770    1.3180 c1        1 2LD     -0.128500
     10 C3         -2.0690    1.7760    3.2800 c1        1 2LD     -0.128500
     11 C9          0.8500   -1.0170   -0.9490 c1        1 2LD     -0.141000
     12 C11         3.1050   -2.6900   -1.8750 c1        1 2LD      0.289000
     13 C12         0.0720    0.9720    0.3000 c2        1 2LD     -0.121000
     14 N14         2.4770   -2.9850   -0.5870 n1        1 2LD     -0.264000
     15 O15         4.0480   -3.3540   -2.2570 o         1 2LD     -0.384000
     16 O16         3.1950   -1.2640   -3.9630 oh        1 2LD     -0.243000
     17 H1         -2.3570    1.9780   -0.4520 ha        1 2LD      0.131500
     18 H2         -0.1580    1.1250    2.8910 ha        1 2LD      0.130000
     19 H3          1.1460    0.0190   -2.7890 ha        1 2LD      0.158000
     20 H4          0.9520   -2.3590    0.7560 ha        1 2LD      0.156000
     21 H5         -0.9340   -0.8090    0.0560 hc        1 2LD      0.092000
     22 H6         -0.8730    0.0570   -1.2850 hc        1 2LD      0.092000
     23 H7         -4.0110    2.4500    3.2610 ha        1 2LD      0.131500
     24 H8         -4.1930    2.5770    0.9090 ha        1 2LD      0.131500
     25 H9         -1.9940    1.7240    4.2520 ha        1 2LD      0.131500
     26 H11         0.3910    1.6680   -0.3090 ha        1 2LD      0.092500
     27 H12         0.7950    0.7150    0.9080 ha        1 2LD      0.092500
     28 H13         2.6830   -1.5720   -4.6210 ho        1 2LD      0.244000
     29 H10         2.7880   -3.6740   -0.0760 hn        1 2LD      0.252000
@<TRIPOS>BOND
     1    1    9 1   
     2    1   17 1   
     3    2    3 1   
     4    2   18 1   
     5    4    6 1   
     6    4   19 1   
     7    5   11 1   
     8    5   20 1   
     9    6   16 1   
    10    7   11 1   
    11    7   13 1   
    12    7   21 1   
    13    7   22 1   
    14    8   10 1   
    15    8   23 1   
    16    9   24 1   
    17   10   25 1   
    18   12   15 1   
    19   13   26 1   
    20   13   27 1   
    21   14   29 1   
    22   16   28 1   
@<TRIPOS>SUBSTRUCTURE
     1 2LD         1 TEMP              0 ****  ****    0 ROOT
