@<TRIPOS>MOLECULE
2LD
   29    30     1     0     0
SMALL
bcc


@<TRIPOS>ATOM
      1 C4         -3.3070    1.3240    0.1510 ca        1 2LD     -0.127000
      2 C5         -3.3720   -1.0890    0.2510 ca        1 2LD     -0.127000
      3 C6         -2.6430    0.1050    0.3240 ca        1 2LD     -0.082300
      4 C7          1.7650    0.8850   -0.2050 cc        1 2LD     -0.102000
      5 C8          1.7640   -1.5350   -0.3420 cd        1 2LD     -0.032400
      6 C10         3.1110    0.8590    0.0200 cd        1 2LD      0.005900
      7 C13        -0.3970   -0.3320   -0.6480 c3        1 2LD     -0.021200
      8 C1         -5.4000    0.1570   -0.1660 ca        1 2LD     -0.131000
      9 C2         -4.6790    1.3490   -0.0930 ca        1 2LD     -0.127000
     10 C3         -4.7430   -1.0620    0.0070 ca        1 2LD     -0.127000
     11 C9          1.0650   -0.3530   -0.3910 cc        1 2LD     -0.145200
     12 C11         3.8640   -0.4080    0.0740 c         1 2LD      0.651700
     13 C12        -1.1790    0.0720    0.5930 c3        1 2LD     -0.035100
     14 N14         3.1260   -1.5750   -0.1170 n         1 2LD     -0.420100
     15 O15         5.0970   -0.4610    0.2780 o         1 2LD     -0.659500
     16 H1         -2.7440    2.2680    0.2100 ha        1 2LD      0.130500
     17 H2         -2.8560   -2.0500    0.3890 ha        1 2LD      0.130500
     18 H3          1.2120    1.8340   -0.2460 ha        1 2LD      0.159000
     19 H4          1.2740   -2.5150   -0.4830 h4        1 2LD      0.155000
     20 H5         -0.6130    0.3960   -1.4770 hc        1 2LD      0.053200
     21 H6         -0.7480   -1.3420   -0.9920 hc        1 2LD      0.053200
     22 H7         -6.4820    0.1780   -0.3570 ha        1 2LD      0.132000
     23 H8         -5.1940    2.3120   -0.2270 ha        1 2LD      0.131500
     24 H9         -5.3090   -2.0030   -0.0480 ha        1 2LD      0.131500
     25 H11        -0.8260    1.0800    0.9400 hc        1 2LD      0.053200
     26 H12        -0.9670   -0.6570    1.4200 hc        1 2LD      0.053200
     27 H13         4.7370    1.8030    0.3440 ho        1 2LD      0.445000
     28 H10         3.6000   -2.4500   -0.0900 hn        1 2LD      0.338500
     29 O16         3.8010    2.0310    0.2020 oh        1 2LD     -0.488100
@<TRIPOS>BOND
     1    1    3 ar  
     2    1    9 ar  
     3    1   16 1   
     4    2    3 ar  
     5    2   10 ar  
     6    2   17 1   
     7    3   13 1   
     8    4    6 2   
     9    4   11 1   
    10    4   18 1   
    11    5   11 2   
    12    5   14 1   
    13    5   19 1   
    14    6   12 1   
    15    6   29 1   
    16    7   11 1   
    17    7   13 1   
    18    7   20 1   
    19    7   21 1   
    20    8    9 ar  
    21    8   10 ar  
    22    8   22 1   
    23    9   23 1   
    24   10   24 1   
    25   12   14 1   
    26   12   15 2   
    27   13   25 1   
    28   13   26 1   
    29   14   28 1   
    30   27   29 1   
@<TRIPOS>SUBSTRUCTURE
     1 2LD         1 TEMP              0 ****  ****    0 ROOT
