@<TRIPOS>MOLECULE
2LE
   29    29     1     0     0
SMALL
bcc


@<TRIPOS>ATOM
      1 C1          1.0850   -0.6380   -3.2500 c3        1 2LE      0.332900
      2 O1          0.2940    0.1380   -4.1580 oh        1 2LE     -0.626800
      3 C2          2.3980    0.1410   -2.8640 c3        1 2LE     -0.101400
      4 C3          2.1910    0.5990   -1.4480 c3        1 2LE     -0.105400
      5 C4          0.9130    0.3920   -1.2060 c3        1 2LE      0.144100
      6 O4          0.4650   -0.8050   -2.1570 os        1 2LE     -0.457600
      7 C5          0.7170    0.0060    0.2430 c3        1 2LE     -0.083400
      8 C6         -0.7470    0.1970    0.6280 c3        1 2LE     -0.078400
      9 C7         -0.9770   -0.3430    2.0390 c3        1 2LE     -0.078400
     10 C8         -2.2490    0.2560    2.6100 c3        1 2LE     -0.080400
     11 C9         -2.5010   -0.3190    4.0080 c3        1 2LE     -0.092100
     12 H1          1.3110   -1.5070   -3.6500 h2        1 2LE      0.063700
     13 H12         2.5200    0.9080   -3.4520 hc        1 2LE      0.066700
     14 H22         3.1770   -0.4570   -2.9170 hc        1 2LE      0.066700
     15 H3          2.4010    1.5450   -1.3650 hc        1 2LE      0.054700
     16 H4          0.3970    1.1950   -1.4120 h1        1 2LE      0.054700
     17 H15         0.9680   -0.9370    0.3680 hc        1 2LE      0.047700
     18 H25         1.2790    0.5710    0.8110 hc        1 2LE      0.047700
     19 H16        -0.9670    1.1440    0.6030 hc        1 2LE      0.047200
     20 H26        -1.3170   -0.2870   -0.0040 hc        1 2LE      0.047200
     21 H17        -0.2170   -0.1010    2.6100 hc        1 2LE      0.038200
     22 H27        -1.0620   -1.3190    2.0050 hc        1 2LE      0.038200
     23 H18        -3.0060    0.0370    2.0250 hc        1 2LE      0.039700
     24 H28        -2.1530    1.2300    2.6700 hc        1 2LE      0.039700
     25 H19        -2.5780   -1.2990    3.9500 hc        1 2LE      0.032367
     26 H29        -3.3300    0.0520    4.3690 hc        1 2LE      0.032367
     27 H39        -1.7530   -0.0840    4.5980 hc        1 2LE      0.032367
     28 HO1        -0.0010   -0.3860   -4.8180 ho        1 2LE      0.423000
     29 H3A         2.7430    0.0720   -0.8370 hc        1 2LE      0.054700
@<TRIPOS>BOND
     1    1    2 1   
     2    1    3 1   
     3    1    6 1   
     4    1   12 1   
     5    2   28 1   
     6    3    4 1   
     7    3   13 1   
     8    3   14 1   
     9    4    5 1   
    10    4   15 1   
    11    4   29 1   
    12    5    6 1   
    13    5    7 1   
    14    5   16 1   
    15    7    8 1   
    16    7   17 1   
    17    7   18 1   
    18    8    9 1   
    19    8   19 1   
    20    8   20 1   
    21    9   10 1   
    22    9   21 1   
    23    9   22 1   
    24   10   11 1   
    25   10   23 1   
    26   10   24 1   
    27   11   25 1   
    28   11   26 1   
    29   11   27 1   
@<TRIPOS>SUBSTRUCTURE
     1 2LE         1 TEMP              0 ****  ****    0 ROOT
