@<TRIPOS>MOLECULE
2LE
   29    29     1     0     0
SMALL
bcc


@<TRIPOS>ATOM
      1 C1         -2.7240    0.5940    0.5460 c3        1 2LE      0.332900
      2 O1         -3.4420    1.4340   -0.3300 oh        1 2LE     -0.626800
      3 C2         -3.1950   -0.8520    0.3590 c3        1 2LE     -0.101400
      4 C3         -2.0280   -1.5700   -0.3030 c3        1 2LE     -0.105400
      5 C4         -0.9480   -0.5050   -0.5370 c3        1 2LE      0.144100
      6 O4         -1.3680    0.7000    0.1330 os        1 2LE     -0.457600
      7 C5          0.4090   -0.9160    0.0110 c3        1 2LE     -0.083400
      8 C6          1.4870    0.0690   -0.3860 c3        1 2LE     -0.078400
      9 C7          2.8280   -0.3200    0.2000 c3        1 2LE     -0.078400
     10 C8          3.9090    0.6590   -0.2060 c3        1 2LE     -0.080400
     11 C9          5.2460    0.2800    0.3770 c3        1 2LE     -0.092100
     12 H1         -2.7880    0.9730    1.6020 h2        1 2LE      0.063700
     13 H12        -3.4460   -1.3050    1.3480 hc        1 2LE      0.066700
     14 H22        -4.1110   -0.8760   -0.2830 hc        1 2LE      0.066700
     15 H3         -1.6410   -2.3880    0.3530 hc        1 2LE      0.054700
     16 H4         -0.8680   -0.2490   -1.6290 h1        1 2LE      0.054700
     17 H15         0.3540   -0.9850    1.1290 hc        1 2LE      0.047700
     18 H25         0.6580   -1.9350   -0.3850 hc        1 2LE      0.047700
     19 H16         1.5640    0.1150   -1.5040 hc        1 2LE      0.047200
     20 H26         1.1970    1.0930   -0.0300 hc        1 2LE      0.047200
     21 H17         2.7540   -0.3540    1.3190 hc        1 2LE      0.038200
     22 H27         3.1060   -1.3510   -0.1440 hc        1 2LE      0.038200
     23 H18         3.9820    0.6920   -1.3250 hc        1 2LE      0.039700
     24 H28         3.6270    1.6900    0.1360 hc        1 2LE      0.039700
     25 H19         6.0280    1.0130    0.0650 hc        1 2LE      0.032367
     26 H29         5.2000    0.2670    1.4930 hc        1 2LE      0.032367
     27 H39         5.5550   -0.7350    0.0280 hc        1 2LE      0.032367
     28 HO1        -2.8980    2.2140   -0.4970 ho        1 2LE      0.423000
     29 H3A        -2.3360   -2.0280   -1.2740 hc        1 2LE      0.054700
@<TRIPOS>BOND
     1    1    2 1   
     2    1    3 1   
     3    1    6 1   
     4    1   12 1   
     5    2   28 1   
     6    3    4 1   
     7    3   13 1   
     8    3   14 1   
     9    4    5 1   
    10    4   15 1   
    11    4   29 1   
    12    5    6 1   
    13    5    7 1   
    14    5   16 1   
    15    7    8 1   
    16    7   17 1   
    17    7   18 1   
    18    8    9 1   
    19    8   19 1   
    20    8   20 1   
    21    9   10 1   
    22    9   21 1   
    23    9   22 1   
    24   10   11 1   
    25   10   23 1   
    26   10   24 1   
    27   11   25 1   
    28   11   26 1   
    29   11   27 1   
@<TRIPOS>SUBSTRUCTURE
     1 2LE         1 TEMP              0 ****  ****    0 ROOT
