@<TRIPOS>MOLECULE
2LE
   29    29     1     0     0
SMALL
bcc


@<TRIPOS>ATOM
      1 C1         -0.0410   -0.0900    0.0610 c3        1 2LE      0.332900
      2 O1         -0.2740    0.8200   -0.9900 oh        1 2LE     -0.626800
      3 C2          1.4580   -0.4050    0.1350 c3        1 2LE     -0.101400
      4 C3          1.9410    0.2550    1.4190 c3        1 2LE     -0.105400
      5 C4          0.7270    0.9830    2.0100 c3        1 2LE      0.144100
      6 O4         -0.4310    0.5980    1.2430 os        1 2LE     -0.457600
      7 C5          0.4820    0.6260    3.4680 c3        1 2LE     -0.083400
      8 C6         -0.6080    1.4850    4.0720 c3        1 2LE     -0.078400
      9 C7         -0.8790    1.0950    5.5090 c3        1 2LE     -0.078400
     10 C8         -1.9610    1.9620    6.1170 c3        1 2LE     -0.080400
     11 C9         -2.2400    1.5770    7.5470 c3        1 2LE     -0.092100
     12 H1         -0.7020   -0.9930   -0.0390 h2        1 2LE      0.063700
     13 H12         1.9800    0.0090   -0.7620 hc        1 2LE      0.066700
     14 H22         1.6170   -1.5090    0.1580 hc        1 2LE      0.066700
     15 H3          2.3330   -0.5090    2.1350 hc        1 2LE      0.054700
     16 H4          0.8300    2.0960    1.8920 h1        1 2LE      0.054700
     17 H15         1.4400    0.7690    4.0340 hc        1 2LE      0.047700
     18 H25         0.1960   -0.4550    3.5430 hc        1 2LE      0.047700
     19 H16        -0.3070    2.5650    4.0240 hc        1 2LE      0.047200
     20 H26        -1.5430    1.3730    3.4620 hc        1 2LE      0.047200
     21 H17        -1.1920    0.0190    5.5540 hc        1 2LE      0.038200
     22 H27         0.0620    1.1920    6.1110 hc        1 2LE      0.038200
     23 H18        -2.9010    1.8670    5.5110 hc        1 2LE      0.039700
     24 H28        -1.6480    3.0390    6.0720 hc        1 2LE      0.039700
     25 H19        -3.0390    2.2280    7.9760 hc        1 2LE      0.032367
     26 H29        -1.3210    1.6880    8.1720 hc        1 2LE      0.032367
     27 H39        -2.5780    0.5140    7.6110 hc        1 2LE      0.032367
     28 HO1        -1.0870    1.2990   -0.7840 ho        1 2LE      0.423000
     29 H3A         2.7640    0.9820    1.2120 hc        1 2LE      0.054700
@<TRIPOS>BOND
     1    1    2 1   
     2    1    3 1   
     3    1    6 1   
     4    1   12 1   
     5    2   28 1   
     6    3    4 1   
     7    3   13 1   
     8    3   14 1   
     9    4    5 1   
    10    4   15 1   
    11    4   29 1   
    12    5    6 1   
    13    5    7 1   
    14    5   16 1   
    15    7    8 1   
    16    7   17 1   
    17    7   18 1   
    18    8    9 1   
    19    8   19 1   
    20    8   20 1   
    21    9   10 1   
    22    9   21 1   
    23    9   22 1   
    24   10   11 1   
    25   10   23 1   
    26   10   24 1   
    27   11   25 1   
    28   11   26 1   
    29   11   27 1   
@<TRIPOS>SUBSTRUCTURE
     1 2LE         1 TEMP              0 ****  ****    0 ROOT
