@<TRIPOS>MOLECULE
2LF
   33    31     1     0     0
SMALL
bcc


@<TRIPOS>ATOM
      1 P           2.7250   -3.1780    0.7270 p3        1 2LF      2.518000
      2 N1         -2.6520    2.1030    2.8830 n3        1 2LF     -0.336000
      3 C2         -2.8700    2.6560    1.5700 c2        1 2LF      0.119000
      4 N2         -3.6110    3.8700    1.4230 n3        1 2LF     -0.302000
      5 N3         -2.2230    2.0530    0.4090 n1        1 2LF     -0.197000
      6 C4         -1.3650    0.8900    0.5750 c1        1 2LF     -0.110500
      7 C5         -1.1950    0.3250    1.8400 c1        1 2LF     -0.110500
      8 C6         -1.8050    0.9880    3.0460 c1        1 2LF      0.387000
      9 O6         -1.6130    0.5150    4.1750 o         1 2LF     -0.372000
     10 N7         -0.2780   -0.7330    1.7230 n2        1 2LF     -0.127500
     11 C8          0.0610   -0.8510    0.4160 c1        1 2LF      0.039000
     12 N9         -0.5550    0.2200   -0.2960 n2        1 2LF     -0.127500
     13 C1'        -0.3430    0.2120   -1.7910 c2        1 2LF      0.150000
     14 OP3         2.9620   -4.2710   -0.2750 o         1 2LF     -1.249500
     15 C2'         1.0300    0.7920   -2.0270 c3        1 2LF     -0.196000
     16 OP2         4.0100   -2.8640    1.4380 os        1 2LF     -1.213000
     17 C3'         1.8880   -0.5000   -2.1280 c3        1 2LF      0.036000
     18 O3'         2.4400   -0.6120   -3.3290 oh        1 2LF     -0.394000
     19 C4'         0.8380   -1.5670   -1.9140 c3        1 2LF     -0.061000
     20 O4'        -0.1810   -0.9460   -2.3340 os        1 2LF     -0.289000
     21 C5'         0.8490   -1.8700   -0.4600 c2        1 2LF      0.198000
     22 O5'         2.2050   -1.8930   -0.0130 os        1 2LF     -0.691000
     23 HN1        -3.0910    2.4760    3.6310 hn        1 2LF      0.230000
     24 H1'        -1.0050    0.7120   -2.2380 h4        1 2LF      0.113000
     25 H2'         1.0590    1.3060   -2.8730 hc        1 2LF      0.087500
     26 H'2'        1.3150    1.3470   -1.2630 hc        1 2LF      0.087500
     27 HN2        -4.0060    4.2540    2.1500 hn        1 2LF      0.166000
     28 HN2A       -3.6320    4.2890    0.6280 hn        1 2LF      0.166000
     29 H3'         2.6020   -0.5280   -1.3830 h1        1 2LF      0.141000
     30 H4'         1.0240   -2.3640   -2.4540 h1        1 2LF      0.172000
     31 H5'         0.4460   -2.7940   -0.3210 h4        1 2LF      0.126000
     32 HO3'        3.2950   -0.3980   -3.2800 ho        1 2LF      0.288000
     33 OP1         1.6780   -3.6380    1.7440 o         1 2LF     -1.249500
@<TRIPOS>BOND
     1    1   14 1   
     2    1   22 1   
     3    1   33 1   
     4    2    3 1   
     5    2    8 1   
     6    2   23 1   
     7    3    4 1   
     8    3    5 1   
     9    4   27 1   
    10    4   28 1   
    11    6    7 1   
    12    6   12 1   
    13    7   10 1   
    14    8    9 1   
    15   10   11 1   
    16   11   12 1   
    17   13   15 1   
    18   13   20 1   
    19   13   24 1   
    20   15   17 1   
    21   15   25 1   
    22   15   26 1   
    23   17   18 1   
    24   17   19 1   
    25   17   29 1   
    26   18   32 1   
    27   19   20 1   
    28   19   21 1   
    29   19   30 1   
    30   21   22 1   
    31   21   31 1   
@<TRIPOS>SUBSTRUCTURE
     1 2LF         1 TEMP              0 ****  ****    0 ROOT
