@<TRIPOS>MOLECULE
2LF
   33    36     1     0     0
SMALL
bcc


@<TRIPOS>ATOM
      1 P          -3.8080    0.6350    0.2730 p5        1 2LF      1.325900
      2 N1          4.5430    1.4340    0.1960 n         1 2LF     -0.494400
      3 C2          4.6450    0.0300    0.2140 cc        1 2LF      0.563800
      4 N2          5.9780   -0.4970    0.4150 nh        1 2LF     -0.862800
      5 N3          3.6110   -0.8120    0.0750 nd        1 2LF     -0.623100
      6 C4          2.3750   -0.1970   -0.0500 cd        1 2LF      0.025800
      7 C5          2.1570    1.2320   -0.0740 cc        1 2LF      0.219800
      8 C6          3.2990    2.1100    0.0650 c         1 2LF      0.640000
      9 O6          3.3460    3.3530    0.0710 o         1 2LF     -0.647500
     10 N7          0.8020    1.5220   -0.2320 nc        1 2LF     -0.609000
     11 C8          0.1790    0.3200   -0.3000 cd        1 2LF      0.485800
     12 N9          1.1110   -0.7610   -0.1690 na        1 2LF     -0.216900
     13 C1'         0.7150   -2.1400   -0.4130 c3        1 2LF      0.240800
     14 OP3        -4.0470   -0.8560    0.3580 o         1 2LF     -0.917500
     15 C2'         0.0180   -2.7940    0.8150 c3        1 2LF     -0.116400
     16 OP2        -4.2950    1.4780    1.4030 o         1 2LF     -0.917500
     17 C3'        -1.4030   -2.2030    0.7440 c3        1 2LF      0.147100
     18 O3'        -2.3810   -3.2100    0.8740 oh        1 2LF     -0.666800
     19 C4'        -1.4640   -1.5330   -0.6540 c3        1 2LF      0.049100
     20 O4'        -0.3300   -2.0650   -1.3910 os        1 2LF     -0.433600
     21 C5'        -1.3340    0.0210   -0.5070 c3        1 2LF      0.214800
     22 O5'        -2.0420    0.5070    0.5380 os        1 2LF     -0.528200
     23 H1'         1.5620   -2.7330   -0.8390 h2        1 2LF      0.072700
     24 H2'         0.0040   -3.9000    0.6730 hc        1 2LF      0.048700
     25 H'2'        0.5200   -2.5480    1.7760 hc        1 2LF      0.048700
     26 HN2         5.9350   -1.4550    0.7090 hn        1 2LF      0.370300
     27 HN2A        6.4950   -0.4320   -0.4420 hn        1 2LF      0.370300
     28 H3'        -1.5520   -1.4340    1.5520 h1        1 2LF      0.101700
     29 H4'        -2.3780   -1.8130   -1.2310 h1        1 2LF      0.133700
     30 H5'        -1.6510    0.5120   -1.4760 h1        1 2LF      0.086700
     31 HO3'       -3.2330   -2.7240    0.7900 ho        1 2LF      0.489000
     32 OP1        -3.8330    1.1970   -1.1160 o         1 2LF     -0.917500
     33 HN1         5.3530    1.9860    0.3640 hn        1 2LF      0.317500
@<TRIPOS>BOND
     1    1   14 1   
     2    1   16 1   
     3    1   22 1   
     4    1   32 1   
     5    2    3 1   
     6    2    8 1   
     7    2   33 1   
     8    3    4 1   
     9    3    5 2   
    10    4   26 1   
    11    4   27 1   
    12    5    6 1   
    13    6    7 2   
    14    6   12 1   
    15    7    8 1   
    16    7   10 1   
    17    8    9 2   
    18   10   11 2   
    19   11   12 1   
    20   11   21 1   
    21   12   13 1   
    22   13   15 1   
    23   13   20 1   
    24   13   23 1   
    25   15   17 1   
    26   15   24 1   
    27   15   25 1   
    28   17   18 1   
    29   17   19 1   
    30   17   28 1   
    31   18   31 1   
    32   19   20 1   
    33   19   21 1   
    34   19   29 1   
    35   21   22 1   
    36   21   30 1   
@<TRIPOS>SUBSTRUCTURE
     1 2LF         1 TEMP              0 ****  ****    0 ROOT
