@<TRIPOS>MOLECULE
2LG
   48    50     1     0     0
SMALL
bcc


@<TRIPOS>ATOM
      1 C4          6.8630    0.6230   -1.0030 c3        1 2LG     -0.016100
      2 C6          6.5230    1.3280    1.3640 c3        1 2LG      0.013900
      3 C7          3.1350    0.3560   -0.3530 cc        1 2LG      0.041500
      4 C8          4.1030   -0.2310   -2.5760 ch        1 2LG      0.263800
      5 C13        -0.5970   -0.1700   -0.3420 ca        1 2LG     -0.166600
      6 C15        -1.6140    0.7660   -0.1250 ca        1 2LG      0.036000
      7 C17        -2.9180    0.5290   -0.5630 ca        1 2LG     -0.365500
      8 C21        -3.1950   -0.6680   -1.2310 ca        1 2LG      0.005000
      9 C26        -4.1760    2.0880    2.3330 c3        1 2LG      0.220800
     10 C28        -3.1500    1.3420    3.1750 c3        1 2LG     -0.118100
     11 C1          5.4350    0.5660   -0.6090 cd        1 2LG     -0.056300
     12 C2          5.2380    0.9610    0.7180 cc        1 2LG     -0.221400
     13 C3          4.2210    0.2090   -1.2460 cd        1 2LG     -0.097000
     14 S5          3.6560    0.9030    1.1690 ss        1 2LG      0.209200
     15 C9          7.5860    1.1150    0.2660 c3        1 2LG     -0.077400
     16 N10         1.8180    0.0920   -0.6970 n         1 2LG     -0.423100
     17 N11         4.0070   -0.5970   -3.6770 n1        1 2LG     -0.382800
     18 C12         0.7560    0.1600    0.1930 c         1 2LG      0.675700
     19 O14         0.9220    0.5230    1.3730 o         1 2LG     -0.581100
     20 C16        -0.8960   -1.3720   -0.9970 ca        1 2LG      0.091400
     21 C18        -2.2000   -1.6170   -1.4460 ca        1 2LG     -0.156000
     22 CL19        0.2860   -2.5610   -1.2480 cl        1 2LG     -0.057400
     23 S20        -4.1440    1.6910   -0.3230 sy        1 2LG      1.501200
     24 N22        -4.6660    1.3750    1.1800 n3        1 2LG     -0.815500
     25 O23        -5.1620    1.4200   -1.2630 o         1 2LG     -0.646800
     26 O24        -3.5430    2.9670   -0.3770 o         1 2LG     -0.646800
     27 C25        -5.6580    0.3570    1.4270 c3        1 2LG      0.220800
     28 C27        -7.0840    0.8700    1.5650 c3        1 2LG     -0.118100
     29 H41         7.0200    1.3290   -1.8570 hc        1 2LG      0.061200
     30 H42         7.2370   -0.3850   -1.3160 hc        1 2LG      0.061200
     31 H61         6.5170    2.3920    1.7090 hc        1 2LG      0.051700
     32 H62         6.7330    0.6780    2.2510 hc        1 2LG      0.051700
     33 H15        -1.3710    1.7120    0.3980 ha        1 2LG      0.172000
     34 H21        -4.2200   -0.8550   -1.6050 ha        1 2LG      0.167000
     35 H261       -5.0550    2.3520    2.9910 h1        1 2LG      0.054950
     36 H262       -3.7170    3.0590    1.9780 h1        1 2LG      0.054950
     37 H281       -2.8520    1.9930    4.0320 hc        1 2LG      0.046200
     38 H282       -3.5710    0.3910    3.5800 hc        1 2LG      0.046200
     39 H283       -2.2360    1.0990    2.5810 hc        1 2LG      0.046200
     40 H91         8.1230    2.0710    0.0590 hc        1 2LG      0.047200
     41 H92         8.3390    0.3610    0.5990 hc        1 2LG      0.047200
     42 H10         1.6530   -0.2100   -1.6330 hn        1 2LG      0.342500
     43 H18        -2.4370   -2.5570   -1.9690 ha        1 2LG      0.163000
     44 H251       -5.6240   -0.3760    0.5660 h1        1 2LG      0.054950
     45 H252       -5.3810   -0.2050    2.3650 h1        1 2LG      0.054950
     46 H271       -7.1730    1.5970    2.4080 hc        1 2LG      0.046200
     47 H272       -7.4220    1.3710    0.6250 hc        1 2LG      0.046200
     48 H273       -7.7570    0.0030    1.7690 hc        1 2LG      0.046200
@<TRIPOS>BOND
     1    1   11 1   
     2    1   15 1   
     3    1   29 1   
     4    1   30 1   
     5    2   12 1   
     6    2   15 1   
     7    2   31 1   
     8    2   32 1   
     9    3   13 2   
    10    3   14 1   
    11    3   16 1   
    12    4   13 1   
    13    4   17 3   
    14    5    6 ar  
    15    5   18 1   
    16    5   20 ar  
    17    6    7 ar  
    18    6   33 1   
    19    7    8 ar  
    20    7   23 1   
    21    8   21 ar  
    22    8   34 1   
    23    9   10 1   
    24    9   24 1   
    25    9   35 1   
    26    9   36 1   
    27   10   37 1   
    28   10   38 1   
    29   10   39 1   
    30   11   12 2   
    31   11   13 1   
    32   12   14 1   
    33   15   40 1   
    34   15   41 1   
    35   16   18 1   
    36   16   42 1   
    37   18   19 2   
    38   20   21 ar  
    39   20   22 1   
    40   21   43 1   
    41   23   24 1   
    42   23   25 2   
    43   23   26 2   
    44   24   27 1   
    45   27   28 1   
    46   27   44 1   
    47   27   45 1   
    48   28   46 1   
    49   28   47 1   
    50   28   48 1   
@<TRIPOS>SUBSTRUCTURE
     1 2LG         1 TEMP              0 ****  ****    0 ROOT
