@<TRIPOS>MOLECULE
2LG
   48    44     1     0     0
SMALL
bcc


@<TRIPOS>ATOM
      1 C4         -6.2690    0.3520    4.2540 c3        1 2LG     -0.102000
      2 C6         -6.1300    2.6820    3.6340 c3        1 2LG     -0.072000
      3 C7         -2.6290    0.9010    2.7090 c1        1 2LG     -0.222000
      4 C8         -3.2860   -1.6140    3.2150 c1        1 2LG     -0.065000
      5 C13         0.2960    0.2760    0.1990 c1        1 2LG     -0.146000
      6 C15         0.4720    0.0750   -1.1660 c1        1 2LG      0.036000
      7 C17         1.7550   -0.0680   -1.6900 c1        1 2LG     -0.810000
      8 C21         2.8590   -0.0100   -0.8500 c1        1 2LG     -0.075000
      9 C26         4.5810   -0.0060   -4.1400 c3        1 2LG     -0.024500
     10 C28         5.4810    0.1290   -2.9430 c3        1 2LG     -0.236000
     11 C1         -4.9300    0.5920    3.5730 c2        1 2LG     -0.049000
     12 C2         -4.7850    2.0250    3.3560 c2        1 2LG     -0.485000
     13 C3         -3.5600   -0.1220    3.1620 c1        1 2LG     -0.096000
     14 S5         -3.3500    2.2820    2.8090 ss        1 2LG      0.753000
     15 C9         -7.0410    1.6290    4.1920 c3        1 2LG     -0.156000
     16 N10        -1.3060    0.6690    2.1790 n2        1 2LG     -0.281000
     17 N11        -3.0820   -2.7260    3.2540 n1        1 2LG     -0.060000
     18 C12        -1.1230    0.4620    0.7730 c2        1 2LG      0.346000
     19 O14        -2.0880    0.4820    0.0220 o         1 2LG     -0.330000
     20 C16         1.3980    0.3350    1.0400 c1        1 2LG      0.014000
     21 C18         2.6830    0.1910    0.5150 c1        1 2LG     -0.075000
     22 CL19        1.1740    0.5090    2.7530 cl        1 2LG      0.021000
     23 S20         1.9880   -0.1950   -3.4720 s4        1 2LG      2.053800
     24 N22         3.4810   -0.8630   -3.8160 n2        1 2LG     -0.829000
     25 O23         1.8270    1.0930   -4.1160 o         1 2LG     -0.532400
     26 O24         0.9250   -0.9490   -4.0850 o         1 2LG     -0.532400
     27 C25         3.6020   -2.2950   -4.0160 c3        1 2LG     -0.024500
     28 C27         4.3820   -2.9070   -2.8570 c3        1 2LG     -0.236000
     29 H41        -6.7570   -0.3330    3.7490 hc        1 2LG      0.100000
     30 H42        -6.1060    0.1310    5.1960 hc        1 2LG      0.100000
     31 H61        -6.0030    3.3790    4.3150 hc        1 2LG      0.091500
     32 H62        -6.5050    3.0000    2.7820 hc        1 2LG      0.091500
     33 H15        -0.2970    0.0350   -1.7520 ha        1 2LG      0.174000
     34 H21         3.7590   -0.1100   -1.2170 ha        1 2LG      0.165500
     35 H261        4.2430    0.8750   -4.3940 h1        1 2LG      0.102250
     36 H262        5.0860   -0.3890   -4.8880 h1        1 2LG      0.102250
     37 H281        5.6810   -0.7550   -2.5870 hc        1 2LG      0.081833
     38 H282        5.0350    0.6610   -2.2600 hc        1 2LG      0.081833
     39 H283        6.3140    0.5720   -3.2090 hc        1 2LG      0.081833
     40 H91        -7.7910    1.5090    3.5770 hc        1 2LG      0.086500
     41 H92        -7.2920    1.8840    5.0960 hc        1 2LG      0.086500
     42 H10        -0.5870    0.6610    2.7380 hn        1 2LG      0.253000
     43 H18         3.4580    0.2320    1.1050 ha        1 2LG      0.165500
     44 H251        4.0740   -2.4670   -4.8520 h1        1 2LG      0.102250
     45 H252        2.7100   -2.6960   -4.0570 h1        1 2LG      0.102250
     46 H271        4.0130   -2.5880   -2.0130 hc        1 2LG      0.081833
     47 H272        5.3320   -2.6430   -2.9240 hc        1 2LG      0.081833
     48 H273        4.3110   -3.8890   -2.8960 hc        1 2LG      0.081833
@<TRIPOS>BOND
     1    1   11 1   
     2    1   15 1   
     3    1   29 1   
     4    1   30 1   
     5    2   12 1   
     6    2   15 1   
     7    2   31 1   
     8    2   32 1   
     9    3   13 1   
    10    3   14 1   
    11    4   17 1   
    12    5   18 1   
    13    5   20 1   
    14    6    7 1   
    15    6   33 1   
    16    7   23 1   
    17    8   21 1   
    18    8   34 1   
    19    9   10 1   
    20    9   24 1   
    21    9   35 1   
    22    9   36 1   
    23   10   37 1   
    24   10   38 1   
    25   10   39 1   
    26   11   12 1   
    27   11   13 1   
    28   12   14 1   
    29   15   40 1   
    30   15   41 1   
    31   16   18 1   
    32   16   42 1   
    33   18   19 1   
    34   20   22 1   
    35   21   43 1   
    36   23   25 1   
    37   23   26 1   
    38   24   27 1   
    39   27   28 1   
    40   27   44 1   
    41   27   45 1   
    42   28   46 1   
    43   28   47 1   
    44   28   48 1   
@<TRIPOS>SUBSTRUCTURE
     1 2LG         1 TEMP              0 ****  ****    0 ROOT
