@<TRIPOS>MOLECULE
2LG
   50    52     1     0     0
SMALL
bcc


@<TRIPOS>ATOM
      1 C4          1.1210    0.6320   -0.6660 c3        1 2LG     -0.029100
      2 C6          0.8900   -0.8230    1.3480 c3        1 2LG     -0.016100
      3 C7          4.6320    0.0080    0.6230 cc        1 2LG     -0.242500
      4 C8          4.2520    1.4050   -1.4130 ch        1 2LG      0.220800
      5 C13         7.4150   -0.1240   -1.4870 ca        1 2LG     -0.210600
      6 C15         7.0920   -0.6400   -2.7450 ca        1 2LG      0.078000
      7 C17         7.6530   -0.1070   -3.9170 ca        1 2LG     -0.469500
      8 C21         8.5680    0.9580   -3.7900 ca        1 2LG      0.055000
      9 C26         7.7870   -3.2570   -6.0220 c3        1 2LG      0.113800
     10 C28         7.5700   -3.9440   -4.6910 c3        1 2LG     -0.126100
     11 C1          2.4420    0.3120   -0.0740 cd        1 2LG     -0.052300
     12 C2          2.3200   -0.5160    1.0760 cc        1 2LG     -0.127400
     13 C3          3.7800    0.6190   -0.3440 cd        1 2LG      0.028000
     14 S5          3.7460   -0.8750    1.7500 ss        1 2LG      0.366200
     15 C9          0.1080   -0.0950    0.2370 c3        1 2LG     -0.080400
     16 N10         6.0550    0.1920    0.6430 n4        1 2LG     -0.466200
     17 N11         4.6440    2.0400   -2.3070 n1        1 2LG     -0.314800
     18 C12         6.7830   -0.7480   -0.3080 c         1 2LG      0.562700
     19 O14         6.7750   -1.9350   -0.0280 o         1 2LG     -0.374100
     20 C16         8.3590    0.9190   -1.3810 ca        1 2LG      0.125400
     21 C18         8.9300    1.4550   -2.5420 ca        1 2LG     -0.126000
     22 CL19        8.8270    1.5230    0.1210 cl        1 2LG      0.009600
     23 S20         7.1170   -0.5780   -5.4010 sy        1 2LG      1.447200
     24 N22         8.3730   -1.8840   -5.9520 n4        1 2LG     -0.633300
     25 O23         7.3530    0.3820   -6.3660 o         1 2LG     -0.548300
     26 O24         5.9360   -1.2840   -5.3070 o         1 2LG     -0.548300
     27 C25         9.6660   -1.8510   -5.2190 c3        1 2LG      0.113800
     28 C27        10.7810   -2.6510   -5.8650 c3        1 2LG     -0.126100
     29 H41         0.9380    1.7380   -0.6700 hc        1 2LG      0.087200
     30 H42         1.0520    0.2700   -1.7240 hc        1 2LG      0.087200
     31 H61         0.7000   -1.9270    1.3150 hc        1 2LG      0.090700
     32 H62         0.5840   -0.4530    2.3610 hc        1 2LG      0.090700
     33 H15         6.3610   -1.4720   -2.8180 ha        1 2LG      0.189000
     34 H21         8.9940    1.4310   -4.7000 ha        1 2LG      0.196000
     35 H261        8.4710   -3.8980   -6.6550 hx        1 2LG      0.098450
     36 H262        6.7970   -3.1650   -6.5630 hx        1 2LG      0.098450
     37 H281        6.9210   -3.3380   -4.0130 hc        1 2LG      0.077033
     38 H282        8.5340   -4.1760   -4.1780 hc        1 2LG      0.077033
     39 H283        7.0440   -4.9140   -4.8930 hc        1 2LG      0.077033
     40 H91        -0.4870   -0.8300   -0.3590 hc        1 2LG      0.078700
     41 H92        -0.6050    0.6390    0.6880 hc        1 2LG      0.078700
     42 H10         6.4030    0.0220    1.5990 hn        1 2LG      0.470800
     43 H18         9.6620    2.2830   -2.4690 ha        1 2LG      0.211000
     44 H251        9.4860   -2.2320   -4.1730 hx        1 2LG      0.098450
     45 H252        9.9800   -0.7670   -5.1620 hx        1 2LG      0.098450
     46 H271       10.9590   -2.3350   -6.9220 hc        1 2LG      0.077033
     47 H272       10.5630   -3.7460   -5.8450 hc        1 2LG      0.077033
     48 H273       11.7230   -2.4720   -5.2850 hc        1 2LG      0.077033
     49 H102        6.2590    1.1690    0.3840 hn        1 2LG      0.470800
     50 H221        8.6010   -1.6380   -6.9270 hn        1 2LG      0.461800
@<TRIPOS>BOND
     1    1   11 1   
     2    1   15 1   
     3    1   29 1   
     4    1   30 1   
     5    2   12 1   
     6    2   15 1   
     7    2   31 1   
     8    2   32 1   
     9    3   13 2   
    10    3   14 1   
    11    3   16 1   
    12    4   13 1   
    13    4   17 3   
    14    5    6 ar  
    15    5   18 1   
    16    5   20 ar  
    17    6    7 ar  
    18    6   33 1   
    19    7    8 ar  
    20    7   23 1   
    21    8   21 ar  
    22    8   34 1   
    23    9   10 1   
    24    9   24 1   
    25    9   35 1   
    26    9   36 1   
    27   10   37 1   
    28   10   38 1   
    29   10   39 1   
    30   11   12 2   
    31   11   13 1   
    32   12   14 1   
    33   15   40 1   
    34   15   41 1   
    35   16   18 1   
    36   16   42 1   
    37   16   49 1   
    38   18   19 2   
    39   20   21 ar  
    40   20   22 1   
    41   21   43 1   
    42   23   24 1   
    43   23   25 2   
    44   23   26 2   
    45   24   27 1   
    46   24   50 1   
    47   27   28 1   
    48   27   44 1   
    49   27   45 1   
    50   28   46 1   
    51   28   47 1   
    52   28   48 1   
@<TRIPOS>SUBSTRUCTURE
     1 2LG         1 TEMP              0 ****  ****    0 ROOT
