@<TRIPOS>MOLECULE
2LG
   49    51     1     0     0
SMALL
bcc


@<TRIPOS>ATOM
      1 C4          0.7960   -0.9460   -0.5560 c3        1 2LG     -0.020100
      2 C6          0.8630   -0.1140    1.7940 c3        1 2LG      0.001900
      3 C7          4.3240    0.3260    0.0300 cc        1 2LG     -0.041500
      4 C8          3.6840   -0.6590   -2.1620 ch        1 2LG      0.324800
      5 C13         7.7070   -0.1120   -1.4150 ca        1 2LG     -0.167600
      6 C15         7.3480    0.1230   -2.7370 ca        1 2LG      0.024000
      7 C17         8.3010    0.1620   -3.7720 ca        1 2LG     -0.523500
      8 C21         9.6570    0.0010   -3.4170 ca        1 2LG      0.032000
      9 C26         6.1700   -1.0160   -6.9460 c3        1 2LG      0.111800
     10 C28         4.8280   -0.3170   -6.8560 c3        1 2LG     -0.133100
     11 C1          2.1350   -0.4200   -0.1980 cd        1 2LG     -0.064300
     12 C2          2.1810    0.0510    1.1270 cc        1 2LG     -0.181400
     13 C3          3.3790   -0.2680   -0.8450 cd        1 2LG     -0.068000
     14 S5          3.6520    0.6290    1.5430 ss        1 2LG      0.265200
     15 C9         -0.0420   -0.7540    0.7230 c3        1 2LG     -0.077400
     16 N10         5.6470    0.6420   -0.2940 ns        1 2LG     -0.430100
     17 N11         3.9820   -0.9800   -3.2420 n1        1 2LG     -0.466800
     18 C12         6.6070   -0.3640   -0.4230 c         1 2LG      0.660700
     19 O14         6.5710   -1.4200    0.2230 o         1 2LG     -0.511100
     20 C16         9.0700   -0.2260   -1.0760 ca        1 2LG      0.158400
     21 C18        10.0380   -0.1670   -2.0960 ca        1 2LG     -0.156000
     22 Cl19        9.5660   -0.4210    0.5140 cl        1 2LG      0.035600
     23 S20         7.8550    0.4580   -5.3000 sy        1 2LG      1.474200
     24 N22         6.8790   -1.1290   -5.6360 nx        1 2LG     -0.626300
     25 O23         6.8800    1.4310   -5.4090 o         1 2LG     -0.572800
     26 O24         8.8940    0.3870   -6.2090 o         1 2LG     -0.572800
     27 C25         7.7770   -2.3150   -5.6140 c3        1 2LG      0.111800
     28 C27         7.0710   -3.6430   -5.4270 c3        1 2LG     -0.133100
     29 H41         0.8500   -2.0270   -0.8430 hc        1 2LG      0.066200
     30 H42         0.3550   -0.3820   -1.4160 hc        1 2LG      0.066200
     31 H61         0.9440   -0.7750    2.6940 hc        1 2LG      0.066700
     32 H62         0.4500    0.8730    2.1270 hc        1 2LG      0.066700
     33 H15         6.2830    0.2860   -2.9900 ha        1 2LG      0.162000
     34 H21        10.4310    0.0230   -4.2100 ha        1 2LG      0.179000
     35 H261        6.8600   -0.4630   -7.6470 hx        1 2LG      0.095700
     36 H262        6.0110   -2.0510   -7.3680 hx        1 2LG      0.095700
     37 H281        4.1340   -0.8470   -6.1580 hc        1 2LG      0.079200
     38 H282        4.3710   -0.3200   -7.8770 hc        1 2LG      0.079200
     39 H283        4.9340    0.7460   -6.5220 hc        1 2LG      0.079200
     40 H91        -0.9190   -0.0940    0.5150 hc        1 2LG      0.059200
     41 H92        -0.4290   -1.7380    1.0830 hc        1 2LG      0.059200
     42 H10         5.7580    1.4560   -0.8610 hn        1 2LG      0.317500
     43 H18        11.1090   -0.2620   -1.8400 ha        1 2LG      0.188000
     44 H251        8.5000   -2.1640   -4.7580 hx        1 2LG      0.095700
     45 H252        8.3650   -2.3220   -6.5780 hx        1 2LG      0.095700
     46 H271        6.3830   -3.8690   -6.2770 hc        1 2LG      0.079200
     47 H272        7.8480   -4.4480   -5.3830 hc        1 2LG      0.079200
     48 H273        6.4860   -3.6660   -4.4760 hc        1 2LG      0.079200
     49 H221        6.1640   -1.2620   -4.9140 hn        1 2LG      0.457800
@<TRIPOS>BOND
     1    1   11 1   
     2    1   15 1   
     3    1   29 1   
     4    1   30 1   
     5    2   12 1   
     6    2   15 1   
     7    2   31 1   
     8    2   32 1   
     9    3   13 2   
    10    3   14 1   
    11    3   16 1   
    12    4   13 1   
    13    4   17 3   
    14    5    6 ar  
    15    5   18 1   
    16    5   20 ar  
    17    6    7 ar  
    18    6   33 1   
    19    7    8 ar  
    20    7   23 1   
    21    8   21 ar  
    22    8   34 1   
    23    9   10 1   
    24    9   24 1   
    25    9   35 1   
    26    9   36 1   
    27   10   37 1   
    28   10   38 1   
    29   10   39 1   
    30   11   12 2   
    31   11   13 1   
    32   12   14 1   
    33   15   40 1   
    34   15   41 1   
    35   16   18 1   
    36   16   42 1   
    37   18   19 2   
    38   20   21 ar  
    39   20   22 1   
    40   21   43 1   
    41   23   24 1   
    42   23   25 2   
    43   23   26 2   
    44   24   27 1   
    45   24   49 1   
    46   27   28 1   
    47   27   44 1   
    48   27   45 1   
    49   28   46 1   
    50   28   47 1   
    51   28   48 1   
@<TRIPOS>SUBSTRUCTURE
     1 2LG         1 TEMP              0 ****  ****    0 ROOT
