@<TRIPOS>MOLECULE
2LI
   73    76     1     0     0
SMALL
bcc


@<TRIPOS>ATOM
      1 C4          4.0460    3.2970    0.3140 cc        1 2LI     -0.246600
      2 C5          3.8990    1.9790    0.9300 c3        1 2LI      0.013900
      3 C6          2.7920    1.1390    0.2140 c3        1 2LI      0.243500
      4 C7          3.0000   -0.3030    0.6730 ca        1 2LI     -0.116300
      5 C8          2.9150   -0.5780    2.0470 ca        1 2LI     -0.129000
      6 C10         3.3550   -2.9180    1.6260 ca        1 2LI     -0.122000
      7 C15         3.8700   -5.1260   -0.0880 c3        1 2LI     -0.085767
      8 C20        -2.1270    0.3470    0.1810 c3        1 2LI      0.093700
      9 C26        -3.3290    0.3650    1.1460 c3        1 2LI     -0.076100
     10 C28        -5.3930   -0.9430    0.6240 ca        1 2LI     -0.186000
     11 C29        -6.6270   -1.0770   -0.0380 ca        1 2LI      0.153900
     12 C30        -7.1030   -0.0680   -0.8900 ca        1 2LI     -0.213000
     13 C31        -6.3200    1.0860   -1.0640 ca        1 2LI      0.153900
     14 F33        -6.7620    2.0730   -1.8790 f         1 2LI     -0.135400
     15 C32        -5.0870    1.2270   -0.4050 ca        1 2LI     -0.186000
     16 C27        -4.6270    0.2090    0.4350 ca        1 2LI     -0.024300
     17 N21        -1.9310   -0.9180   -0.4860 n         1 2LI     -0.569900
     18 C19        -0.8690    0.8160    0.9710 c3        1 2LI      0.114100
     19 O24        -1.1460    2.0550    1.5960 oh        1 2LI     -0.591800
     20 N17         1.4620    1.6540    0.5680 n3        1 2LI     -0.814200
     21 C35         4.6590    4.5150    0.7860 cc        1 2LI      0.306200
     22 C3          3.5750    3.6100   -0.9770 cd        1 2LI     -0.094600
     23 N37         3.9170    4.9440   -1.2070 na        1 2LI     -0.013600
     24 N36         4.5550    5.4820   -0.1650 nd        1 2LI     -0.522800
     25 C2          2.8500    2.6720   -1.8520 c3        1 2LI      0.001900
     26 C1          3.0140    1.2560   -1.3160 c3        1 2LI     -0.060400
     27 C9          3.0930   -1.8750    2.5150 ca        1 2LI     -0.121000
     28 C11         3.4420   -2.6680    0.2550 ca        1 2LI     -0.067300
     29 C12         3.2630   -1.3530   -0.2070 ca        1 2LI     -0.124000
     30 C16         5.0110   -3.4480   -1.4960 c3        1 2LI     -0.085767
     31 C14         2.5650   -3.8390   -1.7430 c3        1 2LI     -0.085767
     32 H5          4.8650    1.4100    0.8440 hc        1 2LI      0.055700
     33 H5A         3.6660    2.0800    2.0230 hc        1 2LI      0.055700
     34 H8          2.7070    0.2320    2.7620 ha        1 2LI      0.132000
     35 H10         3.4880   -3.9340    2.0280 ha        1 2LI      0.136000
     36 H15         2.9360   -5.4070    0.4560 hc        1 2LI      0.036589
     37 H15A        4.0690   -5.9000   -0.8680 hc        1 2LI      0.036589
     38 H15B        4.7250   -5.1240    0.6300 hc        1 2LI      0.036589
     39 H20        -2.3230    1.1150   -0.6290 h1        1 2LI      0.048700
     40 H26        -3.1940   -0.4440    1.9140 hc        1 2LI      0.088200
     41 H26A       -3.3180    1.3510    1.6880 hc        1 2LI      0.088200
     42 H28        -5.0460   -1.7460    1.2920 ha        1 2LI      0.155500
     43 H30        -8.0680   -0.1740   -1.4050 ha        1 2LI      0.165000
     44 H32        -4.4980    2.1450   -0.5460 ha        1 2LI      0.155500
     45 HN21       -2.2550   -0.9750   -1.4210 hn        1 2LI      0.309500
     46 H23        -1.5720   -4.2430    0.0370 hc        1 2LI      0.067367
     47 H23A       -2.4690   -3.4560   -1.3350 hc        1 2LI      0.067367
     48 H23B       -0.6530   -3.3500   -1.2510 hc        1 2LI      0.067367
     49 H19        -0.6770    0.1050    1.8250 h1        1 2LI      0.111700
     50 HO24       -1.1030    2.7430    0.9200 ho        1 2LI      0.405000
     51 H18         0.6440   -0.1600   -0.2360 h1        1 2LI      0.044200
     52 H18A        0.0400    1.4160   -0.9200 h1        1 2LI      0.044200
     53 HN17        1.3850    1.7470    1.5650 hn        1 2LI      0.375800
     54 H35         5.1430    4.6950    1.7460 h4        1 2LI      0.041100
     55 H2          1.7610    2.9490   -1.8800 hc        1 2LI      0.053700
     56 H2A         3.2390    2.7160   -2.9040 hc        1 2LI      0.053700
     57 H1          4.0540    0.9000   -1.5340 hc        1 2LI      0.048200
     58 H1A         2.2880    0.5920   -1.8540 hc        1 2LI      0.048200
     59 H9          3.0220   -2.0830    3.5930 ha        1 2LI      0.134000
     60 H12         3.3370   -1.1700   -1.2900 ha        1 2LI      0.132000
     61 H16         5.8650   -3.3810   -0.7800 hc        1 2LI      0.036589
     62 H16A        5.2260   -4.2550   -2.2360 hc        1 2LI      0.036589
     63 H16B        4.9280   -2.4780   -2.0420 hc        1 2LI      0.036589
     64 H14         2.4660   -2.8840   -2.3110 hc        1 2LI      0.036589
     65 H14A        2.7480   -4.6660   -2.4710 hc        1 2LI      0.036589
     66 H14B        1.6050   -4.0380   -1.2090 hc        1 2LI      0.036589
     67 HN37        3.7170    5.4860   -2.0130 hn        1 2LI      0.317700
     68 C13         3.7190   -3.7600   -0.7460 c3        1 2LI     -0.009700
     69 C18         0.3500    0.8960    0.0330 c3        1 2LI      0.132800
     70 C22        -1.6750   -2.1040    0.1850 c         1 2LI      0.655100
     71 F34        -7.3670   -2.1960    0.1450 f         1 2LI     -0.135400
     72 C23        -1.5940   -3.3610   -0.6480 c3        1 2LI     -0.176100
     73 O25        -1.4760   -2.1310    1.4150 o         1 2LI     -0.606100
@<TRIPOS>BOND
     1    1    2 1   
     2    1   21 1   
     3    1   22 2   
     4    2    3 1   
     5    2   32 1   
     6    2   33 1   
     7    3    4 1   
     8    3   20 1   
     9    3   26 1   
    10    4    5 ar  
    11    4   29 ar  
    12    5   27 ar  
    13    5   34 1   
    14    6   27 ar  
    15    6   28 ar  
    16    6   35 1   
    17    7   36 1   
    18    7   37 1   
    19    7   38 1   
    20    7   68 1   
    21    8    9 1   
    22    8   17 1   
    23    8   18 1   
    24    8   39 1   
    25    9   16 1   
    26    9   40 1   
    27    9   41 1   
    28   10   11 ar  
    29   10   16 ar  
    30   10   42 1   
    31   11   12 ar  
    32   11   71 1   
    33   12   13 ar  
    34   12   43 1   
    35   13   14 1   
    36   13   15 ar  
    37   15   16 ar  
    38   15   44 1   
    39   17   45 1   
    40   17   70 1   
    41   18   19 1   
    42   18   49 1   
    43   18   69 1   
    44   19   50 1   
    45   20   53 1   
    46   20   69 1   
    47   21   24 2   
    48   21   54 1   
    49   22   23 1   
    50   22   25 1   
    51   23   24 1   
    52   23   67 1   
    53   25   26 1   
    54   25   55 1   
    55   25   56 1   
    56   26   57 1   
    57   26   58 1   
    58   27   59 1   
    59   28   29 ar  
    60   28   68 1   
    61   29   60 1   
    62   30   61 1   
    63   30   62 1   
    64   30   63 1   
    65   30   68 1   
    66   31   64 1   
    67   31   65 1   
    68   31   66 1   
    69   31   68 1   
    70   46   72 1   
    71   47   72 1   
    72   48   72 1   
    73   51   69 1   
    74   52   69 1   
    75   70   72 1   
    76   70   73 2   
@<TRIPOS>SUBSTRUCTURE
     1 2LI         1 TEMP              0 ****  ****    0 ROOT
