@<TRIPOS>MOLECULE
2LI
   73    70     1     0     0
SMALL
bcc


@<TRIPOS>ATOM
      1 C4          0.2320    1.2910    0.6220 c2        1 2LI     -0.181000
      2 C5          1.4590    2.1160    0.4470 c3        1 2LI     -0.039000
      3 C6          3.2330    0.4720    0.8210 c2        1 2LI      0.159000
      4 C7          4.6120    0.1090    1.2060 c2        1 2LI     -0.051000
      5 C8          5.6000    1.0170    1.2420 c2        1 2LI     -0.156000
      6 C10         7.0300   -1.6150    0.5740 c2        1 2LI     -0.462000
      7 C15         7.2980   -4.0790    1.7840 c3        1 2LI     -0.182500
      8 C20         1.1280    3.2940    5.4060 c3        1 2LI      0.048000
      9 C26         0.9860    4.6800    6.0440 c3        1 2LI     -0.148000
     10 C28         2.7350    5.3880    7.6520 c2        1 2LI     -0.134000
     11 C29         3.3350    5.3910    9.0270 c3        1 2LI      0.029000
     12 C30         2.4670    4.9470   10.1420 c1        1 2LI     -0.040000
     13 C31         1.3030    4.1860    9.7790 c2        1 2LI     -0.015000
     14 F33         0.5970    3.5980   10.7780 f         1 2LI     -0.086000
     15 C32         0.8440    4.1100    8.4840 c2        1 2LI     -0.073000
     16 C27         1.5740    4.7350    7.4090 c2        1 2LI     -0.103000
     17 N21         2.4500    2.8180    5.1370 n         1 2LI     -0.394000
     18 C19         0.5380    3.9860    3.1360 c1        1 2LI     -0.060000
     19 O24         0.2910    3.2880    4.1670 os        1 2LI     -0.110000
     20 N17         2.7690    1.6890    0.8830 n2        1 2LI     -0.191000
     21 C35        -0.7880    1.4320    1.5130 c2        1 2LI     -0.149000
     22 C3         -0.0800   -0.0650   -0.1230 c3        1 2LI     -0.008000
     23 N37        -1.3210   -0.5370    0.5880 n2        1 2LI     -0.018000
     24 N36        -1.6970    0.2900    1.4130 n2        1 2LI     -0.015000
     25 C2          1.1740   -0.7400    0.0630 c1        1 2LI     -0.095000
     26 C1          2.3210   -0.5400    0.3860 c1        1 2LI     -0.183000
     27 C9          7.1350   -1.4110   -0.7210 c1        1 2LI      0.222000
     28 C11         5.8570   -2.0670    1.3110 c2        1 2LI     -0.028000
     29 C12         4.7870   -1.2920    1.5640 c2        1 2LI     -0.139000
     30 C16         4.9990   -4.3450    0.8660 c3        1 2LI     -0.182500
     31 C14         5.4120   -3.6910    3.1840 c1        1 2LI     -0.018000
     32 H5          1.5480    2.3770   -0.6520 h1        1 2LI      0.127500
     33 H5A         1.2830    3.0850    1.0140 h1        1 2LI      0.127500
     34 H8          5.4480    2.0750    0.9880 ha        1 2LI      0.130000
     35 H10         7.9380   -1.4670    1.2010 ha        1 2LI      0.197000
     36 H15         7.9710   -3.4780    2.4390 hc        1 2LI      0.089167
     37 H15A        7.6950   -4.0640    0.7410 hc        1 2LI      0.089167
     38 H15B        7.2780   -5.1340    2.1500 hc        1 2LI      0.089167
     39 H20         3.8520    0.0280    5.2810 hc        1 2LI      0.068750
     40 H26        -0.1150    4.9040    6.1000 hc        1 2LI      0.126500
     41 H26A        1.4600    5.4550    5.3810 hc        1 2LI      0.126500
     42 H28         3.3000    5.8990    6.8540 ha        1 2LI      0.175000
     43 H30         4.1160    4.5410    9.0240 h1        1 2LI      0.159000
     44 H32        -0.1010    3.5950    8.2420 ha        1 2LI      0.153000
     45 HN21        2.5410    1.8250    5.1050 hn        1 2LI      0.237000
     46 H23         5.6250    3.5600    4.2730 hc        1 2LI      0.114667
     47 H23A        4.6790    2.3120    3.3460 hc        1 2LI      0.114667
     48 H23B        5.0290    2.0610    5.1170 hc        1 2LI      0.114667
     49 H19         1.4190    4.6600    3.0910 ha        1 2LI      0.066000
     50 HO24        0.5940    2.5200    6.0380 h2        1 2LI      0.132000
     51 H18         2.1150   -0.4030    4.9360 hc        1 2LI      0.068750
     52 H18A        3.4450   -1.5520    4.4840 hc        1 2LI      0.068750
     53 HN17        3.0320   -1.2860    6.2310 hc        1 2LI      0.068750
     54 H35        -0.9880    2.2300    2.2410 h4        1 2LI      0.219000
     55 H2          0.2600    0.7580    4.5890 ha        1 2LI      0.004167
     56 H2A        -0.1170    0.8360    4.0300 ha        1 2LI      0.004167
     57 H1          1.4690   -2.8060    4.9620 ha        1 2LI      0.004167
     58 H1A         1.2080   -3.3860    4.7290 ha        1 2LI      0.004167
     59 H9          6.6260    0.7370    1.5180 ha        1 2LI      0.130000
     60 H12         3.9180   -1.7360    2.0900 ha        1 2LI      0.139000
     61 H16         4.9270   -5.3870    1.2600 hc        1 2LI      0.089167
     62 H16A        5.4460   -4.3680   -0.1570 hc        1 2LI      0.089167
     63 H16B        3.9740   -3.9080    0.8020 hc        1 2LI      0.089167
     64 H14         3.0990   -3.4910    3.2400 ha        1 2LI      0.004167
     65 H14A        5.3090   -2.7660    3.7780 ha        1 2LI      0.029000
     66 H14B        3.2370   -4.0990    2.9640 ha        1 2LI      0.004167
     67 HN37       -0.3380    0.0740   -1.2090 h1        1 2LI      0.172000
     68 C13         5.8750   -3.5010    1.7950 c3        1 2LI     -0.115000
     69 C18         3.1110   -0.8000    5.2340 c3        1 2LI     -0.274000
     70 C22         3.5150    3.5700    4.6580 c2        1 2LI      0.310000
     71 F34         4.0080    6.5730    9.2920 f         1 2LI     -0.124000
     72 C23         4.7870    2.8230    4.3380 c3        1 2LI     -0.250000
     73 O25         3.4350    4.8050    4.5130 o         1 2LI     -0.374000
@<TRIPOS>BOND
     1    1    2 1   
     2    1   21 1   
     3    1   22 1   
     4    2   20 1   
     5    2   32 1   
     6    2   33 1   
     7    3    4 1   
     8    3   20 1   
     9    3   26 1   
    10    4    5 1   
    11    4   29 1   
    12    5   34 1   
    13    5   59 1   
    14    6   27 1   
    15    6   28 1   
    16    6   35 1   
    17    7   36 1   
    18    7   37 1   
    19    7   38 1   
    20    7   68 1   
    21    8    9 1   
    22    8   17 1   
    23    8   19 1   
    24    8   50 1   
    25    9   16 1   
    26    9   40 1   
    27    9   41 1   
    28   10   11 1   
    29   10   16 1   
    30   10   42 1   
    31   11   12 1   
    32   11   43 1   
    33   11   71 1   
    34   12   13 1   
    35   13   14 1   
    36   13   15 1   
    37   15   16 1   
    38   15   44 1   
    39   17   45 1   
    40   17   70 1   
    41   18   19 1   
    42   18   49 1   
    43   21   24 1   
    44   21   54 1   
    45   22   23 1   
    46   22   25 1   
    47   22   67 1   
    48   23   24 1   
    49   25   26 1   
    50   28   29 1   
    51   28   68 1   
    52   29   60 1   
    53   30   61 1   
    54   30   62 1   
    55   30   63 1   
    56   30   68 1   
    57   31   65 1   
    58   31   68 1   
    59   39   69 1   
    60   46   72 1   
    61   47   72 1   
    62   48   72 1   
    63   51   69 1   
    64   52   69 1   
    65   53   69 1   
    66   55   56 1   
    67   57   58 1   
    68   64   66 1   
    69   70   72 1   
    70   70   73 1   
@<TRIPOS>SUBSTRUCTURE
     1 2LI         1 TEMP              0 ****  ****    0 ROOT
