@<TRIPOS>MOLECULE
2LI
   73    66     1     0     0
SMALL
bcc


@<TRIPOS>ATOM
      1 C4         -4.0800    0.2290   -1.4370 c1        1 2LI     -0.186000
      2 C5         -2.4880    0.3150   -1.4050 c2        1 2LI     -0.110000
      3 C6         -1.8660    0.3350   -0.0900 c3        1 2LI      0.090000
      4 C7         -1.8460    1.9080    0.4370 c2        1 2LI     -0.085000
      5 C8         -2.0570    2.9480   -0.4680 c1        1 2LI     -0.122000
      6 C10        -1.6150    4.5600    1.2790 c1        1 2LI     -0.132500
      7 C13        -1.1090    3.8420    3.6760 c3        1 2LI     -0.016000
      8 C15        -2.3800    4.3940    4.3420 c3        1 2LI     -0.203667
      9 C20         1.7120   -2.2170   -2.0480 c3        1 2LI      0.017000
     10 C22         3.4390   -1.3800   -0.4830 c1        1 2LI      0.301000
     11 C26         2.2930   -3.6280   -2.1200 c3        1 2LI     -0.162000
     12 C28         3.6750   -4.9590   -2.6490 c1        1 2LI     -0.181000
     13 F34         4.8000   -7.0410   -2.7550 f         1 2LI     -0.100000
     14 C29         4.8440   -5.6990   -2.7980 c1        1 2LI      0.118500
     15 C30         6.0570   -5.0500   -3.0060 c1        1 2LI     -0.200500
     16 C31         6.1010   -3.6600   -3.0640 c1        1 2LI      0.118500
     17 F33         7.2740   -3.0330   -3.2530 f         1 2LI     -0.100000
     18 C32         4.9320   -2.9190   -2.9150 c1        1 2LI     -0.200500
     19 C27         3.7190   -3.5680   -2.7070 c1        1 2LI     -0.018000
     20 N21         2.7460   -1.2920   -1.7400 n2        1 2LI     -0.382000
     21 C23         4.5270   -0.3610   -0.1350 c3        1 2LI     -0.245000
     22 O25         3.1640   -2.2700    0.3030 o         1 2LI     -0.371000
     23 C19         0.6480   -2.1630   -0.9720 c3        1 2LI      0.013000
     24 O24         0.0140   -3.4060   -0.8810 oh        1 2LI     -0.329000
     25 C18        -0.3860   -1.0850   -1.3270 c3        1 2LI     -0.065000
     26 N17        -0.4730   -0.1170   -0.2380 n3        1 2LI     -0.312000
     27 C35        -5.0210    0.3720   -2.4100 c1        1 2LI     -0.114000
     28 C3         -4.7800    0.0290   -0.1590 c1        1 2LI     -0.114000
     29 N37        -6.1030    0.0580   -0.4040 n2        1 2LI     -0.120500
     30 N36        -6.2900    0.2710   -1.8070 n2        1 2LI     -0.120500
     31 C2         -3.8820   -0.2710    1.1540 c2        1 2LI     -0.097000
     32 C1         -2.4910   -0.4690    0.9400 c3        1 2LI     -0.141000
     33 C9         -1.9420    4.2740   -0.0480 c1        1 2LI     -0.132500
     34 C11        -1.4040    3.5220    2.1840 c1        1 2LI     -0.067000
     35 C12        -1.5190    2.1950    1.7640 c2        1 2LI     -0.111000
     36 C16         0.0130    4.8910    3.7630 c3        1 2LI     -0.203667
     37 C14        -0.6690    2.5600    4.3970 c3        1 2LI     -0.203667
     38 H5         -2.2180    1.1310   -1.8810 ha        1 2LI      0.091000
     39 H5A        -2.1340   -0.4560   -1.8950 ha        1 2LI      0.091000
     40 H8         -2.2870    2.7470   -1.4000 ha        1 2LI      0.143000
     41 H10        -1.5350    5.4930    1.5740 ha        1 2LI      0.131000
     42 H15        -3.1240    3.7690    4.1980 hc        1 2LI      0.076444
     43 H15A       -2.2240    4.5010    5.3080 hc        1 2LI      0.076444
     44 H15B       -2.6040    5.2670    3.9480 hc        1 2LI      0.076444
     45 H20         1.3110   -1.9830   -2.9170 h1        1 2LI      0.102000
     46 H26         1.7240   -4.1880   -2.6970 hc        1 2LI      0.116500
     47 H26A        2.3260   -4.0150   -1.2180 hc        1 2LI      0.116500
     48 H28         2.8150   -5.4180   -2.5470 ha        1 2LI      0.162000
     49 H30         6.8820   -5.5720   -3.1110 ha        1 2LI      0.160500
     50 H32         4.9640   -1.9410   -2.9570 ha        1 2LI      0.160500
     51 HN21        2.9670   -0.6310   -2.3410 hn        1 2LI      0.225000
     52 H23         4.1130    0.5100    0.0520 hc        1 2LI      0.107333
     53 H23A        5.0210   -0.6660    0.6590 hc        1 2LI      0.107333
     54 H23B        5.1470   -0.2720   -0.8920 hc        1 2LI      0.107333
     55 H19         1.0650   -1.9450   -0.1110 h1        1 2LI      0.127000
     56 HO24        0.1980   -3.7770   -0.0900 ho        1 2LI      0.205000
     57 H18        -1.2640   -1.5050   -1.4620 h1        1 2LI      0.081000
     58 H18A       -0.1120   -0.6260   -2.1530 h1        1 2LI      0.081000
     59 HN17        0.0650    0.6040   -0.4250 hn        1 2LI      0.167000
     60 H35        -4.8470    0.5190   -3.3640 DU        1 2LI      0.224000
     61 H2         -4.2400   -1.0790    1.5890 ha        1 2LI      0.099000
     62 H2A        -3.9890    0.4830    1.7730 ha        1 2LI      0.099000
     63 H1         -2.3520   -1.4160    0.7110 hc        1 2LI      0.095000
     64 H1A        -2.0270   -0.2890    1.7870 hc        1 2LI      0.095000
     65 H9         -2.0910    5.0060   -0.6860 ha        1 2LI      0.131000
     66 H12        -1.3700    1.4650    2.4010 ha        1 2LI      0.151000
     67 H16        -0.3280    5.7610    3.4570 hc        1 2LI      0.076444
     68 H16A        0.7650    4.6150    3.1940 hc        1 2LI      0.076444
     69 H16B        0.3180    4.9680    4.6960 hc        1 2LI      0.076444
     70 H14        -0.2370    2.7960    5.2510 hc        1 2LI      0.076444
     71 H14A       -0.0320    2.0690    3.8340 hc        1 2LI      0.076444
     72 H14B       -1.4540    1.9960    4.5720 hc        1 2LI      0.076444
     73 HN37       -6.7690   -0.0420    0.2200 DU        1 2LI      0.224000
@<TRIPOS>BOND
     1    1   27 1   
     2    1   28 1   
     3    2    3 1   
     4    2   38 1   
     5    2   39 1   
     6    3    4 1   
     7    3   26 1   
     8    3   32 1   
     9    4    5 1   
    10    4   35 1   
    11    5   40 1   
    12    6   33 1   
    13    6   41 1   
    14    7    8 1   
    15    7   34 1   
    16    7   36 1   
    17    7   37 1   
    18    8   42 1   
    19    8   43 1   
    20    8   44 1   
    21    9   11 1   
    22    9   20 1   
    23    9   23 1   
    24    9   45 1   
    25   10   21 1   
    26   10   22 1   
    27   11   19 1   
    28   11   46 1   
    29   11   47 1   
    30   12   19 1   
    31   12   48 1   
    32   13   14 1   
    33   14   15 1   
    34   15   49 1   
    35   16   17 1   
    36   16   18 1   
    37   18   50 1   
    38   20   51 1   
    39   21   52 1   
    40   21   53 1   
    41   21   54 1   
    42   23   24 1   
    43   23   25 1   
    44   23   55 1   
    45   24   56 1   
    46   25   26 1   
    47   25   57 1   
    48   25   58 1   
    49   26   59 1   
    50   27   30 1   
    51   28   29 1   
    52   29   30 1   
    53   31   32 1   
    54   31   61 1   
    55   31   62 1   
    56   32   63 1   
    57   32   64 1   
    58   33   65 1   
    59   34   35 1   
    60   35   66 1   
    61   36   67 1   
    62   36   68 1   
    63   36   69 1   
    64   37   70 1   
    65   37   71 1   
    66   37   72 1   
@<TRIPOS>SUBSTRUCTURE
     1 2LI         1 TEMP              0 ****  ****    0 ROOT
