@<TRIPOS>MOLECULE
2LJ
   42    41     1     0     0
SMALL
bcc


@<TRIPOS>ATOM
      1 C4          1.0410   -0.7290    0.9580 c2        1 2LJ      0.365000
      2 C6         -0.8560    1.0970    2.2420 c2        1 2LJ     -0.160000
      3 C7         -1.8870    1.7480    3.1130 c2        1 2LJ      0.302000
      4 C8         -2.9440    2.5610    2.4630 c3        1 2LJ     -0.265000
      5 N1          0.3320   -1.1810   -1.7390 ns        1 2LJ     -0.295000
      6 N3          1.8910   -1.4210    0.0900 ns        1 2LJ     -0.351000
      7 O7         -1.7840    1.5960    4.3400 o         1 2LJ     -0.365000
      8 C4A        -0.2320   -0.2140    0.3910 c2        1 2LJ     -0.234000
      9 O4          1.3840   -0.6010    2.1520 o         1 2LJ     -0.401000
     10 C2          1.5770   -1.6640   -1.2560 c2        1 2LJ      0.390000
     11 O2          2.3470   -2.2790   -2.0140 o         1 2LJ     -0.309000
     12 C8A        -0.5300   -0.4930   -0.9350 c2        1 2LJ      0.122000
     13 N8          0.2820   -0.5720    4.9660 n8        1 2LJ     -0.408000
     14 C1'         0.6470    0.5000    5.8540 c3        1 2LJ     -0.109000
     15 C2'        -0.1170    0.4100    7.2040 c3        1 2LJ     -0.020000
     16 O2'        -1.1490    1.3460    7.3240 oh        1 2LJ     -0.303000
     17 C3'        -0.6210   -0.9890    7.4760 c2        1 2LJ      0.284000
     18 O3'         0.1860   -2.0170    7.4720 oh        1 2LJ     -0.111000
     19 C4'        -2.0500   -1.3330    7.8270 c3        1 2LJ     -0.039000
     20 O4'        -2.9250   -0.2880    7.5140 oh        1 2LJ     -0.281000
     21 C5'        -2.1560   -1.7950    9.3000 c3        1 2LJ     -0.033000
     22 O5'        -3.3000   -2.5880    9.4570 oh        1 2LJ     -0.280000
     23 H1          0.1750    1.1860    2.6530 h4        1 2LJ      0.147000
     24 H2         -2.4750    3.3510    1.8240 hc        1 2LJ      0.124333
     25 H3         -3.5680    1.9030    1.8050 hc        1 2LJ      0.124333
     26 H4         -3.6020    3.0470    3.2240 hc        1 2LJ      0.124333
     27 H5          2.7650   -1.7720    0.4250 hn        1 2LJ      0.278000
     28 H7         -1.4770   -0.1570   -1.4070 h4        1 2LJ      0.192000
     29 H8         -0.5350   -0.3360    4.4310 hn        1 2LJ      0.197000
     30 H9          0.4210    1.5270    5.4350 h1        1 2LJ      0.121000
     31 H10         1.7500    0.4540    6.0770 h1        1 2LJ      0.121000
     32 H11        -1.6230    1.4160    6.4740 ho        1 2LJ      0.273000
     33 H12         0.5970    0.6670    8.0520 h1        1 2LJ      0.170000
     34 H13         1.0940   -1.7950    7.1550 ho        1 2LJ      0.308000
     35 H14        -2.3730   -2.1910    7.1480 h1        1 2LJ      0.208000
     36 H15        -2.8900    0.3820    8.2170 ho        1 2LJ      0.239000
     37 H16        -4.0770   -2.0150    9.3880 ho        1 2LJ      0.225000
     38 H17        -2.1730   -0.8980    9.9750 h1        1 2LJ      0.116500
     39 H18        -1.2950   -2.4710    9.5570 h1        1 2LJ      0.116500
     40 H19         0.1150   -1.3680   -2.6960 hn        1 2LJ      0.287000
     41 N5         -1.1770    0.4740    1.1620 n2        1 2LJ     -0.067000
     42 H82         1.0300   -0.7980    4.3350 hn        1 2LJ      0.197000
@<TRIPOS>BOND
     1    1    6 1   
     2    1    8 1   
     3    1    9 1   
     4    2    3 1   
     5    2   23 1   
     6    2   41 1   
     7    3    4 1   
     8    3    7 1   
     9    4   24 1   
    10    4   25 1   
    11    4   26 1   
    12    5   10 1   
    13    5   12 1   
    14    5   40 1   
    15    6   10 1   
    16    6   27 1   
    17    8   12 1   
    18    8   41 1   
    19   10   11 1   
    20   12   28 1   
    21   13   14 1   
    22   13   29 1   
    23   13   42 1   
    24   14   15 1   
    25   14   30 1   
    26   14   31 1   
    27   15   16 1   
    28   15   17 1   
    29   15   33 1   
    30   16   32 1   
    31   17   18 1   
    32   17   19 1   
    33   18   34 1   
    34   19   20 1   
    35   19   21 1   
    36   19   35 1   
    37   20   36 1   
    38   21   22 1   
    39   21   38 1   
    40   21   39 1   
    41   22   37 1   
@<TRIPOS>SUBSTRUCTURE
     1 2LJ         1 TEMP              0 ****  ****    0 ROOT
