@<TRIPOS>MOLECULE
2LJ
   42    40     1     0     0
SMALL
bcc


@<TRIPOS>ATOM
      1 C4          0.9190   -0.1240    1.1190 c         1 2LJ      0.741700
      2 C6         -1.7120   -0.4890    2.3340 ce        1 2LJ      0.320200
      3 C7         -2.8870   -0.2560    3.2360 c         1 2LJ      0.525800
      4 C8         -4.2420   -0.5030    2.6890 c3        1 2LJ     -0.198100
      5 N1          0.6750    0.0700   -1.6860 n         1 2LJ     -0.447100
      6 N3          2.0380   -0.2010    0.2960 n         1 2LJ     -0.564500
      7 O7         -2.6510    0.1060    4.3990 o         1 2LJ     -0.604100
      8 C4A        -0.4030    0.0160    0.4610 cd        1 2LJ     -0.128600
      9 O4          1.0790   -0.1450    2.3630 o         1 2LJ     -0.731500
     10 C2          1.9600   -0.1130   -1.1080 c         1 2LJ      0.798500
     11 O2          2.9700   -0.1900   -1.8250 o         1 2LJ     -0.569500
     12 C8A        -0.4520    0.1380   -0.9190 cc        1 2LJ      0.131600
     13 N8          0.1350    0.7430    4.8310 n4        1 2LJ     -0.846600
     14 C1'         0.6240    0.5950    6.2320 c3        1 2LJ      0.188000
     15 C2'        -0.4160   -0.0290    7.0980 c2        1 2LJ     -0.202100
     16 O2'        -1.6110    0.6800    7.0820 oh        1 2LJ     -0.517100
     17 C3'        -0.2460   -1.0710    7.9640 ce        1 2LJ      0.241100
     18 O3'         0.9210   -1.7830    8.0830 oh        1 2LJ     -0.488100
     19 C4'        -1.3100   -1.5660    8.8080 ce        1 2LJ     -0.337000
     20 O4'        -1.9870    2.6030    5.5150 oh        1 2LJ     -0.826000
     21 C5'        -1.1660   -2.6510    9.6070 c2        1 2LJ      0.160100
     22 O5'        -2.1290   -3.1380   10.4210 oh        1 2LJ     -0.467100
     23 H1         -0.9730   -1.2050    2.7570 h4        1 2LJ      0.006800
     24 H2         -4.4380    0.2140    1.8500 hc        1 2LJ      0.090033
     25 H3         -5.0250   -0.3700    3.4750 hc        1 2LJ      0.090033
     26 H4         -4.3050   -1.5440    2.2810 hc        1 2LJ      0.090033
     27 H5          2.9490   -0.3120    0.6940 hn        1 2LJ      0.368500
     28 H7         -1.4090    0.2830   -1.4650 h4        1 2LJ      0.197000
     29 H8          0.8090    1.2570    4.2610 hn        1 2LJ      0.469467
     30 H9          1.5750   -0.0040    6.2080 hx        1 2LJ      0.093700
     31 H10         0.8480    1.6370    6.6120 hx        1 2LJ      0.093700
     32 H11        -2.2680    0.1110    6.6480 ho        1 2LJ      0.425000
     33 H12        -0.7780    1.2440    4.8430 hn        1 2LJ      0.469467
     34 H13         1.6510   -1.2920    7.6810 ho        1 2LJ      0.426000
     35 H14        -2.2450   -0.9840    8.7840 ha        1 2LJ      0.158000
     36 H15        -2.8370    2.1490    5.4890 ho        1 2LJ      0.423000
     37 H16        -1.8510    2.7810    6.4520 ho        1 2LJ      0.423000
     38 H17        -0.2480   -3.2670    9.6830 h4        1 2LJ      0.195000
     39 H18        -2.9270   -2.5840   10.3730 ho        1 2LJ      0.434000
     40 H19         0.6360    0.1500   -2.6820 hn        1 2LJ      0.378500
     41 N5         -1.5830    0.1340    1.2140 nf        1 2LJ     -0.481300
     42 H82        -0.0170   -0.1730    4.3960 hn        1 2LJ      0.469467
@<TRIPOS>BOND
     1    1    6 1   
     2    1    8 1   
     3    1    9 2   
     4    2    3 1   
     5    2   23 1   
     6    2   41 2   
     7    3    4 1   
     8    3    7 2   
     9    4   24 1   
    10    4   25 1   
    11    4   26 1   
    12    5   10 1   
    13    5   12 1   
    14    5   40 1   
    15    6   10 1   
    16    6   27 1   
    17    8   12 2   
    18    8   41 1   
    19   10   11 2   
    20   12   28 1   
    21   13   14 1   
    22   13   29 1   
    23   13   33 1   
    24   13   42 1   
    25   14   15 1   
    26   14   30 1   
    27   14   31 1   
    28   15   16 1   
    29   15   17 2   
    30   16   32 1   
    31   17   18 1   
    32   17   19 1   
    33   18   34 1   
    34   19   21 2   
    35   19   35 1   
    36   20   36 1   
    37   20   37 1   
    38   21   22 1   
    39   21   38 1   
    40   22   39 1   
@<TRIPOS>SUBSTRUCTURE
     1 2LJ         1 TEMP              0 ****  ****    0 ROOT
