@<TRIPOS>MOLECULE
2LK
   40    32     1     0     0
SMALL
bcc


@<TRIPOS>ATOM
      1 CAU         3.1690    0.4530    3.4370 c3        1 2LK     -0.166000
      2 CAN         2.0630    0.0320    4.3110 c2        1 2LK     -0.012000
      3 OAM         2.1270   -0.1360    5.6620 os        1 2LK     -0.062000
      4 NAL         0.8900   -0.6030    6.0980 n2        1 2LK     -0.030000
      5 CAK         0.0820   -0.7190    5.0200 c1        1 2LK     -0.088000
      6 CAV        -1.3870   -1.2300    5.0340 c2        1 2LK     -0.159000
      7 CAJ         0.8040   -0.3250    3.8990 c1        1 2LK     -0.139000
      8 CAD         0.2990   -0.3380    2.4390 c1        1 2LK     -0.028000
      9 CAC         0.4030   -1.4430    1.6250 c2        1 2LK     -0.060000
     10 CAE        -0.2710    0.8530    1.9430 c1        1 2LK     -0.101000
     11 CAF        -0.7260    0.9080    0.6330 c1        1 2LK     -0.132000
     12 CAA        -0.6200   -0.2170   -0.1940 c1        1 2LK     -0.039000
     13 CAB        -0.0620   -1.3810    0.2920 c1        1 2LK     -0.074000
     14 NAI        -0.0310   -2.2690   -0.7050 n1        1 2LK     -0.167500
     15 CAH        -0.5640   -1.6770   -1.8180 c1        1 2LK     -0.025000
     16 NAG        -0.9240   -0.4120   -1.4900 n1        1 2LK     -0.167500
     17 CAX        -1.8140    0.1620   -2.4470 c2        1 2LK      0.029000
     18 CAQ        -1.0430    0.5700   -3.6670 c2        1 2LK     -0.118000
     19 CAP        -0.8300    1.9370   -3.9500 c2        1 2LK     -0.102000
     20 CAO        -0.1750    2.3090   -5.1110 c1        1 2LK     -0.122000
     21 CAT         0.2790    1.3230   -6.0110 c1        1 2LK     -0.039000
     22 CL          1.0850    1.8010   -7.5080 cl        1 2LK     -0.008000
     23 CAS         0.0660   -0.0460   -5.7260 c1        1 2LK     -0.132000
     24 CAR        -0.5880   -0.4160   -4.5660 c1        1 2LK     -0.109000
     25 H1          3.4020   -0.2730    2.8400 hc        1 2LK      0.107667
     26 H2          2.8970    1.2140    2.9240 hc        1 2LK      0.107667
     27 H3          3.9450    0.6880    3.9830 hc        1 2LK      0.107667
     28 H4         -1.9690   -0.5610    4.6270 ha        1 2LK      0.098333
     29 H5         -1.4490   -2.0920    4.5130 ha        1 2LK      0.098333
     30 H6         -1.6680   -1.3860    5.9580 ha        1 2LK      0.098333
     31 H7          0.9400   -2.3050    1.9620 ha        1 2LK      0.151000
     32 H8         -0.2110    1.6830    2.4750 ha        1 2LK      0.139000
     33 H9         -1.1270    1.7430    0.2820 ha        1 2LK      0.144000
     34 H10        -0.7010   -2.0970   -2.6650 DU        1 2LK      0.200000
     35 H11        -2.2360    0.9210   -2.0700 ha        1 2LK      0.109000
     36 H12        -2.5090   -0.5150   -2.7050 ha        1 2LK      0.109000
     37 H13        -1.1670    2.6680   -3.2820 ha        1 2LK      0.148000
     38 H14        -0.0270    3.2720   -5.3130 ha        1 2LK      0.153000
     39 H15         0.3860   -0.7410   -6.3590 ha        1 2LK      0.144000
     40 H16        -0.7360   -1.3540   -4.3700 ha        1 2LK      0.137000
@<TRIPOS>BOND
     1    1    2 1   
     2    1   25 1   
     3    1   26 1   
     4    1   27 1   
     5    2    3 1   
     6    2    7 1   
     7    3    4 1   
     8    4    5 1   
     9    5    7 1   
    10    6   28 1   
    11    6   29 1   
    12    6   30 1   
    13    8    9 1   
    14    8   10 1   
    15    9   13 1   
    16    9   31 1   
    17   10   32 1   
    18   11   12 1   
    19   11   33 1   
    20   14   15 1   
    21   15   16 1   
    22   17   18 1   
    23   17   35 1   
    24   17   36 1   
    25   18   19 1   
    26   18   24 1   
    27   19   20 1   
    28   19   37 1   
    29   20   38 1   
    30   21   23 1   
    31   23   39 1   
    32   24   40 1   
@<TRIPOS>SUBSTRUCTURE
     1 2LK         1 TEMP              0 ****  ****    0 ROOT
