@<TRIPOS>MOLECULE
2LK
   40    43     1     0     0
SMALL
bcc


@<TRIPOS>ATOM
      1 CAU        -0.1340    0.4700    0.0770 c3        1 2LK     -0.140400
      2 CAN         1.3040    0.2310   -0.0160 cc        1 2LK      0.273000
      3 OAM         2.0230    0.2080    1.2020 os        1 2LK     -0.119100
      4 NAL         3.3010   -0.0140    0.9710 nc        1 2LK     -0.365300
      5 CAK         3.5010   -0.1520   -0.3550 cd        1 2LK      0.336600
      6 CAV         4.7990   -0.4070   -1.0070 c3        1 2LK     -0.137400
      7 CAJ         2.2080    0.0020   -1.0440 cd        1 2LK     -0.267600
      8 CAD         1.9560   -0.0650   -2.4620 ca        1 2LK     -0.029000
      9 CAC         2.6270   -1.0020   -3.2520 ca        1 2LK     -0.055000
     10 CAE         1.0170    0.8240   -3.0350 ca        1 2LK     -0.105000
     11 CAF         0.7240    0.8170   -4.3900 ca        1 2LK     -0.138000
     12 CAA         1.3930   -0.1120   -5.1940 ca        1 2LK     -0.070200
     13 CAB         2.3590   -1.0360   -4.6240 ca        1 2LK      0.065400
     14 NAI         2.8780   -1.8600   -5.6490 nc        1 2LK     -0.561100
     15 CAH         2.2670   -1.4590   -6.7700 cd        1 2LK      0.430700
     16 NAG         1.3270   -0.4210   -6.5620 na        1 2LK     -0.174300
     17 CAX         0.6300    0.3100   -7.5770 c3        1 2LK      0.095600
     18 CAQ         1.4020    1.4300   -8.2180 ca        1 2LK     -0.125300
     19 CAP         1.5230    1.4810   -9.6100 ca        1 2LK     -0.105500
     20 CAO         2.1960    2.5370  -10.2200 ca        1 2LK     -0.123500
     21 CAT         2.7580    3.5450   -9.4300 ca        1 2LK      0.025400
     22 CL          3.5830    4.8330  -10.1690 cl        1 2LK     -0.086400
     23 CAS         2.6460    3.5010   -8.0370 ca        1 2LK     -0.123500
     24 CAR         1.9660    2.4440   -7.4360 ca        1 2LK     -0.105500
     25 H1         -0.3380    1.5710    0.1020 hc        1 2LK      0.066033
     26 H2         -0.6510    0.0280   -0.8110 hc        1 2LK      0.066033
     27 H3         -0.5490    0.0140    1.0110 hc        1 2LK      0.066033
     28 H4          4.9760   -1.5100   -1.0810 hc        1 2LK      0.060700
     29 H5          4.7930    0.0250   -2.0400 hc        1 2LK      0.060700
     30 H6          5.6430    0.0470   -0.4310 hc        1 2LK      0.060700
     31 H7          3.3460   -1.7070   -2.8080 ha        1 2LK      0.155000
     32 H8          0.5090    1.5470   -2.3770 ha        1 2LK      0.135000
     33 H9         -0.0090    1.5160   -4.8150 ha        1 2LK      0.137000
     34 H10         2.4330   -1.8850   -7.7670 h5        1 2LK      0.070800
     35 H11        -0.3010    0.7480   -7.1090 h1        1 2LK      0.069700
     36 H12         0.3120   -0.4280   -8.3710 h1        1 2LK      0.069700
     37 H13         1.0840    0.6870  -10.2330 ha        1 2LK      0.142500
     38 H14         2.2870    2.5730  -11.3160 ha        1 2LK      0.152000
     39 H15         3.0920    4.2930   -7.4160 ha        1 2LK      0.152000
     40 H16         1.8770    2.4030   -6.3380 ha        1 2LK      0.142500
@<TRIPOS>BOND
     1    1    2 1   
     2    1   25 1   
     3    1   26 1   
     4    1   27 1   
     5    2    3 1   
     6    2    7 2   
     7    3    4 1   
     8    4    5 2   
     9    5    6 1   
    10    5    7 1   
    11    6   28 1   
    12    6   29 1   
    13    6   30 1   
    14    7    8 1   
    15    8    9 ar  
    16    8   10 ar  
    17    9   13 ar  
    18    9   31 1   
    19   10   11 ar  
    20   10   32 1   
    21   11   12 ar  
    22   11   33 1   
    23   12   13 ar  
    24   12   16 1   
    25   13   14 1   
    26   14   15 2   
    27   15   16 1   
    28   15   34 1   
    29   16   17 1   
    30   17   18 1   
    31   17   35 1   
    32   17   36 1   
    33   18   19 ar  
    34   18   24 ar  
    35   19   20 ar  
    36   19   37 1   
    37   20   21 ar  
    38   20   38 1   
    39   21   22 1   
    40   21   23 ar  
    41   23   24 ar  
    42   23   39 1   
    43   24   40 1   
@<TRIPOS>SUBSTRUCTURE
     1 2LK         1 TEMP              0 ****  ****    0 ROOT
