@<TRIPOS>MOLECULE
2LK
   40    43     1     0     0
SMALL
bcc


@<TRIPOS>ATOM
      1 CAU         5.0110   -0.2810    2.4140 c3        1 2LK     -0.140400
      2 CAN         4.9220    0.3880    1.1180 cc        1 2LK      0.273000
      3 OAM         6.0400    1.1600    0.7260 os        1 2LK     -0.119100
      4 NAL         5.8250    1.7060   -0.4540 nc        1 2LK     -0.365300
      5 CAK         4.6060    1.3420   -0.9020 cd        1 2LK      0.336600
      6 CAV         4.0030    1.7530   -2.1830 c3        1 2LK     -0.137400
      7 CAJ         3.9770    0.4710    0.1050 cd        1 2LK     -0.267600
      8 CAD         2.6730   -0.1430    0.0420 ca        1 2LK     -0.029000
      9 CAC         2.1950   -0.6570   -1.1650 ca        1 2LK     -0.055000
     10 CAE         1.8940   -0.2210    1.2200 ca        1 2LK     -0.105000
     11 CAF         0.6340   -0.7970    1.2360 ca        1 2LK     -0.138000
     12 CAA         0.1390   -1.3110    0.0330 ca        1 2LK     -0.070200
     13 CAB         0.9260   -1.2420   -1.1880 ca        1 2LK      0.065400
     14 NAI         0.1970   -1.8340   -2.2460 nc        1 2LK     -0.561100
     15 CAH        -0.9580   -2.2330   -1.7010 cd        1 2LK      0.430700
     16 NAG        -1.0480   -1.9760   -0.3120 na        1 2LK     -0.174300
     17 CAX        -2.2050   -2.1520    0.5120 c3        1 2LK      0.095600
     18 CAQ        -3.2170   -1.0400    0.4600 ca        1 2LK     -0.125300
     19 CAP        -4.5540   -1.3330    0.1750 ca        1 2LK     -0.105500
     20 CAO        -5.5100   -0.3190    0.1680 ca        1 2LK     -0.123500
     21 CAT        -5.1230    0.9960    0.4410 ca        1 2LK      0.025400
     22 CL         -6.2850    2.2360    0.4300 cl        1 2LK     -0.086400
     23 CAS        -3.7870    1.2990    0.7220 ca        1 2LK     -0.123500
     24 CAR        -2.8390    0.2780    0.7320 ca        1 2LK     -0.105500
     25 H1          6.0640   -0.6000    2.6210 hc        1 2LK      0.066033
     26 H2          4.6870    0.4170    3.2280 hc        1 2LK      0.066033
     27 H3          4.3440   -1.1790    2.4230 hc        1 2LK      0.066033
     28 H4          4.2820    1.0220   -2.9850 hc        1 2LK      0.060700
     29 H5          2.8880    1.7690   -2.0860 hc        1 2LK      0.060700
     30 H6          4.3540    2.7680   -2.4940 hc        1 2LK      0.060700
     31 H7          2.8040   -0.6130   -2.0800 ha        1 2LK      0.155000
     32 H8          2.3080    0.1950    2.1530 ha        1 2LK      0.135000
     33 H9          0.0450   -0.8490    2.1620 ha        1 2LK      0.137000
     34 H10        -1.7710   -2.7360   -2.2400 h5        1 2LK      0.070800
     35 H11        -2.6980   -3.1210    0.2040 h1        1 2LK      0.069700
     36 H12        -1.8550   -2.2590    1.5810 h1        1 2LK      0.069700
     37 H13        -4.8610   -2.3670   -0.0430 ha        1 2LK      0.142500
     38 H14        -6.5620   -0.5550   -0.0540 ha        1 2LK      0.152000
     39 H15        -3.4830    2.3360    0.9330 ha        1 2LK      0.152000
     40 H16        -1.7840    0.5120    0.9520 ha        1 2LK      0.142500
@<TRIPOS>BOND
     1    1    2 1   
     2    1   25 1   
     3    1   26 1   
     4    1   27 1   
     5    2    3 1   
     6    2    7 2   
     7    3    4 1   
     8    4    5 2   
     9    5    6 1   
    10    5    7 1   
    11    6   28 1   
    12    6   29 1   
    13    6   30 1   
    14    7    8 1   
    15    8    9 ar  
    16    8   10 ar  
    17    9   13 ar  
    18    9   31 1   
    19   10   11 ar  
    20   10   32 1   
    21   11   12 ar  
    22   11   33 1   
    23   12   13 ar  
    24   12   16 1   
    25   13   14 1   
    26   14   15 2   
    27   15   16 1   
    28   15   34 1   
    29   16   17 1   
    30   17   18 1   
    31   17   35 1   
    32   17   36 1   
    33   18   19 ar  
    34   18   24 ar  
    35   19   20 ar  
    36   19   37 1   
    37   20   21 ar  
    38   20   38 1   
    39   21   22 1   
    40   21   23 ar  
    41   23   24 ar  
    42   23   39 1   
    43   24   40 1   
@<TRIPOS>SUBSTRUCTURE
     1 2LK         1 TEMP              0 ****  ****    0 ROOT
