@<TRIPOS>MOLECULE
2LK
   40    43     1     0     0
SMALL
bcc


@<TRIPOS>ATOM
      1 CAU        -0.1460    0.5120    0.0740 c3        1 2LK     -0.140400
      2 CAN         1.2900    0.2590   -0.0160 cc        1 2LK      0.273000
      3 OAM         2.0060    0.2350    1.2040 os        1 2LK     -0.119100
      4 NAL         3.2830   -0.0000    0.9780 nc        1 2LK     -0.365300
      5 CAK         3.4850   -0.1460   -0.3480 cd        1 2LK      0.336600
      6 CAV         4.7820   -0.4160   -0.9960 c3        1 2LK     -0.137400
      7 CAJ         2.1950    0.0170   -1.0400 cd        1 2LK     -0.267600
      8 CAD         1.9450   -0.0550   -2.4580 ca        1 2LK     -0.029000
      9 CAC         2.6080   -1.0020   -3.2430 ca        1 2LK     -0.055000
     10 CAE         1.0160    0.8410   -3.0380 ca        1 2LK     -0.105000
     11 CAF         0.7260    0.8300   -4.3930 ca        1 2LK     -0.138000
     12 CAA         1.3870   -0.1090   -5.1920 ca        1 2LK     -0.070200
     13 CAB         2.3430   -1.0390   -4.6150 ca        1 2LK      0.065400
     14 NAI         2.8560   -1.8730   -5.6350 nc        1 2LK     -0.561100
     15 CAH         2.2520   -1.4720   -6.7590 cd        1 2LK      0.430700
     16 NAG         1.3210   -0.4240   -6.5580 na        1 2LK     -0.174300
     17 CAX         0.6330    0.3090   -7.5770 c3        1 2LK      0.095600
     18 CAQ         1.4160    1.4190   -8.2230 ca        1 2LK     -0.125300
     19 CAP         1.5400    1.4610   -9.6150 ca        1 2LK     -0.105500
     20 CAO         2.2250    2.5080  -10.2290 ca        1 2LK     -0.123500
     21 CAT         2.7950    3.5140   -9.4430 ca        1 2LK      0.025400
     22 Cl          3.6330    4.7910  -10.1880 cl        1 2LK     -0.086400
     23 CAS         2.6810    3.4770   -8.0500 ca        1 2LK     -0.123500
     24 CAR         1.9900    2.4300   -7.4450 ca        1 2LK     -0.105500
     25 H1         -0.3390    1.6160    0.0930 hc        1 2LK      0.066033
     26 H2         -0.6650    0.0710   -0.8140 hc        1 2LK      0.066033
     27 H3         -0.5670    0.0650    1.0090 hc        1 2LK      0.066033
     28 H4          4.9480   -1.5220   -1.0630 hc        1 2LK      0.060700
     29 H5          4.7820    0.0100   -2.0300 hc        1 2LK      0.060700
     30 H6          5.6290    0.0330   -0.4200 hc        1 2LK      0.060700
     31 H7          3.3200   -1.7110   -2.7930 ha        1 2LK      0.155000
     32 H8          0.5130    1.5710   -2.3840 ha        1 2LK      0.135000
     33 H9          0.0000    1.5340   -4.8230 ha        1 2LK      0.137000
     34 H10         2.4160   -1.9040   -7.7540 h5        1 2LK      0.070800
     35 H11        -0.2950    0.7580   -7.1130 h1        1 2LK      0.069700
     36 H12         0.3090   -0.4300   -8.3680 h1        1 2LK      0.069700
     37 H13         1.0940    0.6690  -10.2350 ha        1 2LK      0.142500
     38 H14         2.3170    2.5380  -11.3250 ha        1 2LK      0.152000
     39 H15         3.1340    4.2690   -7.4320 ha        1 2LK      0.152000
     40 H16         1.8980    2.3950   -6.3470 ha        1 2LK      0.142500
@<TRIPOS>BOND
     1    1    2 1   
     2    1   25 1   
     3    1   26 1   
     4    1   27 1   
     5    2    3 1   
     6    2    7 2   
     7    3    4 1   
     8    4    5 2   
     9    5    6 1   
    10    5    7 1   
    11    6   28 1   
    12    6   29 1   
    13    6   30 1   
    14    7    8 1   
    15    8    9 ar  
    16    8   10 ar  
    17    9   13 ar  
    18    9   31 1   
    19   10   11 ar  
    20   10   32 1   
    21   11   12 ar  
    22   11   33 1   
    23   12   13 ar  
    24   12   16 1   
    25   13   14 1   
    26   14   15 2   
    27   15   16 1   
    28   15   34 1   
    29   16   17 1   
    30   17   18 1   
    31   17   35 1   
    32   17   36 1   
    33   18   19 ar  
    34   18   24 ar  
    35   19   20 ar  
    36   19   37 1   
    37   20   21 ar  
    38   20   38 1   
    39   21   22 1   
    40   21   23 ar  
    41   23   24 ar  
    42   23   39 1   
    43   24   40 1   
@<TRIPOS>SUBSTRUCTURE
     1 2LK         1 TEMP              0 ****  ****    0 ROOT
