@<TRIPOS>MOLECULE
2LL
   62    66     1     0     0
SMALL
bcc


@<TRIPOS>ATOM
      1 C25        -6.0570   -2.0460    1.6650 c3        1 2LL     -0.139400
      2 C24        -6.2390   -0.8010    0.9230 cc        1 2LL      0.271000
      3 O1         -7.5480   -0.2650    0.8980 os        1 2LL     -0.120100
      4 N3         -7.5700    0.8500    0.1960 nc        1 2LL     -0.366300
      5 C1         -6.3300    1.1150   -0.2640 cd        1 2LL      0.335600
      6 C          -5.9490    2.2730   -1.0950 c3        1 2LL     -0.137400
      7 C2         -5.4210    0.0510    0.1950 cd        1 2LL     -0.264600
      8 C3         -4.0080   -0.0700   -0.0680 ca        1 2LL     -0.030000
      9 C8         -3.1930    1.0630   -0.0670 ca        1 2LL     -0.058000
     10 C7         -1.8260    0.9060   -0.3250 ca        1 2LL      0.067400
     11 N          -0.7870    1.8550   -0.3910 nc        1 2LL     -0.566100
     12 C9          0.3320    1.1560   -0.6730 cd        1 2LL      0.422800
     13 C10         1.6910    1.7600   -0.8350 c3        1 2LL     -0.090700
     14 C11         2.2000    2.2930    0.4950 c3        1 2LL     -0.035100
     15 C12         3.6030    2.7770    0.3740 ca        1 2LL     -0.086300
     16 C17         4.6630    1.8630    0.3470 ca        1 2LL     -0.126500
     17 C16         5.9780    2.3120    0.2450 ca        1 2LL     -0.127000
     18 C15         6.2450    3.6790    0.1690 ca        1 2LL     -0.129000
     19 C14         5.1940    4.5950    0.1960 ca        1 2LL     -0.127000
     20 C13         3.8770    4.1470    0.2980 ca        1 2LL     -0.126500
     21 N1          0.0820   -0.2380   -0.8220 na        1 2LL     -0.168300
     22 C6         -1.2880   -0.4170   -0.5820 ca        1 2LL     -0.068200
     23 C5         -2.1170   -1.5460   -0.5770 ca        1 2LL     -0.132000
     24 C4         -3.4630   -1.3520   -0.3180 ca        1 2LL     -0.107000
     25 C18         1.0410   -1.2760   -1.0430 c3        1 2LL      0.044300
     26 C19         1.8810   -1.6210    0.2140 c3        1 2LL      0.144800
     27 N2          2.7840   -2.7330   -0.0370 n3        1 2LL     -0.729600
     28 C23         3.1350   -3.4410    1.1890 c3        1 2LL      0.132300
     29 C22         4.1440   -4.5690    0.9470 c3        1 2LL      0.125900
     30 O           5.2930   -4.1060    0.2480 os        1 2LL     -0.412600
     31 C21         4.9540   -3.4940   -0.9900 c3        1 2LL      0.125900
     32 C20         3.9640   -2.3400   -0.7980 c3        1 2LL      0.132300
     33 H1         -6.7360   -2.0780    2.5550 hc        1 2LL      0.065700
     34 H2         -6.2960   -2.9210    1.0080 hc        1 2LL      0.065700
     35 H3         -4.9950   -2.1320    2.0070 hc        1 2LL      0.065700
     36 H4         -5.6580    3.1310   -0.4370 hc        1 2LL      0.061033
     37 H5         -5.0760    2.0030   -1.7390 hc        1 2LL      0.061033
     38 H6         -6.7940    2.6020   -1.7490 hc        1 2LL      0.061033
     39 H7         -3.6090    2.0610    0.1360 ha        1 2LL      0.153000
     40 H8          2.4160    1.0050   -1.2400 hc        1 2LL      0.067700
     41 H9          1.6240    2.6000   -1.5790 hc        1 2LL      0.067700
     42 H10         1.5290    3.1230    0.8440 hc        1 2LL      0.062200
     43 H11         2.1530    1.4790    1.2680 hc        1 2LL      0.062200
     44 H12         4.4520    0.7840    0.4100 ha        1 2LL      0.130500
     45 H13         6.8050    1.5880    0.2270 ha        1 2LL      0.132500
     46 H14         7.2830    4.0330    0.0900 ha        1 2LL      0.133000
     47 H15         5.4020    5.6730    0.1380 ha        1 2LL      0.132500
     48 H16         3.0500    4.8730    0.3220 ha        1 2LL      0.130500
     49 H17        -1.7160   -2.5490   -0.7730 ha        1 2LL      0.138000
     50 H18        -4.1410   -2.2210   -0.3080 ha        1 2LL      0.135000
     51 H19         0.4880   -2.1990   -1.3830 h1        1 2LL      0.068700
     52 H20         1.7270   -0.9520   -1.8770 h1        1 2LL      0.068700
     53 H21         2.4350   -0.6930    0.5440 h1        1 2LL      0.046200
     54 H22         1.1770   -1.9110    1.0450 h1        1 2LL      0.046200
     55 H24         3.5630   -2.7400    1.9640 h1        1 2LL      0.041700
     56 H25         2.1930   -3.8900    1.6090 h1        1 2LL      0.041700
     57 H26         4.5430   -4.9450    1.9250 h1        1 2LL      0.056200
     58 H27         3.6690   -5.4100    0.3750 h1        1 2LL      0.056200
     59 H28         5.9280   -3.1040   -1.3860 h1        1 2LL      0.056200
     60 H29         4.5330   -4.2650   -1.6880 h1        1 2LL      0.056200
     61 H30         3.6220   -1.9930   -1.8120 h1        1 2LL      0.041700
     62 H31         4.5080   -1.4810   -0.3030 h1        1 2LL      0.041700
@<TRIPOS>BOND
     1    1    2 1   
     2    1   33 1   
     3    1   34 1   
     4    1   35 1   
     5    2    3 1   
     6    2    7 2   
     7    3    4 1   
     8    4    5 2   
     9    5    6 1   
    10    5    7 1   
    11    6   36 1   
    12    6   37 1   
    13    6   38 1   
    14    7    8 1   
    15    8    9 ar  
    16    8   24 ar  
    17    9   10 ar  
    18    9   39 1   
    19   10   11 1   
    20   10   22 ar  
    21   11   12 2   
    22   12   13 1   
    23   12   21 1   
    24   13   14 1   
    25   13   40 1   
    26   13   41 1   
    27   14   15 1   
    28   14   42 1   
    29   14   43 1   
    30   15   16 ar  
    31   15   20 ar  
    32   16   17 ar  
    33   16   44 1   
    34   17   18 ar  
    35   17   45 1   
    36   18   19 ar  
    37   18   46 1   
    38   19   20 ar  
    39   19   47 1   
    40   20   48 1   
    41   21   22 1   
    42   21   25 1   
    43   22   23 ar  
    44   23   24 ar  
    45   23   49 1   
    46   24   50 1   
    47   25   26 1   
    48   25   51 1   
    49   25   52 1   
    50   26   27 1   
    51   26   53 1   
    52   26   54 1   
    53   27   28 1   
    54   27   32 1   
    55   28   29 1   
    56   28   55 1   
    57   28   56 1   
    58   29   30 1   
    59   29   57 1   
    60   29   58 1   
    61   30   31 1   
    62   31   32 1   
    63   31   59 1   
    64   31   60 1   
    65   32   61 1   
    66   32   62 1   
@<TRIPOS>SUBSTRUCTURE
     1 2LL         1 TEMP              0 ****  ****    0 ROOT
