@<TRIPOS>MOLECULE
2LL
   62    66     1     0     0
SMALL
bcc


@<TRIPOS>ATOM
      1 C25         0.2100    1.0640    0.1770 c3        1 2LL     -0.139400
      2 C24         1.5230    0.4490   -0.0040 cc        1 2LL      0.271000
      3 O1          2.2900    0.2380    1.1650 os        1 2LL     -0.120100
      4 N3          3.4450   -0.3170    0.8570 nc        1 2LL     -0.366300
      5 C1          3.5120   -0.5050   -0.4770 cd        1 2LL      0.335600
      6 C           4.6490   -1.0960   -1.2070 c3        1 2LL     -0.137400
      7 C2          2.2620   -0.0140   -1.0830 cd        1 2LL     -0.264600
      8 C3          1.9060   -0.0150   -2.4810 ca        1 2LL     -0.030000
      9 C8          2.2480   -1.0970   -3.2940 ca        1 2LL     -0.058000
     10 C7          1.8840   -1.0620   -4.6450 ca        1 2LL      0.067400
     11 N           2.0980   -1.9930   -5.6800 nc        1 2LL     -0.566100
     12 C9          1.5400   -1.4520   -6.7820 cd        1 2LL      0.422800
     13 C10         1.5250   -2.1000   -8.1310 c3        1 2LL     -0.090700
     14 C11         0.6320   -3.3310   -8.1220 c3        1 2LL     -0.035100
     15 C12         0.5060   -3.9080   -9.4890 ca        1 2LL     -0.086300
     16 C17        -0.3440   -3.3120  -10.4280 ca        1 2LL     -0.126500
     17 C16        -0.4740   -3.8550  -11.7040 ca        1 2LL     -0.127000
     18 C15         0.2440   -4.9990  -12.0540 ca        1 2LL     -0.129000
     19 C14         1.0910   -5.5980  -11.1220 ca        1 2LL     -0.127000
     20 C13         1.2220   -5.0560   -9.8440 ca        1 2LL     -0.126500
     21 N1          0.9710   -0.1710   -6.5340 na        1 2LL     -0.168300
     22 C6          1.1640    0.0840   -5.1690 ca        1 2LL     -0.068200
     23 C5          0.8260    1.1620   -4.3410 ca        1 2LL     -0.132000
     24 C4          1.2010    1.0920   -3.0100 ca        1 2LL     -0.107000
     25 C18         0.2360    0.6480   -7.4470 c3        1 2LL      0.044300
     26 C19        -1.2000    0.1310   -7.7250 c3        1 2LL      0.144800
     27 N2         -1.9340    1.0370   -8.5950 n3        1 2LL     -0.729600
     28 C23        -3.3770    0.9210   -8.4120 c3        1 2LL      0.132300
     29 C22        -4.1640    1.8170   -9.3750 c3        1 2LL      0.125900
     30 O          -3.7760    1.6050  -10.7270 os        1 2LL     -0.412600
     31 C21        -2.3810    1.8050  -10.9190 c3        1 2LL      0.125900
     32 C20        -1.5480    0.9100   -9.9950 c3        1 2LL      0.132300
     33 H1         -0.4640    0.7760   -0.6680 hc        1 2LL      0.065700
     34 H2         -0.2480    0.7360    1.1440 hc        1 2LL      0.065700
     35 H3          0.3100    2.1800    0.1950 hc        1 2LL      0.065700
     36 H4          5.6200   -0.8820   -0.6950 hc        1 2LL      0.061033
     37 H5          4.5210   -2.2070   -1.2710 hc        1 2LL      0.061033
     38 H6          4.6870   -0.6790   -2.2450 hc        1 2LL      0.061033
     39 H7          2.7870   -1.9650   -2.8860 ha        1 2LL      0.153000
     40 H8          1.1670   -1.3810   -8.9140 hc        1 2LL      0.067700
     41 H9          2.5760   -2.3960   -8.3980 hc        1 2LL      0.067700
     42 H10        -0.3870   -3.0520   -7.7400 hc        1 2LL      0.062200
     43 H11         1.0560   -4.0930   -7.4140 hc        1 2LL      0.062200
     44 H12        -0.9130   -2.4100  -10.1520 ha        1 2LL      0.130500
     45 H13        -1.1460   -3.3820  -12.4360 ha        1 2LL      0.132500
     46 H14         0.1400   -5.4280  -13.0610 ha        1 2LL      0.133000
     47 H15         1.6570   -6.5010  -11.3940 ha        1 2LL      0.132500
     48 H16         1.8900   -5.5330   -9.1110 ha        1 2LL      0.130500
     49 H17         0.2830    2.0330   -4.7320 ha        1 2LL      0.138000
     50 H18         0.9500    1.9260   -2.3350 ha        1 2LL      0.135000
     51 H19         0.1770    1.6890   -7.0170 h1        1 2LL      0.068700
     52 H20         0.8100    0.7010   -8.4160 h1        1 2LL      0.068700
     53 H21        -1.1310   -0.9100   -8.1600 h1        1 2LL      0.046200
     54 H22        -1.7470    0.0530   -6.7430 h1        1 2LL      0.046200
     55 H24        -3.7270   -0.1440   -8.5500 h1        1 2LL      0.041700
     56 H25        -3.6180    1.2340   -7.3580 h1        1 2LL      0.041700
     57 H26        -4.0270    2.8990   -9.1100 h1        1 2LL      0.056200
     58 H27        -5.2520    1.5470   -9.3500 h1        1 2LL      0.056200
     59 H28        -2.2020    1.5240  -11.9910 h1        1 2LL      0.056200
     60 H29        -2.1290    2.8860  -10.7560 h1        1 2LL      0.056200
     61 H30        -1.6390   -0.1580  -10.3540 h1        1 2LL      0.041700
     62 H31        -0.4690    1.2140  -10.0840 h1        1 2LL      0.041700
@<TRIPOS>BOND
     1    1    2 1   
     2    1   33 1   
     3    1   34 1   
     4    1   35 1   
     5    2    3 1   
     6    2    7 2   
     7    3    4 1   
     8    4    5 2   
     9    5    6 1   
    10    5    7 1   
    11    6   36 1   
    12    6   37 1   
    13    6   38 1   
    14    7    8 1   
    15    8    9 ar  
    16    8   24 ar  
    17    9   10 ar  
    18    9   39 1   
    19   10   11 1   
    20   10   22 ar  
    21   11   12 2   
    22   12   13 1   
    23   12   21 1   
    24   13   14 1   
    25   13   40 1   
    26   13   41 1   
    27   14   15 1   
    28   14   42 1   
    29   14   43 1   
    30   15   16 ar  
    31   15   20 ar  
    32   16   17 ar  
    33   16   44 1   
    34   17   18 ar  
    35   17   45 1   
    36   18   19 ar  
    37   18   46 1   
    38   19   20 ar  
    39   19   47 1   
    40   20   48 1   
    41   21   22 1   
    42   21   25 1   
    43   22   23 ar  
    44   23   24 ar  
    45   23   49 1   
    46   24   50 1   
    47   25   26 1   
    48   25   51 1   
    49   25   52 1   
    50   26   27 1   
    51   26   53 1   
    52   26   54 1   
    53   27   28 1   
    54   27   32 1   
    55   28   29 1   
    56   28   55 1   
    57   28   56 1   
    58   29   30 1   
    59   29   57 1   
    60   29   58 1   
    61   30   31 1   
    62   31   32 1   
    63   31   59 1   
    64   31   60 1   
    65   32   61 1   
    66   32   62 1   
@<TRIPOS>SUBSTRUCTURE
     1 2LL         1 TEMP              0 ****  ****    0 ROOT
