@<TRIPOS>MOLECULE
2LL
   62    66     1     0     0
SMALL
bcc


@<TRIPOS>ATOM
      1 C25         0.2150    1.0460    0.1820 c3        1 2LL     -0.139400
      2 C24         1.5320    0.4410   -0.0050 cc        1 2LL      0.271000
      3 O1          2.3040    0.2320    1.1620 os        1 2LL     -0.120100
      4 N3          3.4610   -0.3140    0.8500 nc        1 2LL     -0.366300
      5 C1          3.5260   -0.4980   -0.4850 cd        1 2LL      0.335600
      6 C           4.6650   -1.0800   -1.2190 c3        1 2LL     -0.137400
      7 C2          2.2710   -0.0150   -1.0860 cd        1 2LL     -0.264600
      8 C3          1.9120   -0.0140   -2.4830 ca        1 2LL     -0.030000
      9 C8          2.2590   -1.0920   -3.3000 ca        1 2LL     -0.058000
     10 C7          1.8910   -1.0560   -4.6490 ca        1 2LL      0.067400
     11 N           2.1090   -1.9830   -5.6880 nc        1 2LL     -0.566100
     12 C9          1.5440   -1.4430   -6.7870 cd        1 2LL      0.422800
     13 C10         1.5300   -2.0870   -8.1370 c3        1 2LL     -0.090700
     14 C11         0.6460   -3.3240   -8.1300 c3        1 2LL     -0.035100
     15 C12         0.5200   -3.8990   -9.4980 ca        1 2LL     -0.086300
     16 C17        -0.3360   -3.3050  -10.4330 ca        1 2LL     -0.126500
     17 C16        -0.4660   -3.8460  -11.7110 ca        1 2LL     -0.127000
     18 C15         0.2590   -4.9850  -12.0650 ca        1 2LL     -0.129000
     19 C14         1.1130   -5.5800  -11.1370 ca        1 2LL     -0.127000
     20 C13         1.2440   -5.0410   -9.8580 ca        1 2LL     -0.126500
     21 N1          0.9670   -0.1660   -6.5340 na        1 2LL     -0.168300
     22 C6          1.1620    0.0870   -5.1690 ca        1 2LL     -0.068200
     23 C5          0.8180    1.1600   -4.3380 ca        1 2LL     -0.132000
     24 C4          1.1970    1.0890   -3.0080 ca        1 2LL     -0.107000
     25 C18         0.2240    0.6500   -7.4440 c3        1 2LL      0.044300
     26 C19        -1.2090    0.1240   -7.7190 c3        1 2LL      0.144800
     27 N2         -1.9520    1.0270   -8.5840 n3        1 2LL     -0.729600
     28 C23        -3.3930    0.8990   -8.3990 c3        1 2LL      0.132300
     29 C22        -4.1890    1.7930   -9.3570 c3        1 2LL      0.125900
     30 O          -3.8020    1.5870  -10.7110 os        1 2LL     -0.412600
     31 C21        -2.4090    1.7980  -10.9060 c3        1 2LL      0.125900
     32 C20        -1.5680    0.9060   -9.9860 c3        1 2LL      0.132300
     33 H1          0.3070    2.1630    0.2020 hc        1 2LL      0.065700
     34 H2         -0.4590    0.7550   -0.6620 hc        1 2LL      0.065700
     35 H3         -0.2380    0.7130    1.1500 hc        1 2LL      0.065700
     36 H4          4.5450   -2.1910   -1.2860 hc        1 2LL      0.061033
     37 H5          4.6970   -0.6600   -2.2560 hc        1 2LL      0.061033
     38 H6          5.6360   -0.8600   -0.7090 hc        1 2LL      0.061033
     39 H7          2.8050   -1.9570   -2.8950 ha        1 2LL      0.153000
     40 H8          1.1650   -1.3680   -8.9180 hc        1 2LL      0.067700
     41 H9          2.5830   -2.3760   -8.4080 hc        1 2LL      0.067700
     42 H10        -0.3740   -3.0540   -7.7440 hc        1 2LL      0.062200
     43 H11         1.0770   -4.0850   -7.4250 hc        1 2LL      0.062200
     44 H12        -0.9110   -2.4090  -10.1540 ha        1 2LL      0.130500
     45 H13        -1.1430   -3.3770  -12.4400 ha        1 2LL      0.132500
     46 H14         0.1560   -5.4120  -13.0730 ha        1 2LL      0.133000
     47 H15         1.6850   -6.4790  -11.4130 ha        1 2LL      0.132500
     48 H16         1.9170   -5.5150   -9.1280 ha        1 2LL      0.130500
     49 H17         0.2690    2.0280   -4.7250 ha        1 2LL      0.138000
     50 H18         0.9420    1.9190   -2.3290 ha        1 2LL      0.135000
     51 H19         0.7950    0.7100   -8.4140 h1        1 2LL      0.068700
     52 H20         0.1590    1.6900   -7.0100 h1        1 2LL      0.068700
     53 H21        -1.7530    0.0400   -6.7360 h1        1 2LL      0.046200
     54 H22        -1.1340   -0.9160   -8.1570 h1        1 2LL      0.046200
     55 H24        -3.6340    1.2070   -7.3440 h1        1 2LL      0.041700
     56 H25        -3.7360   -0.1670   -8.5390 h1        1 2LL      0.041700
     57 H26        -5.2750    1.5150   -9.3310 h1        1 2LL      0.056200
     58 H27        -4.0600    2.8750   -9.0900 h1        1 2LL      0.056200
     59 H28        -2.1650    2.8810  -10.7400 h1        1 2LL      0.056200
     60 H29        -2.2310    1.5220  -11.9780 h1        1 2LL      0.056200
     61 H30        -0.4910    1.2190  -10.0760 h1        1 2LL      0.041700
     62 H31        -1.6520   -0.1610  -10.3480 h1        1 2LL      0.041700
@<TRIPOS>BOND
     1    1    2 1   
     2    1   33 1   
     3    1   34 1   
     4    1   35 1   
     5    2    3 1   
     6    2    7 2   
     7    3    4 1   
     8    4    5 2   
     9    5    6 1   
    10    5    7 1   
    11    6   36 1   
    12    6   37 1   
    13    6   38 1   
    14    7    8 1   
    15    8    9 ar  
    16    8   24 ar  
    17    9   10 ar  
    18    9   39 1   
    19   10   11 1   
    20   10   22 ar  
    21   11   12 2   
    22   12   13 1   
    23   12   21 1   
    24   13   14 1   
    25   13   40 1   
    26   13   41 1   
    27   14   15 1   
    28   14   42 1   
    29   14   43 1   
    30   15   16 ar  
    31   15   20 ar  
    32   16   17 ar  
    33   16   44 1   
    34   17   18 ar  
    35   17   45 1   
    36   18   19 ar  
    37   18   46 1   
    38   19   20 ar  
    39   19   47 1   
    40   20   48 1   
    41   21   22 1   
    42   21   25 1   
    43   22   23 ar  
    44   23   24 ar  
    45   23   49 1   
    46   24   50 1   
    47   25   26 1   
    48   25   51 1   
    49   25   52 1   
    50   26   27 1   
    51   26   53 1   
    52   26   54 1   
    53   27   28 1   
    54   27   32 1   
    55   28   29 1   
    56   28   55 1   
    57   28   56 1   
    58   29   30 1   
    59   29   57 1   
    60   29   58 1   
    61   30   31 1   
    62   31   32 1   
    63   31   59 1   
    64   31   60 1   
    65   32   61 1   
    66   32   62 1   
@<TRIPOS>SUBSTRUCTURE
     1 2LL         1 TEMP              0 ****  ****    0 ROOT
