@<TRIPOS>MOLECULE
2LL
   62    56     1     0     0
SMALL
bcc


@<TRIPOS>ATOM
      1 C25         2.9580    1.0830    5.0740 c3        1 2LL     -0.166000
      2 C24         1.8340    0.5800    5.9370 c2        1 2LL     -0.014000
      3 O1          1.8960    0.3510    7.2720 os        1 2LL     -0.062000
      4 N3          0.6450   -0.0850    7.6920 n2        1 2LL     -0.031000
      5 C1         -0.1690   -0.1180    6.6150 c1        1 2LL     -0.089000
      6 C          -1.6070   -0.5950    6.6010 c2        1 2LL     -0.158000
      7 C2          0.5600    0.2940    5.5160 c1        1 2LL     -0.137000
      8 C3          0.0490    0.3670    4.0700 c1        1 2LL     -0.029000
      9 C8          0.2330   -0.6860    3.1810 c2        1 2LL     -0.063000
     10 C7         -0.1310   -0.5360    1.8210 c1        1 2LL     -0.072000
     11 N          -0.1240   -1.4110    0.7730 n1        1 2LL     -0.138000
     12 C9         -0.6500   -0.7760   -0.3100 c1        1 2LL      0.020000
     13 C10        -0.6390   -1.7500   -1.5030 c2        1 2LL     -0.096000
     14 C11        -0.2350   -3.1590   -1.0140 c3        1 2LL     -0.123000
     15 C12         0.4960   -3.8960   -2.1320 c1        1 2LL     -0.079000
     16 C17         1.8780   -3.8840   -2.1760 c1        1 2LL     -0.127000
     17 C16         2.5500   -4.6640   -3.1070 c1        1 2LL     -0.127000
     18 C15         1.8370   -5.4550   -3.9910 c1        1 2LL     -0.127000
     19 C14         0.4520   -5.4680   -3.9470 c1        1 2LL     -0.127000
     20 C13        -0.2190   -4.6890   -3.0180 c1        1 2LL     -0.128000
     21 N1         -0.9840    0.4960    0.0650 n2        1 2LL     -0.193000
     22 C6         -0.6640    0.6440    1.3820 c1        1 2LL     -0.024000
     23 C5         -0.8500    1.7140    2.2860 c1        1 2LL     -0.132000
     24 C4         -0.4910    1.5650    3.6260 c1        1 2LL     -0.104000
     25 C18        -1.5880    1.4360   -0.8590 c2        1 2LL     -0.017000
     26 C19        -0.5040    2.2960   -1.4890 c3        1 2LL     -0.092000
     27 N2         -0.9550    2.7720   -2.7940 n3        1 2LL     -0.255000
     28 C23        -0.1780    2.1650   -3.8120 c3        1 2LL     -0.104500
     29 C22        -0.4880    2.7290   -5.1890 c3        1 2LL     -0.024500
     30 O          -0.4210    4.1450   -5.2210 os        1 2LL     -0.269000
     31 C21        -1.1960    4.7520   -4.2050 c3        1 2LL     -0.024500
     32 C20        -0.8870    4.1890   -2.8270 c3        1 2LL     -0.104500
     33 H1          2.6570    1.8620    4.5690 hc        1 2LL      0.107000
     34 H2          3.2320    0.3790    4.4540 hc        1 2LL      0.107000
     35 H3          3.7160    1.3330    5.6400 hc        1 2LL      0.107000
     36 H4         -2.1470    0.0110    6.0560 ha        1 2LL      0.098333
     37 H5         -1.9570   -0.6090    7.5180 ha        1 2LL      0.098333
     38 H6         -1.6480   -1.5020    6.2220 ha        1 2LL      0.098333
     39 H7          0.6270   -1.5250    3.4910 ha        1 2LL      0.150000
     40 H8         -1.5330   -1.7870   -1.9020 ha        1 2LL      0.109500
     41 H9          0.0060   -1.4390   -2.1730 ha        1 2LL      0.109500
     42 H10         0.3530   -3.0780   -0.2390 hc        1 2LL      0.099500
     43 H11        -1.0410   -3.6620   -0.7630 hc        1 2LL      0.099500
     44 H12         2.3790   -3.3300   -1.5570 ha        1 2LL      0.133750
     45 H13         3.5220   -4.6550   -3.1380 ha        1 2LL      0.133750
     46 H14         2.3100   -6.0030   -4.6450 ha        1 2LL      0.133750
     47 H15        -0.0490   -6.0240   -4.5700 ha        1 2LL      0.133750
     48 H16        -1.1930   -4.6980   -2.9880 ha        1 2LL      0.128000
     49 H17        -1.2300    2.5570    1.9740 ha        1 2LL      0.140000
     50 H18        -0.6170    2.3090    4.2530 ha        1 2LL      0.138000
     51 H19        -2.0630    0.9450   -1.5600 ha        1 2LL      0.108500
     52 H20        -2.2180    2.0060   -0.3780 ha        1 2LL      0.108500
     53 H21         0.3060    1.7670   -1.5990 h1        1 2LL      0.085500
     54 H22        -0.3180    3.0610   -0.9100 h1        1 2LL      0.085500
     55 H24         0.7690    2.3100   -3.6170 h1        1 2LL      0.081500
     56 H25        -0.3570    1.2020   -3.8170 h1        1 2LL      0.081500
     57 H26         0.1560    2.3660   -5.8340 h1        1 2LL      0.095000
     58 H27        -1.3870    2.4500   -5.4500 h1        1 2LL      0.095000
     59 H28        -2.1460    4.6060   -4.4010 h1        1 2LL      0.095000
     60 H29        -1.0160    5.7200   -4.2010 h1        1 2LL      0.095000
     61 H30         0.0120    4.4690   -2.5660 h1        1 2LL      0.081500
     62 H31        -1.5320    4.5530   -2.1850 h1        1 2LL      0.081500
@<TRIPOS>BOND
     1    1    2 1   
     2    1   33 1   
     3    1   34 1   
     4    1   35 1   
     5    2    3 1   
     6    2    7 1   
     7    3    4 1   
     8    4    5 1   
     9    5    7 1   
    10    6   36 1   
    11    6   37 1   
    12    6   38 1   
    13    8    9 1   
    14    8   24 1   
    15    9   10 1   
    16    9   39 1   
    17   11   12 1   
    18   12   21 1   
    19   13   14 1   
    20   13   40 1   
    21   13   41 1   
    22   14   15 1   
    23   14   42 1   
    24   14   43 1   
    25   15   20 1   
    26   16   17 1   
    27   16   44 1   
    28   17   45 1   
    29   18   19 1   
    30   18   46 1   
    31   19   47 1   
    32   20   48 1   
    33   21   22 1   
    34   22   23 1   
    35   23   49 1   
    36   24   50 1   
    37   25   26 1   
    38   25   51 1   
    39   25   52 1   
    40   26   27 1   
    41   26   53 1   
    42   26   54 1   
    43   27   28 1   
    44   27   32 1   
    45   28   29 1   
    46   28   55 1   
    47   28   56 1   
    48   29   30 1   
    49   29   57 1   
    50   29   58 1   
    51   30   31 1   
    52   31   32 1   
    53   31   59 1   
    54   31   60 1   
    55   32   61 1   
    56   32   62 1   
@<TRIPOS>SUBSTRUCTURE
     1 2LL         1 TEMP              0 ****  ****    0 ROOT
