@<TRIPOS>MOLECULE
2LM
   40    34     1     0     0
SMALL
bcc


@<TRIPOS>ATOM
      1 C           0.2630   -1.1120   -2.4500 c1        1 2LM      0.333000
      2 N           0.3300   -0.7320   -0.0200 n1        1 2LM     -0.182000
      3 O1          0.4660   -0.1140   -3.1870 o         1 2LM     -0.579500
      4 P          -4.7460   -1.0130    3.2860 p3        1 2LM      2.507000
      5 N1         -1.0840    3.1610    2.6650 n1        1 2LM     -0.161000
      6 C2         -0.4420    3.3050    1.4650 c1        1 2LM     -0.134000
      7 C3         -0.4390    2.2550    0.5450 c1        1 2LM      0.045000
      8 O3          0.1300    2.4420   -0.7390 oh        1 2LM     -0.301000
      9 C4         -1.0800    1.0790    0.8440 c1        1 2LM     -0.135000
     10 C5         -1.7230    0.9370    2.0470 c1        1 2LM     -0.043000
     11 C6         -1.7250    1.9860    2.9640 c1        1 2LM     -0.091000
     12 CA          0.9390   -1.2060   -1.1080 c1        1 2LM     -0.094000
     13 CB          2.3240   -1.8460   -0.9920 c3        1 2LM     -0.109000
     14 SD          4.5040   -2.7580   -2.3080 ss        1 2LM     -0.068000
     15 CE          5.1620   -2.7910   -3.9510 c3        1 2LM     -0.334000
     16 CG          2.7780   -2.3340   -2.3690 c3        1 2LM     -0.224000
     17 C2A         0.1540    4.6620    1.0760 c3        1 2LM     -0.127000
     18 C4A        -0.9820   -0.1270   -0.1300 c2        1 2LM     -0.067000
     19 C5A        -2.4190   -0.3810    2.3900 c3        1 2LM      0.083000
     20 OP1        -4.4380   -2.4330    3.7030 o         1 2LM     -1.248500
     21 OP2        -5.2830   -1.0080    1.8800 os        1 2LM     -1.256000
     22 OP3        -5.7740   -0.4290    4.2160 o         1 2LM     -1.248500
     23 OP4        -3.4240   -0.1450    3.3490 os        1 2LM     -0.729000
     24 O2         -0.5410   -2.0040   -2.8100 o         1 2LM     -0.579500
     25 HO3        -0.2240    3.1690   -1.1190 ho        1 2LM      0.263000
     26 H6         -2.1870    1.8830    3.8280 ha        1 2LM      0.219000
     27 HB          2.2820   -2.6050   -0.3740 hc        1 2LM      0.083000
     28 HBA         2.9610   -1.1840   -0.6540 hc        1 2LM      0.083000
     29 HE          4.9460   -1.9500   -4.4050 h1        1 2LM      0.106667
     30 HEA         6.1340   -2.9010   -3.9110 h1        1 2LM      0.106667
     31 HEB         4.7670   -3.5410   -4.4460 h1        1 2LM      0.106667
     32 HG          2.2550   -3.1260   -2.6250 h1        1 2LM      0.126500
     33 HGA         2.6400   -1.6230   -3.0300 h1        1 2LM      0.126500
     34 H2A         0.0830    5.2820    1.8390 hc        1 2LM      0.057333
     35 H2A1       -0.3360    5.0270    0.3140 hc        1 2LM      0.057333
     36 H2A2        1.0990    4.5490    0.8340 hc        1 2LM      0.057333
     37 H4A        -1.1220    0.1850   -1.0520 ha        1 2LM      0.107000
     38 H5A        -2.8220   -0.7580    1.5830 h1        1 2LM      0.066500
     39 H5A1       -1.7640   -1.0120    2.7530 h1        1 2LM      0.066500
     40 H4A1       -1.6660   -0.7870    0.0990 ha        1 2LM      0.107000
@<TRIPOS>BOND
     1    1    3 1   
     2    1   24 1   
     3    2   12 1   
     4    4   20 1   
     5    4   22 1   
     6    4   23 1   
     7    5    6 1   
     8    6   17 1   
     9    7    8 1   
    10    7    9 1   
    11    8   25 1   
    12    9   18 1   
    13   10   11 1   
    14   10   19 1   
    15   11   26 1   
    16   12   13 1   
    17   13   16 1   
    18   13   27 1   
    19   13   28 1   
    20   14   15 1   
    21   14   16 1   
    22   15   29 1   
    23   15   30 1   
    24   15   31 1   
    25   16   32 1   
    26   16   33 1   
    27   17   34 1   
    28   17   35 1   
    29   17   36 1   
    30   18   37 1   
    31   18   40 1   
    32   19   23 1   
    33   19   38 1   
    34   19   39 1   
@<TRIPOS>SUBSTRUCTURE
     1 2LM         1 TEMP              0 ****  ****    0 ROOT
