@<TRIPOS>MOLECULE
2LM
   40    38     1     0     0
SMALL
bcc


@<TRIPOS>ATOM
      1 C         -28.0160  -54.6490  -95.8170 c2        1 2LM      0.369000
      2 N         -28.0650  -53.2610  -93.8040 n2        1 2LM     -0.291000
      3 O1        -29.0550  -55.3570  -95.9100 o         1 2LM     -0.570500
      4 N1        -27.7570  -48.5750  -91.6730 n2        1 2LM     -0.157000
      5 C2        -28.5930  -49.0880  -92.6040 c2        1 2LM     -0.092000
      6 C3        -28.6020  -50.4770  -92.9360 c2        1 2LM      0.076000
      7 O3        -29.5150  -50.8500  -93.8800 oh        1 2LM     -0.288000
      8 C4        -27.7170  -51.3560  -92.2760 c2        1 2LM     -0.072000
      9 C5        -26.8530  -50.8010  -91.3250 c2        1 2LM     -0.149000
     10 C6        -26.9120  -49.4230  -91.0610 c2        1 2LM     -0.142000
     11 CA        -27.5190  -54.2630  -94.4010 c2        1 2LM      0.001000
     12 CB        -26.3740  -55.1240  -93.9320 c3        1 2LM     -0.129000
     13 SD        -25.1860  -55.0290  -91.5100 ss        1 2LM      0.157000
     14 CE        -25.3340  -55.5010  -90.0100 c2        1 2LM     -0.893000
     15 CG        -26.5060  -55.7040  -92.5490 c3        1 2LM     -0.398000
     16 C4A       -27.6760  -52.8430  -92.4830 c3        1 2LM     -0.098000
     17 C5A        99.5310  214.1380  384.5050 c2        1 2LM      0.164000
     18 OP1       101.0040  217.4870  386.3470 o         1 2LM     -1.140000
     19 OP2       100.0030  215.9620  388.1420 o         1 2LM     -1.140000
     20 OP3        98.7270  216.3920  385.9730 o         1 2LM     -1.140000
     21 OP4       100.3470  214.5640  385.3230 o         1 2LM     -0.306000
     22 O2        -27.3260  -54.2520  -96.7960 o         1 2LM     -0.570500
     23 HO3       -29.3220  -51.7750  -94.1580 ho        1 2LM      0.293000
     24 H6        -26.2410  -48.9680  -90.3140 h4        1 2LM      0.130000
     25 HB        -25.4410  -54.4930  -93.9910 hc        1 2LM      0.078500
     26 HBA       -26.2440  -55.9540  -94.6790 hc        1 2LM      0.078500
     27 HE         98.5400  214.6140  384.3560 h4        1 2LM      0.074000
     28 HEA       -24.9010  -56.4250  -89.6280 h4        1 2LM      0.039000
     29 HEB       -25.9300  -54.9700  -89.2690 h4        1 2LM      0.039000
     30 HG        -27.4980  -55.4800  -92.0960 h1        1 2LM      0.054000
     31 HGA       -26.4110  -56.8130  -92.5860 h1        1 2LM      0.054000
     32 H2A       -29.4530  -48.3660  -94.4220 hc        1 2LM      0.075000
     33 H2A1      -30.5960  -48.4700  -93.0230 hc        1 2LM      0.075000
     34 H2A2      -29.3830  -47.1170  -93.0980 hc        1 2LM      0.075000
     35 H4A       -28.4150  -53.2910  -91.7500 h1        1 2LM      0.119000
     36 H5A       -26.1370  -51.4450  -90.7920 ha        1 2LM      0.161000
     37 H5A1       99.7640  213.2470  383.8790 h4        1 2LM      0.074000
     38 H4A1      -26.6480  -53.2300  -92.1650 h1        1 2LM      0.119000
     39 C2A       -29.5530  -48.1970  -93.3200 c3        1 2LM     -0.144000
     40 P          99.9380  216.5770  386.8050 p3        1 2LM      2.415000
@<TRIPOS>BOND
     1    1    3 1   
     2    1   11 1   
     3    1   22 1   
     4    2   11 1   
     5    2   16 1   
     6    4    5 1   
     7    4   10 1   
     8    5    6 1   
     9    5   39 1   
    10    6    7 1   
    11    6    8 1   
    12    7   23 1   
    13    8    9 1   
    14    8   16 1   
    15    9   10 1   
    16    9   36 1   
    17   10   24 1   
    18   11   12 1   
    19   12   15 1   
    20   12   25 1   
    21   12   26 1   
    22   13   14 1   
    23   13   15 1   
    24   14   28 1   
    25   14   29 1   
    26   15   30 1   
    27   15   31 1   
    28   16   35 1   
    29   16   38 1   
    30   17   21 1   
    31   17   27 1   
    32   17   37 1   
    33   18   40 1   
    34   19   40 1   
    35   20   40 1   
    36   32   39 1   
    37   33   39 1   
    38   34   39 1   
@<TRIPOS>SUBSTRUCTURE
     1 2LM         1 TEMP              0 ****  ****    0 ROOT
