@<TRIPOS>MOLECULE
2LM
   40    39     1     0     0
SMALL
bcc


@<TRIPOS>ATOM
      1 C          -1.3400   -1.4010   -0.0570 c         1 2LM      0.833300
      2 N          -2.7710    0.0720    1.2450 n2        1 2LM     -0.724900
      3 O1         -1.7780   -2.5820   -0.0080 o         1 2LM     -0.835800
      4 N1         -6.3580    3.7660    1.4870 nb        1 2LM     -0.682000
      5 C2         -6.2730    2.6240    0.7700 ca        1 2LM      0.326600
      6 C3         -5.2240    1.6720    0.9690 ca        1 2LM      0.067800
      7 O3         -5.2850    0.5640    0.1780 oh        1 2LM     -0.535100
      8 C4         -4.2400    1.9210    1.9500 ca        1 2LM     -0.090300
      9 C5         -4.3450    3.1130    2.6740 ca        1 2LM     -0.215300
     10 C6         -5.4080    3.9920    2.4120 ca        1 2LM      0.326200
     11 CA         -1.6010   -0.4650    1.1500 ce        1 2LM      0.442300
     12 CB         -0.4090   -0.2470    2.0500 c3        1 2LM     -0.105700
     13 SD          0.7220   -0.1800    4.6290 s6        1 2LM      0.052700
     14 CE          2.0030   -0.8780    4.1000 c2        1 2LM     -1.203000
     15 CG         -0.5990   -0.7250    3.4580 c3        1 2LM     -0.098600
     16 C4A        -3.1220    0.9770    2.3050 c3        1 2LM      0.155100
     17 C5A         1.5070    1.1000    5.7900 c2        1 2LM      0.716800
     18 OP1         2.9320    2.5020    9.0460 o         1 2LM     -0.927933
     19 OP2         0.4800    2.3790    9.7040 o         1 2LM     -0.927933
     20 OP3         1.2650    4.1600    8.0640 o         1 2LM     -0.927933
     21 OP4         1.1530    1.4600    6.9290 o         1 2LM     -0.693300
     22 O2         -0.6980   -0.9120   -1.0280 o         1 2LM     -0.835800
     23 HO3        -4.4500    0.0460    0.2890 ho        1 2LM      0.502000
     24 H6         -5.5050    4.9350    2.9740 h4        1 2LM     -0.002900
     25 HB         -0.1720    0.8540    2.0500 hc        1 2LM      0.043200
     26 HBA         0.4740   -0.7730    1.5970 hc        1 2LM      0.043200
     27 HE          2.0090   -1.5610    3.2550 h4        1 2LM      0.109000
     28 HEA         0.2860   -0.9490    5.6130 hs        1 2LM      0.125800
     29 HEB         2.9910   -0.7310    4.5280 h4        1 2LM      0.109000
     30 HG         -1.5420   -0.3220    3.8950 h1        1 2LM      0.024200
     31 HGA        -0.6610   -1.8350    3.4740 h1        1 2LM      0.024200
     32 H2A        -7.8690    1.4060    0.0370 hc        1 2LM      0.034700
     33 H2A1       -6.7760    2.0840   -1.2350 hc        1 2LM      0.034700
     34 H2A2       -8.0100    3.1570   -0.4340 hc        1 2LM      0.034700
     35 H4A        -3.4800    0.3780    3.1980 h1        1 2LM      0.053200
     36 H5A        -3.6000    3.3580    3.4460 ha        1 2LM      0.152000
     37 H5A1        2.3690    1.6590    5.3350 h5        1 2LM     -0.100800
     38 H4A1       -2.2440    1.5950    2.6620 h1        1 2LM      0.053200
     39 C2A        -7.2960    2.3150   -0.2720 c3        1 2LM     -0.120400
     40 P           1.5290    2.9060    8.8050 p3        1 2LM      1.763800
@<TRIPOS>BOND
     1    1    3 1   
     2    1   11 1   
     3    1   22 1   
     4    2   11 2   
     5    2   16 1   
     6    4    5 ar  
     7    4   10 ar  
     8    5    6 ar  
     9    5   39 1   
    10    6    7 1   
    11    6    8 ar  
    12    7   23 1   
    13    8    9 ar  
    14    8   16 1   
    15    9   10 ar  
    16    9   36 1   
    17   10   24 1   
    18   11   12 1   
    19   12   15 1   
    20   12   25 1   
    21   12   26 1   
    22   13   14 2   
    23   13   15 1   
    24   13   17 2   
    25   13   28 1   
    26   14   27 1   
    27   14   29 1   
    28   15   30 1   
    29   15   31 1   
    30   16   35 1   
    31   16   38 1   
    32   17   21 1   
    33   17   37 1   
    34   18   40 1   
    35   19   40 1   
    36   20   40 1   
    37   32   39 1   
    38   33   39 1   
    39   34   39 1   
@<TRIPOS>SUBSTRUCTURE
     1 2LM         1 TEMP              0 ****  ****    0 ROOT
