@<TRIPOS>MOLECULE
2LM
   40    40     1     0     0
SMALL
bcc


@<TRIPOS>ATOM
      1 C          -0.9780    4.6520   -0.9070 c         1 2LM      0.834300
      2 N           0.2340    2.5150   -0.9860 n2        1 2LM     -0.668900
      3 O1         -0.6230    5.3970    0.0440 o         1 2LM     -0.836800
      4 N1          3.7930   -0.5910    1.1500 nb        1 2LM     -0.687000
      5 C2          3.8730    0.6570    0.6240 ca        1 2LM      0.293600
      6 C3          2.7820    1.2530   -0.0660 ca        1 2LM      0.037800
      7 O3          3.0390    2.5010   -0.5820 oh        1 2LM     -0.549100
      8 C4          1.5690    0.5470   -0.2130 ca        1 2LM     -0.141300
      9 C5          1.5060   -0.7550    0.3140 ca        1 2LM     -0.129600
     10 C6          2.6450   -1.2590    0.9920 ca        1 2LM      0.367200
     11 CA         -0.8710    3.1190   -0.7250 ce        1 2LM      0.406300
     12 CB         -2.1830    2.5040   -0.2930 c3        1 2LM     -0.159700
     13 SD         -3.7310    1.4860    1.7160 ss        1 2LM     -0.452200
     14 CE         -3.6730   -0.2700    1.5100 c3        1 2LM     -0.028000
     15 CG         -2.1430    2.0540    1.1460 c3        1 2LM      0.024700
     16 C4A         0.3740    1.0800   -0.9530 c3        1 2LM      0.148100
     17 C5A         0.2980   -1.6450    0.1550 c3        1 2LM      0.240700
     18 OP1        -1.4890   -4.4380    0.3640 o         1 2LM     -0.930500
     19 OP2        -1.5630   -2.4830    1.9830 o         1 2LM     -0.930500
     20 OP3        -0.0610   -4.4940    2.4850 o         1 2LM     -0.930500
     21 OP4         0.5220   -2.9170    0.6070 os        1 2LM     -0.566200
     22 O2         -1.4650    5.0630   -1.9980 o         1 2LM     -0.836800
     23 HO3         2.1940    2.9100   -0.8450 ho        1 2LM      0.467000
     24 H6          2.5800   -2.2810    1.4230 h4        1 2LM      0.068100
     25 HB         -2.9920    3.2710   -0.4280 hc        1 2LM      0.051200
     26 HBA        -2.4390    1.6350   -0.9570 hc        1 2LM      0.051200
     27 HE         -4.4520   -0.6800    2.1890 h1        1 2LM      0.090033
     28 HEA        -3.9080   -0.5450    0.4610 h1        1 2LM      0.090033
     29 HEB        -2.6850   -0.7440    1.7820 h1        1 2LM      0.090033
     30 HG         -1.3870    1.2440    1.2940 h1        1 2LM      0.083700
     31 HGA        -1.8740    2.9160    1.8050 h1        1 2LM      0.083700
     32 H2A         5.6300    1.5180   -0.2480 hc        1 2LM      0.020700
     33 H2A1        4.8930    2.4770    1.0980 hc        1 2LM      0.020700
     34 H2A2        5.8540    0.9770    1.4710 hc        1 2LM      0.020700
     35 H4A        -0.5450    0.5580   -0.5490 h1        1 2LM      0.048700
     36 H5A        -0.5770   -1.1740    0.7030 h1        1 2LM      0.021700
     37 H5A1        0.0730   -1.6490   -0.9600 h1        1 2LM      0.021700
     38 H4A1        0.4840    0.7490   -2.0310 h1        1 2LM      0.048700
     39 C2A         5.1360    1.4410    0.7520 c3        1 2LM     -0.105400
     40 P          -0.7980   -3.6780    1.4620 p5        1 2LM      1.325900
@<TRIPOS>BOND
     1    1    3 1   
     2    1   11 1   
     3    1   22 1   
     4    2   11 2   
     5    2   16 1   
     6    4    5 ar  
     7    4   10 ar  
     8    5    6 ar  
     9    5   39 1   
    10    6    7 1   
    11    6    8 ar  
    12    7   23 1   
    13    8    9 ar  
    14    8   16 1   
    15    9   10 ar  
    16    9   17 1   
    17   10   24 1   
    18   11   12 1   
    19   12   15 1   
    20   12   25 1   
    21   12   26 1   
    22   13   14 1   
    23   13   15 1   
    24   14   27 1   
    25   14   28 1   
    26   14   29 1   
    27   15   30 1   
    28   15   31 1   
    29   16   35 1   
    30   16   38 1   
    31   17   21 1   
    32   17   36 1   
    33   17   37 1   
    34   18   40 1   
    35   19   40 1   
    36   20   40 1   
    37   21   40 1   
    38   32   39 1   
    39   33   39 1   
    40   34   39 1   
@<TRIPOS>SUBSTRUCTURE
     1 2LM         1 TEMP              0 ****  ****    0 ROOT
