@<TRIPOS>MOLECULE
2LN
   70    73     1     0     0
SMALL
bcc


@<TRIPOS>ATOM
      1 O4          0.1160    0.0210   -0.0400 o         1 2LN     -0.599100
      2 C2          1.3410   -0.1350   -0.2060 c         1 2LN      0.655100
      3 C1          2.2820   -0.2790    0.9760 c3        1 2LN     -0.146400
      4 C           1.5500   -0.0870    2.2800 c3        1 2LN     -0.087100
      5 N           1.8560   -0.2430   -1.5010 n         1 2LN     -0.465800
      6 C7          1.0080    0.0880   -2.6260 c3        1 2LN      0.133300
      7 C6          1.0270    1.5340   -3.0430 ca        1 2LN     -0.103300
      8 C8         -0.1820    2.2280   -3.1450 ca        1 2LN     -0.123000
      9 C9         -0.2110    3.5600   -3.5730 cp        1 2LN     -0.006000
     10 C19        -1.4860    4.2690   -3.6780 cp        1 2LN     -0.043000
     11 C24        -1.7370    5.1010   -4.7820 ca        1 2LN     -0.168000
     12 C23        -2.9510    5.7770   -4.8870 ca        1 2LN      0.099100
     13 O2         -3.2980    6.6200   -5.9250 os        1 2LN     -0.304900
     14 C25        -2.3710    6.6930   -7.0020 c3        1 2LN      0.110700
     15 C22        -3.9350    5.6280   -3.8720 ca        1 2LN      0.108100
     16 O3         -5.0990    6.3420   -4.0670 os        1 2LN     -0.303900
     17 C26        -6.0910    6.2020   -3.0570 c3        1 2LN      0.109700
     18 C21        -3.6760    4.8020   -2.7780 ca        1 2LN     -0.181000
     19 C20        -2.4580    4.1260   -2.6860 ca        1 2LN     -0.111000
     20 C10         0.9860    4.2180   -3.8900 ca        1 2LN     -0.186000
     21 C11         2.2020    3.5420   -3.7720 ca        1 2LN      0.119100
     22 C5          2.2240    2.1860   -3.3620 ca        1 2LN      0.073100
     23 O           3.4460    1.5320   -3.3930 os        1 2LN     -0.317900
     24 C4          3.9060    1.0710   -2.1210 c3        1 2LN      0.101400
     25 C3          3.2710   -0.2810   -1.7680 c3        1 2LN      0.054000
     26 O1          3.4380    4.1060   -4.0100 os        1 2LN     -0.312900
     27 C12         3.4220    5.3920   -4.6450 c3        1 2LN      0.127400
     28 C13         4.8780    5.7380   -4.9380 c3        1 2LN     -0.068700
     29 C18         5.4170    4.8360   -6.0550 c3        1 2LN      0.171800
     30 N1          6.7740    5.1790   -6.4550 n3        1 2LN     -0.731600
     31 C17         7.2800    4.2990   -7.4830 c3        1 2LN      0.159100
     32 C16         6.9230    6.5850   -6.8070 c3        1 2LN      0.168800
     33 C15         6.4110    7.5320   -5.7230 c3        1 2LN     -0.076400
     34 C14         4.9870    7.2020   -5.3330 c3        1 2LN     -0.075400
     35 H1          2.7460   -1.3010    0.9490 hc        1 2LN      0.061700
     36 H2          3.1040    0.4810    0.8870 hc        1 2LN      0.061700
     37 H3          0.7260   -0.8350    2.3780 hc        1 2LN      0.046700
     38 H4          2.2580   -0.2100    3.1340 hc        1 2LN      0.046700
     39 H5          1.0960    0.9320    2.3280 hc        1 2LN      0.046700
     40 H6         -0.0490   -0.2120   -2.3650 h1        1 2LN      0.076700
     41 H7          1.3480   -0.5300   -3.5080 h1        1 2LN      0.076700
     42 H8         -1.1240    1.7190   -2.8860 ha        1 2LN      0.148000
     43 H9         -0.9710    5.2030   -5.5640 ha        1 2LN      0.142000
     44 H10        -2.2020    5.6860   -7.4530 h1        1 2LN      0.043367
     45 H11        -2.8780    7.3740   -7.7320 h1        1 2LN      0.043367
     46 H12        -1.4040    7.1360   -6.6600 h1        1 2LN      0.043367
     47 H13        -6.4290    5.1400   -2.9780 h1        1 2LN      0.044700
     48 H14        -6.9240    6.8550   -3.4220 h1        1 2LN      0.044700
     49 H15        -5.7080    6.5650   -2.0720 h1        1 2LN      0.044700
     50 H16        -4.4240    4.6760   -1.9820 ha        1 2LN      0.142000
     51 H17        -2.2640    3.4780   -1.8170 ha        1 2LN      0.145000
     52 H18         0.9540    5.2690   -4.2090 ha        1 2LN      0.143000
     53 H19         3.7240    1.8380   -1.3270 h1        1 2LN      0.063200
     54 H20         5.0100    0.9330   -2.2790 h1        1 2LN      0.063200
     55 H21         3.4320   -0.9760   -2.6440 h1        1 2LN      0.061700
     56 H22         3.8220   -0.7100   -0.8860 h1        1 2LN      0.061700
     57 H23         2.8150    5.3460   -5.5860 h1        1 2LN      0.040200
     58 H24         2.9760    6.1440   -3.9410 h1        1 2LN      0.040200
     59 H25         5.4830    5.5590   -4.0060 hc        1 2LN      0.080700
     60 H26         5.4240    3.7750   -5.6770 h1        1 2LN      0.039700
     61 H27         4.7030    4.8850   -6.9310 h1        1 2LN      0.039700
     62 H29         8.3560    4.5500   -7.6760 h1        1 2LN      0.031367
     63 H30         7.2150    3.2410   -7.1170 h1        1 2LN      0.031367
     64 H31         6.7170    4.3760   -8.4540 h1        1 2LN      0.031367
     65 H32         6.3900    6.8280   -7.7740 h1        1 2LN      0.029200
     66 H33         8.0210    6.7780   -6.9680 h1        1 2LN      0.029200
     67 H34         7.0730    7.4650   -4.8210 hc        1 2LN      0.048200
     68 H35         6.4680    8.5810   -6.1120 hc        1 2LN      0.048200
     69 H36         4.3000    7.4110   -6.1940 hc        1 2LN      0.040200
     70 H37         4.6670    7.8520   -4.4780 hc        1 2LN      0.040200
@<TRIPOS>BOND
     1    1    2 2   
     2    2    3 1   
     3    2    5 1   
     4    3    4 1   
     5    3   35 1   
     6    3   36 1   
     7    4   37 1   
     8    4   38 1   
     9    4   39 1   
    10    5    6 1   
    11    5   25 1   
    12    6    7 1   
    13    6   40 1   
    14    6   41 1   
    15    7    8 ar  
    16    7   22 ar  
    17    8    9 ar  
    18    8   42 1   
    19    9   10 1   
    20    9   20 ar  
    21   10   11 ar  
    22   10   19 ar  
    23   11   12 ar  
    24   11   43 1   
    25   12   13 1   
    26   12   15 ar  
    27   13   14 1   
    28   14   44 1   
    29   14   45 1   
    30   14   46 1   
    31   15   16 1   
    32   15   18 ar  
    33   16   17 1   
    34   17   47 1   
    35   17   48 1   
    36   17   49 1   
    37   18   19 ar  
    38   18   50 1   
    39   19   51 1   
    40   20   21 ar  
    41   20   52 1   
    42   21   22 ar  
    43   21   26 1   
    44   22   23 1   
    45   23   24 1   
    46   24   25 1   
    47   24   53 1   
    48   24   54 1   
    49   25   55 1   
    50   25   56 1   
    51   26   27 1   
    52   27   28 1   
    53   27   57 1   
    54   27   58 1   
    55   28   29 1   
    56   28   34 1   
    57   28   59 1   
    58   29   30 1   
    59   29   60 1   
    60   29   61 1   
    61   30   31 1   
    62   30   32 1   
    63   31   62 1   
    64   31   63 1   
    65   31   64 1   
    66   32   33 1   
    67   32   65 1   
    68   32   66 1   
    69   33   34 1   
    70   33   67 1   
    71   33   68 1   
    72   34   69 1   
    73   34   70 1   
@<TRIPOS>SUBSTRUCTURE
     1 2LN         1 TEMP              0 ****  ****    0 ROOT
