@<TRIPOS>MOLECULE
2LN
   70    73     1     0     0
SMALL
bcc


@<TRIPOS>ATOM
      1 O4          0.1190    0.0240   -0.0350 o         1 2LN     -0.599100
      2 C2          1.3450   -0.1320   -0.2020 c         1 2LN      0.655100
      3 C1          2.2870   -0.2750    0.9790 c3        1 2LN     -0.146400
      4 C           1.5570   -0.0820    2.2830 c3        1 2LN     -0.087100
      5 N           1.8580   -0.2430   -1.4970 n         1 2LN     -0.465800
      6 C7          1.0090    0.0880   -2.6220 c3        1 2LN      0.133300
      7 C6          1.0270    1.5330   -3.0410 ca        1 2LN     -0.103300
      8 C8         -0.1810    2.2280   -3.1430 ca        1 2LN     -0.123000
      9 C9         -0.2110    3.5580   -3.5720 cp        1 2LN     -0.006000
     10 C19        -1.4860    4.2680   -3.6770 cp        1 2LN     -0.043000
     11 C24        -1.7380    5.0990   -4.7820 ca        1 2LN     -0.168000
     12 C23        -2.9520    5.7740   -4.8860 ca        1 2LN      0.099100
     13 O2         -3.2990    6.6160   -5.9250 os        1 2LN     -0.304900
     14 C25        -2.3720    6.6900   -7.0010 c3        1 2LN      0.110700
     15 C22        -3.9350    5.6260   -3.8700 ca        1 2LN      0.108100
     16 O3         -5.1000    6.3400   -4.0660 os        1 2LN     -0.303900
     17 C26        -6.0920    6.1990   -3.0560 c3        1 2LN      0.109700
     18 C21        -3.6760    4.8010   -2.7770 ca        1 2LN     -0.181000
     19 C20        -2.4580    4.1250   -2.6850 ca        1 2LN     -0.111000
     20 C10         0.9850    4.2160   -3.8910 ca        1 2LN     -0.186000
     21 C11         2.2020    3.5400   -3.7730 ca        1 2LN      0.119100
     22 C5          2.2250    2.1850   -3.3620 ca        1 2LN      0.073100
     23 O           3.4460    1.5300   -3.3930 os        1 2LN     -0.317900
     24 C4          3.9070    1.0710   -2.1210 c3        1 2LN      0.101400
     25 C3          3.2720   -0.2800   -1.7660 c3        1 2LN      0.054000
     26 O1          3.4380    4.1040   -4.0130 os        1 2LN     -0.312900
     27 C12         3.4210    5.3900   -4.6470 c3        1 2LN      0.127400
     28 C13         4.8760    5.7370   -4.9400 c3        1 2LN     -0.068700
     29 C18         5.4140    4.8370   -6.0600 c3        1 2LN      0.171800
     30 N1          6.7720    5.1810   -6.4600 n3        1 2LN     -0.731600
     31 C17         7.2770    4.3020   -7.4900 c3        1 2LN      0.159100
     32 C16         6.9200    6.5870   -6.8090 c3        1 2LN      0.168800
     33 C15         6.4100    7.5320   -5.7230 c3        1 2LN     -0.076400
     34 C14         4.9860    7.2010   -5.3330 c3        1 2LN     -0.075400
     35 H1          2.7510   -1.2970    0.9530 hc        1 2LN      0.061700
     36 H2          3.1080    0.4850    0.8880 hc        1 2LN      0.061700
     37 H3          1.1020    0.9380    2.3300 hc        1 2LN      0.046700
     38 H4          2.2650   -0.2030    3.1370 hc        1 2LN      0.046700
     39 H5          0.7330   -0.8290    2.3840 hc        1 2LN      0.046700
     40 H6         -0.0480   -0.2120   -2.3600 h1        1 2LN      0.076700
     41 H7          1.3470   -0.5320   -3.5040 h1        1 2LN      0.076700
     42 H8         -1.1230    1.7190   -2.8820 ha        1 2LN      0.148000
     43 H9         -0.9720    5.2000   -5.5640 ha        1 2LN      0.142000
     44 H10        -2.2030    5.6830   -7.4530 h1        1 2LN      0.043367
     45 H11        -2.8800    7.3710   -7.7320 h1        1 2LN      0.043367
     46 H12        -1.4050    7.1330   -6.6590 h1        1 2LN      0.043367
     47 H13        -5.7100    6.5620   -2.0720 h1        1 2LN      0.044700
     48 H14        -6.4290    5.1360   -2.9770 h1        1 2LN      0.044700
     49 H15        -6.9260    6.8510   -3.4210 h1        1 2LN      0.044700
     50 H16        -4.4230    4.6750   -1.9810 ha        1 2LN      0.142000
     51 H17        -2.2640    3.4780   -1.8150 ha        1 2LN      0.145000
     52 H18         0.9540    5.2670   -4.2110 ha        1 2LN      0.143000
     53 H19         3.7260    1.8390   -1.3280 h1        1 2LN      0.063200
     54 H20         5.0110    0.9330   -2.2810 h1        1 2LN      0.063200
     55 H21         3.8250   -0.7080   -0.8840 h1        1 2LN      0.061700
     56 H22         3.4320   -0.9770   -2.6410 h1        1 2LN      0.061700
     57 H23         2.9750    6.1420   -3.9430 h1        1 2LN      0.040200
     58 H24         2.8130    5.3440   -5.5870 h1        1 2LN      0.040200
     59 H25         5.4830    5.5560   -4.0090 hc        1 2LN      0.080700
     60 H26         5.4210    3.7750   -5.6840 h1        1 2LN      0.039700
     61 H27         4.7000    4.8880   -6.9350 h1        1 2LN      0.039700
     62 H29         8.3530    4.5530   -7.6830 h1        1 2LN      0.031367
     63 H30         6.7130    4.3810   -8.4610 h1        1 2LN      0.031367
     64 H31         7.2120    3.2430   -7.1270 h1        1 2LN      0.031367
     65 H32         8.0180    6.7800   -6.9710 h1        1 2LN      0.029200
     66 H33         6.3870    6.8320   -7.7760 h1        1 2LN      0.029200
     67 H34         6.4660    8.5810   -6.1110 hc        1 2LN      0.048200
     68 H35         7.0720    7.4630   -4.8220 hc        1 2LN      0.048200
     69 H36         4.6660    7.8500   -4.4770 hc        1 2LN      0.040200
     70 H37         4.2980    7.4120   -6.1940 hc        1 2LN      0.040200
@<TRIPOS>BOND
     1    1    2 2   
     2    2    3 1   
     3    2    5 1   
     4    3    4 1   
     5    3   35 1   
     6    3   36 1   
     7    4   37 1   
     8    4   38 1   
     9    4   39 1   
    10    5    6 1   
    11    5   25 1   
    12    6    7 1   
    13    6   40 1   
    14    6   41 1   
    15    7    8 ar  
    16    7   22 ar  
    17    8    9 ar  
    18    8   42 1   
    19    9   10 1   
    20    9   20 ar  
    21   10   11 ar  
    22   10   19 ar  
    23   11   12 ar  
    24   11   43 1   
    25   12   13 1   
    26   12   15 ar  
    27   13   14 1   
    28   14   44 1   
    29   14   45 1   
    30   14   46 1   
    31   15   16 1   
    32   15   18 ar  
    33   16   17 1   
    34   17   47 1   
    35   17   48 1   
    36   17   49 1   
    37   18   19 ar  
    38   18   50 1   
    39   19   51 1   
    40   20   21 ar  
    41   20   52 1   
    42   21   22 ar  
    43   21   26 1   
    44   22   23 1   
    45   23   24 1   
    46   24   25 1   
    47   24   53 1   
    48   24   54 1   
    49   25   55 1   
    50   25   56 1   
    51   26   27 1   
    52   27   28 1   
    53   27   57 1   
    54   27   58 1   
    55   28   29 1   
    56   28   34 1   
    57   28   59 1   
    58   29   30 1   
    59   29   60 1   
    60   29   61 1   
    61   30   31 1   
    62   30   32 1   
    63   31   62 1   
    64   31   63 1   
    65   31   64 1   
    66   32   33 1   
    67   32   65 1   
    68   32   66 1   
    69   33   34 1   
    70   33   67 1   
    71   33   68 1   
    72   34   69 1   
    73   34   70 1   
@<TRIPOS>SUBSTRUCTURE
     1 2LN         1 TEMP              0 ****  ****    0 ROOT
