@<TRIPOS>MOLECULE
2LN
   70    65     1     0     0
SMALL
bcc


@<TRIPOS>ATOM
      1 O4         -1.3190   -3.2680    3.9380 o         1 2LN     -0.361000
      2 C2         -0.0580   -3.2260    3.9870 c1        1 2LN      0.299000
      3 C1          0.6640   -3.1680    5.3530 c2        1 2LN     -0.175000
      4 C          -0.1860   -3.8580    6.4060 c3        1 2LN     -0.205000
      5 N           0.6870   -3.2470    2.8120 n3        1 2LN     -0.324000
      6 C7          0.1410   -3.3150    1.5210 c3        1 2LN      0.010000
      7 C6         -0.2270   -1.9020    1.0060 c2        1 2LN     -0.097000
      8 C8         -1.5200   -1.3560    0.7930 c1        1 2LN     -0.125000
      9 C9         -1.6580   -0.1270    0.1500 c1        1 2LN     -0.034000
     10 C19        -3.0730    0.5010   -0.0330 c1        1 2LN     -0.034000
     11 C24        -3.8200    0.2010   -1.1510 c1        1 2LN     -0.147000
     12 C23        -5.0940    0.7500   -1.3080 c1        1 2LN      0.042000
     13 O2         -5.8320    0.5130   -2.5190 o         1 2LN     -0.210500
     14 C25        -6.9360   -0.3820   -2.3630 c3        1 2LN     -0.076000
     15 C22        -5.6120    1.6080   -0.3270 c1        1 2LN      0.042000
     16 O3         -6.8420    2.3020   -0.5660 o         1 2LN     -0.210500
     17 C26        -7.8380    2.0880    0.4350 c3        1 2LN     -0.076000
     18 C21        -4.8570    1.9060    0.7960 c1        1 2LN     -0.147000
     19 C20        -3.5910    1.3570    0.9480 c1        1 2LN     -0.138000
     20 C10        -0.5190    0.5710   -0.2870 c1        1 2LN     -0.138000
     21 C11         0.7520    0.0310   -0.0770 c1        1 2LN      0.075000
     22 C5          0.8890   -1.2230    0.5800 c2        1 2LN      0.028000
     23 O           2.0390   -2.0520    0.6400 os        1 2LN     -0.201000
     24 C4          2.6120   -2.0160    1.9000 c3        1 2LN     -0.049000
     25 C3          2.1320   -3.2050    2.7580 c3        1 2LN     -0.062000
     26 O1          1.9260    0.7940   -0.4140 os        1 2LN     -0.196000
     27 C12         2.1060    1.0230   -1.8120 c3        1 2LN     -0.023000
     28 C13         3.2650    2.0240   -2.0190 c3        1 2LN     -0.108000
     29 C18         4.5380    1.2460   -2.3940 c3        1 2LN     -0.066000
     30 N1          5.6470    2.1350   -2.7830 n3        1 2LN     -0.257000
     31 C17         6.7420    1.3540   -3.2370 c3        1 2LN     -0.117000
     32 C16         5.2690    3.0930   -3.8090 c3        1 2LN     -0.068000
     33 C15         3.9870    3.8810   -3.4400 c3        1 2LN     -0.155000
     34 C14         2.8730    2.9920   -3.0570 c3        1 2LN     -0.155000
     35 H1          0.8050   -2.2320    5.6070 ha        1 2LN      0.101000
     36 H2          1.5370   -3.6240    5.2850 ha        1 2LN      0.101000
     37 H3          0.2270   -3.7300    7.3040 hc        1 2LN      0.086000
     38 H4         -1.0470   -3.4890    6.4040 hc        1 2LN      0.086000
     39 H5         -0.2430   -4.8240    6.2020 hc        1 2LN      0.086000
     40 H6          0.8100   -3.7010    0.9260 h1        1 2LN      0.115500
     41 H7         -0.6550   -3.8450    1.5490 h1        1 2LN      0.115500
     42 H8         -2.3370   -1.9150    0.9880 ha        1 2LN      0.147000
     43 H9         -3.4680   -0.4100   -1.8170 ha        1 2LN      0.145500
     44 H10        -6.6200   -1.3070   -2.4340 h1        1 2LN      0.084167
     45 H11        -7.6090   -0.2050   -3.0750 h1        1 2LN      0.084167
     46 H12        -7.3320   -0.2490   -1.5170 h1        1 2LN      0.084167
     47 H13        -7.6110    2.5930    1.2300 h1        1 2LN      0.084167
     48 H14        -7.8820    1.1420    0.6550 h1        1 2LN      0.084167
     49 H15        -8.6900    2.3780    0.1030 h1        1 2LN      0.084167
     50 H16        -5.2210    2.5130    1.4920 ha        1 2LN      0.145500
     51 H17        -3.0720    1.5650    1.7230 ha        1 2LN      0.145500
     52 H18        -0.6170    1.4400   -0.7390 ha        1 2LN      0.145500
     53 H19         2.3580   -1.1610    2.3520 h1        1 2LN      0.102500
     54 H20         3.5700   -2.0550    1.8110 h1        1 2LN      0.102500
     55 H21         2.4750   -3.0940    3.6610 h1        1 2LN      0.101000
     56 H22         2.4510   -4.0310    2.3490 h1        1 2LN      0.101000
     57 H23         1.2670    1.4030   -2.2010 h1        1 2LN      0.081000
     58 H24         2.3250    0.1640   -2.2640 h1        1 2LN      0.081000
     59 H25         3.4310    2.5210   -1.1490 hc        1 2LN      0.119000
     60 H26         4.8230    0.7040   -1.6140 h1        1 2LN      0.079500
     61 H27         4.3290    0.6290   -3.1590 h1        1 2LN      0.079500
     62 H29         6.4450    0.7610   -3.9970 h1        1 2LN      0.070667
     63 H30         7.0620    0.8130   -2.5200 h1        1 2LN      0.070667
     64 H31         7.4420    1.9310   -3.5380 h1        1 2LN      0.070667
     65 H32         6.0460    3.7620   -3.9440 h1        1 2LN      0.068000
     66 H33         5.1170    2.6150   -4.6420 h1        1 2LN      0.068000
     67 H34         4.1840    4.4650   -2.7060 hc        1 2LN      0.087500
     68 H35         3.7220    4.4030   -4.1860 hc        1 2LN      0.087500
     69 H36         2.1240    3.5450   -2.7160 hc        1 2LN      0.081000
     70 H37         2.5680    2.5000   -3.8500 hc        1 2LN      0.081000
@<TRIPOS>BOND
     1    1    2 1   
     2    2    5 1   
     3    3    4 1   
     4    3   35 1   
     5    3   36 1   
     6    4   37 1   
     7    4   38 1   
     8    4   39 1   
     9    5    6 1   
    10    5   25 1   
    11    6    7 1   
    12    6   40 1   
    13    6   41 1   
    14    7    8 1   
    15    7   22 1   
    16    8   42 1   
    17    9   20 1   
    18   10   19 1   
    19   11   12 1   
    20   11   43 1   
    21   12   15 1   
    22   13   14 1   
    23   14   44 1   
    24   14   45 1   
    25   14   46 1   
    26   15   18 1   
    27   16   17 1   
    28   17   47 1   
    29   17   48 1   
    30   17   49 1   
    31   18   50 1   
    32   19   51 1   
    33   20   52 1   
    34   21   22 1   
    35   21   26 1   
    36   22   23 1   
    37   23   24 1   
    38   24   25 1   
    39   24   53 1   
    40   24   54 1   
    41   25   55 1   
    42   25   56 1   
    43   26   27 1   
    44   27   28 1   
    45   27   57 1   
    46   27   58 1   
    47   28   29 1   
    48   28   34 1   
    49   28   59 1   
    50   29   30 1   
    51   29   60 1   
    52   29   61 1   
    53   30   31 1   
    54   30   32 1   
    55   31   62 1   
    56   31   63 1   
    57   31   64 1   
    58   32   33 1   
    59   32   65 1   
    60   32   66 1   
    61   33   34 1   
    62   33   67 1   
    63   33   68 1   
    64   34   69 1   
    65   34   70 1   
@<TRIPOS>SUBSTRUCTURE
     1 2LN         1 TEMP              0 ****  ****    0 ROOT
