@<TRIPOS>MOLECULE
2LN
   70    73     1     0     0
SMALL
bcc


@<TRIPOS>ATOM
      1 O4         -3.2490    4.1330   -0.0690 o         1 2LN     -0.599100
      2 C2         -2.1220    4.6670   -0.0930 c         1 2LN      0.655100
      3 C1         -1.8060    5.7890   -1.0640 c3        1 2LN     -0.146400
      4 C          -2.9590    6.0360   -2.0030 c3        1 2LN     -0.087100
      5 N          -1.1500    4.2740    0.8300 n         1 2LN     -0.465800
      6 C7         -1.3700    3.0810    1.6210 c3        1 2LN      0.133300
      7 C6         -0.8930    1.7970    0.9970 ca        1 2LN     -0.103300
      8 C8         -1.7860    0.7290    0.8700 ca        1 2LN     -0.123000
      9 C9         -1.3700   -0.4960    0.3380 cp        1 2LN     -0.006000
     10 C19        -2.3170   -1.6040    0.2180 cp        1 2LN     -0.043000
     11 C24        -1.9170   -2.9090    0.5510 ca        1 2LN     -0.168000
     12 C23        -2.8160   -3.9660    0.4400 ca        1 2LN      0.099100
     13 O2         -2.5260   -5.2840    0.7360 os        1 2LN     -0.304900
     14 C25        -1.2420   -5.5250    1.2990 c3        1 2LN      0.110700
     15 C22        -4.1410   -3.7250   -0.0170 ca        1 2LN      0.108100
     16 O3         -4.9520   -4.8390   -0.0950 os        1 2LN     -0.303900
     17 C26        -6.2800   -4.6090   -0.5510 c3        1 2LN      0.109700
     18 C21        -4.5290   -2.4270   -0.3470 ca        1 2LN     -0.181000
     19 C20        -3.6210   -1.3740   -0.2270 ca        1 2LN     -0.111000
     20 C10        -0.0450   -0.6560   -0.0920 ca        1 2LN     -0.186000
     21 C11         0.8520    0.4100    0.0090 ca        1 2LN      0.119100
     22 C5          0.4320    1.6400    0.5720 ca        1 2LN      0.073100
     23 O           1.4000    2.6130    0.7680 os        1 2LN     -0.317900
     24 C4          1.1880    3.8190    0.0310 c3        1 2LN      0.101400
     25 C3          0.2100    4.7440    0.7660 c3        1 2LN      0.054000
     26 O1          2.1600    0.3780   -0.4270 os        1 2LN     -0.312900
     27 C12         2.6640   -0.9180   -0.7810 c3        1 2LN      0.127400
     28 C13         4.1470   -0.7280   -1.0820 c3        1 2LN     -0.068700
     29 C18         4.9110   -0.4290    0.2150 c3        1 2LN      0.171800
     30 N1          6.3500   -0.3340    0.0150 n3        1 2LN     -0.731600
     31 C17         7.0520   -0.0180    1.2380 c3        1 2LN      0.159100
     32 C16         6.9070   -1.5000   -0.6580 c3        1 2LN      0.168800
     33 C15         6.1900   -1.8370   -1.9640 c3        1 2LN     -0.076400
     34 C14         4.6980   -1.9750   -1.7520 c3        1 2LN     -0.075400
     35 H1         -1.5860    6.7230   -0.4810 hc        1 2LN      0.061700
     36 H2         -0.8890    5.5190   -1.6520 hc        1 2LN      0.061700
     37 H3         -2.7090    6.8730   -2.6990 hc        1 2LN      0.046700
     38 H4         -3.1800    5.1200   -2.6010 hc        1 2LN      0.046700
     39 H5         -3.8800    6.3010   -1.4300 hc        1 2LN      0.046700
     40 H6         -0.8250    3.2120    2.6020 h1        1 2LN      0.076700
     41 H7         -2.4760    3.0050    1.8340 h1        1 2LN      0.076700
     42 H8         -2.8310    0.8540    1.1960 ha        1 2LN      0.148000
     43 H9         -0.8910   -3.0820    0.9090 ha        1 2LN      0.142000
     44 H10        -0.4370   -5.2720    0.5660 h1        1 2LN      0.043367
     45 H11        -1.1050   -4.9490    2.2450 h1        1 2LN      0.043367
     46 H12        -1.2540   -6.6260    1.5040 h1        1 2LN      0.043367
     47 H13        -6.7380   -5.6310   -0.5310 h1        1 2LN      0.044700
     48 H14        -6.8230   -3.9210    0.1410 h1        1 2LN      0.044700
     49 H15        -6.2770   -4.1980   -1.5890 h1        1 2LN      0.044700
     50 H16        -5.5480   -2.2210   -0.7030 ha        1 2LN      0.142000
     51 H17        -3.9380   -0.3540   -0.4930 ha        1 2LN      0.145000
     52 H18         0.2680   -1.6160   -0.5250 ha        1 2LN      0.143000
     53 H19         2.2070    4.2930    0.0130 h1        1 2LN      0.063200
     54 H20         0.8500    3.5970   -1.0120 h1        1 2LN      0.063200
     55 H21         0.2480    5.7570    0.2780 h1        1 2LN      0.061700
     56 H22         0.5780    4.8610    1.8280 h1        1 2LN      0.061700
     57 H23         2.5070   -1.6330    0.0670 h1        1 2LN      0.040200
     58 H24         2.1250   -1.2860   -1.6940 h1        1 2LN      0.040200
     59 H25         4.2620    0.1500   -1.7770 hc        1 2LN      0.080700
     60 H26         4.5490    0.5600    0.6160 h1        1 2LN      0.039700
     61 H27         4.6510   -1.2250    0.9750 h1        1 2LN      0.039700
     62 H29         6.9710   -0.8220    2.0210 h1        1 2LN      0.031367
     63 H30         8.1370    0.1400    1.0020 h1        1 2LN      0.031367
     64 H31         6.6330    0.9330    1.6600 h1        1 2LN      0.031367
     65 H32         7.9870   -1.2730   -0.8860 h1        1 2LN      0.029200
     66 H33         6.8840   -2.4130    0.0090 h1        1 2LN      0.029200
     67 H34         6.3900   -1.0360   -2.7220 hc        1 2LN      0.048200
     68 H35         6.6100   -2.7970   -2.3610 hc        1 2LN      0.048200
     69 H36         4.4880   -2.8710   -1.1100 hc        1 2LN      0.040200
     70 H37         4.1880   -2.1360   -2.7360 hc        1 2LN      0.040200
@<TRIPOS>BOND
     1    1    2 2   
     2    2    3 1   
     3    2    5 1   
     4    3    4 1   
     5    3   35 1   
     6    3   36 1   
     7    4   37 1   
     8    4   38 1   
     9    4   39 1   
    10    5    6 1   
    11    5   25 1   
    12    6    7 1   
    13    6   40 1   
    14    6   41 1   
    15    7    8 ar  
    16    7   22 ar  
    17    8    9 ar  
    18    8   42 1   
    19    9   10 1   
    20    9   20 ar  
    21   10   11 ar  
    22   10   19 ar  
    23   11   12 ar  
    24   11   43 1   
    25   12   13 1   
    26   12   15 ar  
    27   13   14 1   
    28   14   44 1   
    29   14   45 1   
    30   14   46 1   
    31   15   16 1   
    32   15   18 ar  
    33   16   17 1   
    34   17   47 1   
    35   17   48 1   
    36   17   49 1   
    37   18   19 ar  
    38   18   50 1   
    39   19   51 1   
    40   20   21 ar  
    41   20   52 1   
    42   21   22 ar  
    43   21   26 1   
    44   22   23 1   
    45   23   24 1   
    46   24   25 1   
    47   24   53 1   
    48   24   54 1   
    49   25   55 1   
    50   25   56 1   
    51   26   27 1   
    52   27   28 1   
    53   27   57 1   
    54   27   58 1   
    55   28   29 1   
    56   28   34 1   
    57   28   59 1   
    58   29   30 1   
    59   29   60 1   
    60   29   61 1   
    61   30   31 1   
    62   30   32 1   
    63   31   62 1   
    64   31   63 1   
    65   31   64 1   
    66   32   33 1   
    67   32   65 1   
    68   32   66 1   
    69   33   34 1   
    70   33   67 1   
    71   33   68 1   
    72   34   69 1   
    73   34   70 1   
@<TRIPOS>SUBSTRUCTURE
     1 2LN         1 TEMP              0 ****  ****    0 ROOT
