@<TRIPOS>MOLECULE
2LN
   70    73     1     0     0
SMALL
bcc


@<TRIPOS>ATOM
      1 O4          0.1110    0.0150   -0.0470 o         1 2LN     -0.599100
      2 C2          1.3370   -0.1420   -0.2140 c         1 2LN      0.655100
      3 C1          2.2770   -0.2900    0.9670 c3        1 2LN     -0.146400
      4 C           1.5460   -0.1000    2.2720 c3        1 2LN     -0.087100
      5 N           1.8510   -0.2480   -1.5090 n         1 2LN     -0.465800
      6 C7          1.0030    0.0860   -2.6340 c3        1 2LN      0.133300
      7 C6          1.0240    1.5330   -3.0480 ca        1 2LN     -0.103300
      8 C8         -0.1840    2.2290   -3.1490 ca        1 2LN     -0.123000
      9 C9         -0.2120    3.5620   -3.5740 cp        1 2LN     -0.006000
     10 C19        -1.4860    4.2730   -3.6780 cp        1 2LN     -0.043000
     11 C24        -1.7360    5.1070   -4.7810 ca        1 2LN     -0.168000
     12 C23        -2.9490    5.7840   -4.8850 ca        1 2LN      0.099100
     13 O2         -3.2940    6.6290   -5.9210 os        1 2LN     -0.304900
     14 C25        -2.3670    6.7030   -6.9980 c3        1 2LN      0.110700
     15 C22        -3.9330    5.6350   -3.8700 ca        1 2LN      0.108100
     16 O3         -5.0960    6.3500   -4.0650 os        1 2LN     -0.303900
     17 C26        -6.0890    6.2090   -3.0550 c3        1 2LN      0.109700
     18 C21        -3.6750    4.8070   -2.7780 ca        1 2LN     -0.181000
     19 C20        -2.4590    4.1280   -2.6870 ca        1 2LN     -0.111000
     20 C10         0.9860    4.2190   -3.8890 ca        1 2LN     -0.186000
     21 C11         2.2020    3.5410   -3.7730 ca        1 2LN      0.119100
     22 C5          2.2220    2.1840   -3.3660 ca        1 2LN      0.073100
     23 O           3.4430    1.5290   -3.3980 os        1 2LN     -0.317900
     24 C4          3.9020    1.0640   -2.1270 c3        1 2LN      0.101400
     25 C3          3.2650   -0.2870   -1.7760 c3        1 2LN      0.054000
     26 O1          3.4380    4.1040   -4.0090 os        1 2LN     -0.312900
     27 C12         3.4240    5.3920   -4.6410 c3        1 2LN      0.127400
     28 C13         4.8800    5.7370   -4.9320 c3        1 2LN     -0.068700
     29 C18         5.4180    4.8380   -6.0520 c3        1 2LN      0.171800
     30 N1          6.7770    5.1800   -6.4500 n3        1 2LN     -0.731600
     31 C17         7.2820    4.3020   -7.4810 c3        1 2LN      0.159100
     32 C16         6.9270    6.5870   -6.7980 c3        1 2LN      0.168800
     33 C15         6.4160    7.5310   -5.7120 c3        1 2LN     -0.076400
     34 C14         4.9910    7.2020   -5.3230 c3        1 2LN     -0.075400
     35 H1          2.7400   -1.3120    0.9380 hc        1 2LN      0.061700
     36 H2          3.0990    0.4690    0.8800 hc        1 2LN      0.061700
     37 H3          1.0930    0.9190    2.3220 hc        1 2LN      0.046700
     38 H4          2.2540   -0.2260    3.1260 hc        1 2LN      0.046700
     39 H5          0.7210   -0.8470    2.3690 hc        1 2LN      0.046700
     40 H6         -0.0540   -0.2130   -2.3730 h1        1 2LN      0.076700
     41 H7          1.3420   -0.5310   -3.5170 h1        1 2LN      0.076700
     42 H8         -1.1270    1.7210   -2.8910 ha        1 2LN      0.148000
     43 H9         -0.9690    5.2090   -5.5630 ha        1 2LN      0.142000
     44 H10        -1.3990    7.1440   -6.6560 h1        1 2LN      0.043367
     45 H11        -2.2000    5.6960   -7.4510 h1        1 2LN      0.043367
     46 H12        -2.8740    7.3850   -7.7270 h1        1 2LN      0.043367
     47 H13        -5.7060    6.5700   -2.0700 h1        1 2LN      0.044700
     48 H14        -6.4280    5.1470   -2.9780 h1        1 2LN      0.044700
     49 H15        -6.9210    6.8640   -3.4190 h1        1 2LN      0.044700
     50 H16        -4.4230    4.6800   -1.9830 ha        1 2LN      0.142000
     51 H17        -2.2660    3.4790   -1.8190 ha        1 2LN      0.145000
     52 H18         0.9560    5.2710   -4.2070 ha        1 2LN      0.143000
     53 H19         5.0060    0.9260   -2.2860 h1        1 2LN      0.063200
     54 H20         3.7210    1.8300   -1.3310 h1        1 2LN      0.063200
     55 H21         3.4250   -0.9810   -2.6540 h1        1 2LN      0.061700
     56 H22         3.8170   -0.7180   -0.8960 h1        1 2LN      0.061700
     57 H23         2.8170    5.3480   -5.5820 h1        1 2LN      0.040200
     58 H24         2.9780    6.1430   -3.9360 h1        1 2LN      0.040200
     59 H25         5.4850    5.5540   -4.0010 hc        1 2LN      0.080700
     60 H26         5.4240    3.7750   -5.6770 h1        1 2LN      0.039700
     61 H27         4.7050    4.8900   -6.9270 h1        1 2LN      0.039700
     62 H29         6.7200    4.3820   -8.4520 h1        1 2LN      0.031367
     63 H30         7.2160    3.2430   -7.1170 h1        1 2LN      0.031367
     64 H31         8.3580    4.5520   -7.6720 h1        1 2LN      0.031367
     65 H32         8.0260    6.7790   -6.9580 h1        1 2LN      0.029200
     66 H33         6.3950    6.8330   -7.7650 h1        1 2LN      0.029200
     67 H34         6.4740    8.5810   -6.0990 hc        1 2LN      0.048200
     68 H35         7.0770    7.4610   -4.8090 hc        1 2LN      0.048200
     69 H36         4.6710    7.8500   -4.4670 hc        1 2LN      0.040200
     70 H37         4.3040    7.4140   -6.1850 hc        1 2LN      0.040200
@<TRIPOS>BOND
     1    1    2 2   
     2    2    3 1   
     3    2    5 1   
     4    3    4 1   
     5    3   35 1   
     6    3   36 1   
     7    4   37 1   
     8    4   38 1   
     9    4   39 1   
    10    5    6 1   
    11    5   25 1   
    12    6    7 1   
    13    6   40 1   
    14    6   41 1   
    15    7    8 ar  
    16    7   22 ar  
    17    8    9 ar  
    18    8   42 1   
    19    9   10 1   
    20    9   20 ar  
    21   10   11 ar  
    22   10   19 ar  
    23   11   12 ar  
    24   11   43 1   
    25   12   13 1   
    26   12   15 ar  
    27   13   14 1   
    28   14   44 1   
    29   14   45 1   
    30   14   46 1   
    31   15   16 1   
    32   15   18 ar  
    33   16   17 1   
    34   17   47 1   
    35   17   48 1   
    36   17   49 1   
    37   18   19 ar  
    38   18   50 1   
    39   19   51 1   
    40   20   21 ar  
    41   20   52 1   
    42   21   22 ar  
    43   21   26 1   
    44   22   23 1   
    45   23   24 1   
    46   24   25 1   
    47   24   53 1   
    48   24   54 1   
    49   25   55 1   
    50   25   56 1   
    51   26   27 1   
    52   27   28 1   
    53   27   57 1   
    54   27   58 1   
    55   28   29 1   
    56   28   34 1   
    57   28   59 1   
    58   29   30 1   
    59   29   60 1   
    60   29   61 1   
    61   30   31 1   
    62   30   32 1   
    63   31   62 1   
    64   31   63 1   
    65   31   64 1   
    66   32   33 1   
    67   32   65 1   
    68   32   66 1   
    69   33   34 1   
    70   33   67 1   
    71   33   68 1   
    72   34   69 1   
    73   34   70 1   
@<TRIPOS>SUBSTRUCTURE
     1 2LN         1 TEMP              0 ****  ****    0 ROOT
