@<TRIPOS>MOLECULE
2LO
   69    63     1     0     0
SMALL
bcc


@<TRIPOS>ATOM
      1 CL         -4.1230   -2.2860    6.2350 cl        1 2LO     -0.001000
      2 C16        -2.6450   -1.4660    5.8010 c2        1 2LO     -0.077000
      3 C15        -1.9790   -0.6920    6.7420 c2        1 2LO      0.054000
      4 O          -2.5560   -0.4860    8.0240 os        1 2LO     -0.219000
      5 C18        -2.1350   -1.4240    9.0000 c3        1 2LO     -0.074000
      6 C14        -0.8240   -0.0120    6.3870 c1        1 2LO     -0.128000
      7 C13        -0.3320   -0.1060    5.0870 c1        1 2LO     -0.087000
      8 C17        -2.1530   -1.5600    4.5030 c1        1 2LO     -0.117000
      9 C12        -0.9960   -0.8790    4.1470 c1        1 2LO     -0.053000
     10 C11        -0.3750   -1.0930    2.7460 c2        1 2LO     -0.123000
     11 C10        -0.8380    0.0190    1.8090 c3        1 2LO     -0.099000
     12 C9         -0.1410   -0.1390    0.4320 c2        1 2LO      0.018000
     13 N1         -0.1690   -0.1680   -0.9360 n2        1 2LO     -0.164500
     14 C19        -1.3450   -0.3080   -1.7720 c2        1 2LO     -0.016000
     15 C20        -2.1620    0.9770   -1.7180 c3        1 2LO     -0.036000
     16 N2         -2.5940    1.3250   -3.0420 n3        1 2LO     -0.258000
     17 C25        -3.8900    0.7960   -3.2710 c3        1 2LO     -0.103500
     18 C24        -4.4730    1.2480   -4.5930 c3        1 2LO     -0.024000
     19 O1         -4.4250    2.6470   -4.7500 os        1 2LO     -0.269000
     20 C23        -3.1280    3.1800   -4.5210 c3        1 2LO     -0.024000
     21 C22        -2.5450    2.7300   -3.2010 c3        1 2LO     -0.103500
     22 C21        -3.3570    0.7710   -0.8440 c3        1 2LO     -0.248000
     23 C6          1.1200   -0.2270   -1.3830 c1        1 2LO     -0.049500
     24 C5          1.6670   -0.3500   -2.6830 c1        1 2LO     -0.119500
     25 C4          3.0460   -0.4800   -2.8500 c1        1 2LO     -0.119500
     26 N           1.1630   -0.1800    0.8290 n2        1 2LO     -0.164500
     27 C7          1.9450   -0.2340   -0.2910 c1        1 2LO     -0.049500
     28 C8          3.3460   -0.3660   -0.4610 c1        1 2LO     -0.087000
     29 C3          3.8840   -0.4870   -1.7400 c1        1 2LO     -0.053000
     30 C2          5.3570   -0.6590   -2.1740 c1        1 2LO     -0.135000
     31 C26         5.9540   -1.8370   -2.5570 c1        1 2LO     -0.017000
     32 C27         5.3270   -3.2080   -2.5030 c2        1 2LO     -0.162000
     33 O2          7.2300   -1.5590   -2.9240 os        1 2LO     -0.063000
     34 N3          7.4340   -0.1920   -2.7690 n2        1 2LO     -0.031000
     35 C1          6.2850    0.3530   -2.3100 c1        1 2LO     -0.087000
     36 C           6.0480    1.8120   -2.0350 c2        1 2LO     -0.162000
     37 H1         -2.6940   -1.3300    9.8080 h1        1 2LO      0.083000
     38 H2         -1.1950   -1.2560    9.2320 h1        1 2LO      0.083000
     39 H3         -2.2280   -2.3300    8.6430 h1        1 2LO      0.083000
     40 H4         -0.3550    0.5330    7.0480 ha        1 2LO      0.152000
     41 H5          0.4740    0.3690    4.8400 ha        1 2LO      0.148500
     42 H6         -2.6190   -2.1010    3.8450 ha        1 2LO      0.145000
     43 H7         -0.6610   -1.9580    2.3910 ha        1 2LO      0.101000
     44 H8          0.6030   -1.0760    2.8150 ha        1 2LO      0.101000
     45 H9         -1.8130   -0.0360    1.6910 hc        1 2LO      0.112500
     46 H10        -0.6050    0.8890    2.1940 hc        1 2LO      0.112500
     47 H11        -1.8900   -1.0560   -1.4480 ha        1 2LO      0.108500
     48 H12        -1.0700   -0.4800   -2.6940 ha        1 2LO      0.108500
     49 H13        -1.6140    1.6950   -1.3550 h1        1 2LO      0.111000
     50 H15        -4.4830    1.0860   -2.5470 h1        1 2LO      0.081250
     51 H16        -3.8380   -0.1770   -3.2660 h1        1 2LO      0.081250
     52 H17        -3.9720    0.8310   -5.3190 h1        1 2LO      0.094750
     53 H18        -5.4090    0.9550   -4.6440 h1        1 2LO      0.094750
     54 H19        -2.5350    2.8910   -5.2430 h1        1 2LO      0.094750
     55 H20        -3.1810    4.1540   -4.5270 h1        1 2LO      0.094750
     56 H21        -1.6180    3.0210   -3.1510 h1        1 2LO      0.081250
     57 H22        -3.0520    3.1510   -2.4680 h1        1 2LO      0.081250
     58 H23        -3.0730    0.7380    0.0930 hc        1 2LO      0.085333
     59 H24        -3.7980   -0.0770   -1.0840 hc        1 2LO      0.085333
     60 H25        -3.9880    1.5170   -0.9700 hc        1 2LO      0.085333
     61 H26         1.0780   -0.3450   -3.4630 ha        1 2LO      0.138500
     62 H27         3.4250   -0.5650   -3.7510 ha        1 2LO      0.138500
     63 H28         3.9340   -0.3710    0.3180 ha        1 2LO      0.148500
     64 H29         4.5120   -3.2160   -3.0500 ha        1 2LO      0.102667
     65 H30         5.1000   -3.4270   -1.5760 ha        1 2LO      0.102667
     66 H31         5.9590   -3.8700   -2.8510 ha        1 2LO      0.102667
     67 H32         6.8120    2.3290   -2.3450 ha        1 2LO      0.102667
     68 H33         5.2450    2.1050   -2.5040 ha        1 2LO      0.102667
     69 H34         5.9320    1.9470   -1.0720 ha        1 2LO      0.102667
@<TRIPOS>BOND
     1    1    2 1   
     2    2    3 1   
     3    2    8 1   
     4    3    4 1   
     5    3    6 1   
     6    4    5 1   
     7    5   37 1   
     8    5   38 1   
     9    5   39 1   
    10    6   40 1   
    11    7    9 1   
    12    7   41 1   
    13    8   42 1   
    14   10   11 1   
    15   10   43 1   
    16   10   44 1   
    17   11   12 1   
    18   11   45 1   
    19   11   46 1   
    20   12   13 1   
    21   12   26 1   
    22   13   23 1   
    23   14   15 1   
    24   14   47 1   
    25   14   48 1   
    26   15   16 1   
    27   15   22 1   
    28   15   49 1   
    29   16   17 1   
    30   16   21 1   
    31   17   18 1   
    32   17   50 1   
    33   17   51 1   
    34   18   19 1   
    35   18   52 1   
    36   18   53 1   
    37   19   20 1   
    38   20   21 1   
    39   20   54 1   
    40   20   55 1   
    41   21   56 1   
    42   21   57 1   
    43   22   58 1   
    44   22   59 1   
    45   22   60 1   
    46   23   27 1   
    47   24   25 1   
    48   24   61 1   
    49   25   62 1   
    50   26   27 1   
    51   28   29 1   
    52   28   63 1   
    53   30   31 1   
    54   30   35 1   
    55   31   33 1   
    56   32   64 1   
    57   32   65 1   
    58   32   66 1   
    59   33   34 1   
    60   34   35 1   
    61   36   67 1   
    62   36   68 1   
    63   36   69 1   
@<TRIPOS>SUBSTRUCTURE
     1 2LO         1 TEMP              0 ****  ****    0 ROOT
