@<TRIPOS>MOLECULE
2LO
   69    73     1     0     0
SMALL
bcc


@<TRIPOS>ATOM
      1 CL          0.1870   -0.8090    0.0270 cl        1 2LO     -0.073400
      2 C16         1.8110   -0.3110    0.0360 ca        1 2LO     -0.011600
      3 C15         2.4560    0.1070    1.2200 ca        1 2LO      0.135100
      4 O           1.6990    0.0950    2.3730 os        1 2LO     -0.312900
      5 C18         2.3650    0.4800    3.5710 c3        1 2LO      0.112700
      6 C14         3.7990    0.5070    1.1750 ca        1 2LO     -0.195000
      7 C13         4.4890    0.4920   -0.0330 ca        1 2LO     -0.089000
      8 C17         2.5190   -0.3190   -1.1670 ca        1 2LO     -0.096000
      9 C12         3.8570    0.0830   -1.2120 ca        1 2LO     -0.112300
     10 C11         4.6080    0.0640   -2.4960 c3        1 2LO     -0.032100
     11 C10         4.8150    1.4720   -3.0310 c3        1 2LO     -0.092700
     12 C9          5.6230    1.4440   -4.2890 cc        1 2LO      0.414800
     13 N1          5.0340    1.2680   -5.5740 na        1 2LO     -0.155300
     14 C19         3.6380    1.2340   -5.8740 c3        1 2LO      0.051300
     15 C20         2.9380    2.6230   -5.9790 c3        1 2LO      0.163500
     16 N2          3.4410    3.3850   -7.1170 n3        1 2LO     -0.728600
     17 C25         2.8490    3.0150   -8.3960 c3        1 2LO      0.136300
     18 C24         3.4380    3.8270   -9.5580 c3        1 2LO      0.125900
     19 O1          3.3340    5.2250   -9.3180 os        1 2LO     -0.413600
     20 C23         3.9620    5.6060   -8.0990 c3        1 2LO      0.125900
     21 C22         3.4040    4.8260   -6.9020 c3        1 2LO      0.136300
     22 C21         1.4310    2.3710   -5.9430 c3        1 2LO     -0.127100
     23 C6          6.0910    1.2970   -6.4940 ca        1 2LO     -0.048200
     24 C5          6.1490    1.1880   -7.8880 ca        1 2LO     -0.123000
     25 C4          7.3980    1.2190   -8.4870 ca        1 2LO     -0.106000
     26 N           6.9670    1.5380   -4.3420 nd        1 2LO     -0.566100
     27 C7          7.3030    1.4480   -5.7070 ca        1 2LO      0.062400
     28 C8          8.5470    1.4740   -6.3460 ca        1 2LO     -0.063000
     29 C3          8.5900    1.3560   -7.7370 ca        1 2LO     -0.033000
     30 C2          9.8630    1.3910   -8.4150 cc        1 2LO     -0.264600
     31 C26        10.9680    2.1790   -8.1250 cd        1 2LO      0.273000
     32 C27        11.2930    3.1950   -7.1280 c3        1 2LO     -0.141400
     33 O2         11.9780    1.8630   -9.0630 os        1 2LO     -0.120100
     34 N3         11.5530    0.9310   -9.8920 nd        1 2LO     -0.367300
     35 C1         10.2880    0.5890   -9.5730 cc        1 2LO      0.332600
     36 C           9.4740   -0.4290  -10.2630 c3        1 2LO     -0.134400
     37 H1          1.5680    0.3730    4.3510 h1        1 2LO      0.048033
     38 H2          2.7130    1.5400    3.5070 h1        1 2LO      0.048033
     39 H3          3.2210   -0.2040    3.7870 h1        1 2LO      0.048033
     40 H4          4.3170    0.8320    2.0890 ha        1 2LO      0.144000
     41 H5          5.5450    0.8050   -0.0610 ha        1 2LO      0.142000
     42 H6          2.0160   -0.6510   -2.0890 ha        1 2LO      0.144000
     43 H7          5.6090   -0.4220   -2.3370 hc        1 2LO      0.060200
     44 H8          4.0580   -0.5500   -3.2580 hc        1 2LO      0.060200
     45 H9          5.3550    2.0890   -2.2630 hc        1 2LO      0.068200
     46 H10         3.8230    1.9620   -3.2210 hc        1 2LO      0.068200
     47 H11         3.1200    0.6630   -5.0490 h1        1 2LO      0.062200
     48 H12         3.4990    0.6700   -6.8400 h1        1 2LO      0.062200
     49 H13         3.2050    3.2070   -5.0450 h1        1 2LO      0.063700
     50 H15         3.0570    1.9250   -8.5770 h1        1 2LO      0.039950
     51 H16         1.7300    3.1620   -8.3980 h1        1 2LO      0.039950
     52 H17         4.5110    3.5500   -9.7310 h1        1 2LO      0.056700
     53 H18         2.8370    3.6570  -10.4890 h1        1 2LO      0.056700
     54 H19         3.7250    6.6970   -7.9920 h1        1 2LO      0.056700
     55 H20         5.0710    5.4560   -8.1850 h1        1 2LO      0.056700
     56 H21         4.0380    5.0610   -6.0020 h1        1 2LO      0.039950
     57 H22         2.3540    5.1870   -6.6960 h1        1 2LO      0.039950
     58 H23         1.1250    1.6480   -6.7360 hc        1 2LO      0.045367
     59 H24         1.1460    1.9500   -4.9490 hc        1 2LO      0.045367
     60 H25         0.8710    3.3250   -6.0940 hc        1 2LO      0.045367
     61 H26         5.2330    1.1010   -8.4880 ha        1 2LO      0.136000
     62 H27         7.4710    1.1470   -9.5840 ha        1 2LO      0.136000
     63 H28         9.4720    1.5820   -5.7610 ha        1 2LO      0.148000
     64 H29        11.8360    2.7270   -6.2670 hc        1 2LO      0.067033
     65 H30        11.9480    3.9870   -7.5700 hc        1 2LO      0.067033
     66 H31        10.3510    3.6640   -6.7450 hc        1 2LO      0.067033
     67 H32         8.7350   -0.8670   -9.5470 hc        1 2LO      0.058700
     68 H33         8.9170    0.0420  -11.1120 hc        1 2LO      0.058700
     69 H34        10.1110   -1.2520  -10.6740 hc        1 2LO      0.058700
@<TRIPOS>BOND
     1    1    2 1   
     2    2    3 ar  
     3    2    8 ar  
     4    3    4 1   
     5    3    6 ar  
     6    4    5 1   
     7    5   37 1   
     8    5   38 1   
     9    5   39 1   
    10    6    7 ar  
    11    6   40 1   
    12    7    9 ar  
    13    7   41 1   
    14    8    9 ar  
    15    8   42 1   
    16    9   10 1   
    17   10   11 1   
    18   10   43 1   
    19   10   44 1   
    20   11   12 1   
    21   11   45 1   
    22   11   46 1   
    23   12   13 1   
    24   12   26 2   
    25   13   14 1   
    26   13   23 1   
    27   14   15 1   
    28   14   47 1   
    29   14   48 1   
    30   15   16 1   
    31   15   22 1   
    32   15   49 1   
    33   16   17 1   
    34   16   21 1   
    35   17   18 1   
    36   17   50 1   
    37   17   51 1   
    38   18   19 1   
    39   18   52 1   
    40   18   53 1   
    41   19   20 1   
    42   20   21 1   
    43   20   54 1   
    44   20   55 1   
    45   21   56 1   
    46   21   57 1   
    47   22   58 1   
    48   22   59 1   
    49   22   60 1   
    50   23   24 ar  
    51   23   27 ar  
    52   24   25 ar  
    53   24   61 1   
    54   25   29 ar  
    55   25   62 1   
    56   26   27 1   
    57   27   28 ar  
    58   28   29 ar  
    59   28   63 1   
    60   29   30 1   
    61   30   31 2   
    62   30   35 1   
    63   31   32 1   
    64   31   33 1   
    65   32   64 1   
    66   32   65 1   
    67   32   66 1   
    68   33   34 1   
    69   34   35 2   
    70   35   36 1   
    71   36   67 1   
    72   36   68 1   
    73   36   69 1   
@<TRIPOS>SUBSTRUCTURE
     1 2LO         1 TEMP              0 ****  ****    0 ROOT
