@<TRIPOS>MOLECULE
2LO
   69    73     1     0     0
SMALL
bcc


@<TRIPOS>ATOM
      1 Cl          0.1810   -0.8000    0.0260 cl        1 2LO     -0.073400
      2 C16         1.8060   -0.3040    0.0360 ca        1 2LO     -0.011600
      3 C15         2.4510    0.1150    1.2190 ca        1 2LO      0.135100
      4 O           1.6940    0.1060    2.3720 os        1 2LO     -0.312900
      5 C18         2.3600    0.4900    3.5700 c3        1 2LO      0.112700
      6 C14         3.7950    0.5130    1.1740 ca        1 2LO     -0.195000
      7 C13         4.4850    0.4970   -0.0340 ca        1 2LO     -0.089000
      8 C17         2.5150   -0.3140   -1.1670 ca        1 2LO     -0.096000
      9 C12         3.8530    0.0870   -1.2120 ca        1 2LO     -0.112300
     10 C11         4.6040    0.0660   -2.4970 c3        1 2LO     -0.032100
     11 C10         4.8140    1.4730   -3.0320 c3        1 2LO     -0.092700
     12 C9          5.6220    1.4430   -4.2910 cc        1 2LO      0.414800
     13 N1          5.0320    1.2670   -5.5750 na        1 2LO     -0.155300
     14 C19         3.6360    1.2380   -5.8750 c3        1 2LO      0.051300
     15 C20         2.9400    2.6290   -5.9780 c3        1 2LO      0.163500
     16 N2          3.4470    3.3920   -7.1140 n3        1 2LO     -0.728600
     17 C25         2.8560    3.0260   -8.3950 c3        1 2LO      0.136300
     18 C24         3.4470    3.8380   -9.5540 c3        1 2LO      0.125900
     19 O1          3.3470    5.2360   -9.3110 os        1 2LO     -0.413600
     20 C23         3.9740    5.6130   -8.0910 c3        1 2LO      0.125900
     21 C22         3.4120    4.8330   -6.8960 c3        1 2LO      0.136300
     22 C21         1.4320    2.3810   -5.9440 c3        1 2LO     -0.127100
     23 C6          6.0890    1.2930   -6.4950 ca        1 2LO     -0.048200
     24 C5          6.1470    1.1830   -7.8890 ca        1 2LO     -0.123000
     25 C4          7.3960    1.2100   -8.4880 ca        1 2LO     -0.106000
     26 N           6.9660    1.5320   -4.3440 nd        1 2LO     -0.567100
     27 C7          7.3020    1.4410   -5.7090 ca        1 2LO      0.062400
     28 C8          8.5460    1.4640   -6.3480 ca        1 2LO     -0.063000
     29 C3          8.5880    1.3440   -7.7390 ca        1 2LO     -0.033000
     30 C2          9.8610    1.3750   -8.4160 cc        1 2LO     -0.264600
     31 C26        10.9680    2.1600   -8.1270 cd        1 2LO      0.273000
     32 C27        11.2960    3.1760   -7.1300 c3        1 2LO     -0.141400
     33 O2         11.9780    1.8410   -9.0660 os        1 2LO     -0.120100
     34 N3         11.5500    0.9100   -9.8940 nd        1 2LO     -0.367300
     35 C1         10.2840    0.5710   -9.5750 cc        1 2LO      0.332600
     36 C           9.4670   -0.4450  -10.2640 c3        1 2LO     -0.134400
     37 H1          3.2150   -0.1950    3.7860 h1        1 2LO      0.048033
     38 H2          2.7090    1.5500    3.5050 h1        1 2LO      0.048033
     39 H3          1.5620    0.3850    4.3490 h1        1 2LO      0.048033
     40 H4          4.3120    0.8390    2.0870 ha        1 2LO      0.144000
     41 H5          5.5410    0.8090   -0.0620 ha        1 2LO      0.142000
     42 H6          2.0120   -0.6460   -2.0890 ha        1 2LO      0.144000
     43 H7          5.6050   -0.4220   -2.3370 hc        1 2LO      0.060200
     44 H8          4.0530   -0.5480   -3.2580 hc        1 2LO      0.060200
     45 H9          3.8230    1.9650   -3.2220 hc        1 2LO      0.068200
     46 H10         5.3560    2.0900   -2.2640 hc        1 2LO      0.068200
     47 H11         3.1170    0.6680   -5.0510 h1        1 2LO      0.062200
     48 H12         3.4960    0.6760   -6.8420 h1        1 2LO      0.062200
     49 H13         3.2080    3.2110   -5.0430 h1        1 2LO      0.063700
     50 H15         3.0610    1.9350   -8.5770 h1        1 2LO      0.039950
     51 H16         1.7360    3.1760   -8.3980 h1        1 2LO      0.039950
     52 H17         2.8480    3.6720  -10.4870 h1        1 2LO      0.056700
     53 H18         4.5200    3.5600   -9.7270 h1        1 2LO      0.056700
     54 H19         3.7390    6.7050   -7.9820 h1        1 2LO      0.056700
     55 H20         5.0820    5.4620   -8.1760 h1        1 2LO      0.056700
     56 H21         4.0450    5.0650   -5.9950 h1        1 2LO      0.039950
     57 H22         2.3630    5.1960   -6.6910 h1        1 2LO      0.039950
     58 H23         1.1450    1.9580   -4.9520 hc        1 2LO      0.045367
     59 H24         1.1250    1.6610   -6.7400 hc        1 2LO      0.045367
     60 H25         0.8750    3.3370   -6.0950 hc        1 2LO      0.045367
     61 H26         5.2310    1.0980   -8.4890 ha        1 2LO      0.136000
     62 H27         7.4680    1.1370   -9.5850 ha        1 2LO      0.136000
     63 H28         9.4720    1.5690   -5.7630 ha        1 2LO      0.148000
     64 H29        11.9550    3.9650   -7.5730 hc        1 2LO      0.067033
     65 H30        11.8380    2.7060   -6.2700 hc        1 2LO      0.067033
     66 H31        10.3560    3.6480   -6.7480 hc        1 2LO      0.067033
     67 H32         8.9110    0.0280  -11.1130 hc        1 2LO      0.058700
     68 H33        10.1010   -1.2690  -10.6750 hc        1 2LO      0.058700
     69 H34         8.7270   -0.8810   -9.5470 hc        1 2LO      0.058700
@<TRIPOS>BOND
     1    1    2 1   
     2    2    3 ar  
     3    2    8 ar  
     4    3    4 1   
     5    3    6 ar  
     6    4    5 1   
     7    5   37 1   
     8    5   38 1   
     9    5   39 1   
    10    6    7 ar  
    11    6   40 1   
    12    7    9 ar  
    13    7   41 1   
    14    8    9 ar  
    15    8   42 1   
    16    9   10 1   
    17   10   11 1   
    18   10   43 1   
    19   10   44 1   
    20   11   12 1   
    21   11   45 1   
    22   11   46 1   
    23   12   13 1   
    24   12   26 2   
    25   13   14 1   
    26   13   23 1   
    27   14   15 1   
    28   14   47 1   
    29   14   48 1   
    30   15   16 1   
    31   15   22 1   
    32   15   49 1   
    33   16   17 1   
    34   16   21 1   
    35   17   18 1   
    36   17   50 1   
    37   17   51 1   
    38   18   19 1   
    39   18   52 1   
    40   18   53 1   
    41   19   20 1   
    42   20   21 1   
    43   20   54 1   
    44   20   55 1   
    45   21   56 1   
    46   21   57 1   
    47   22   58 1   
    48   22   59 1   
    49   22   60 1   
    50   23   24 ar  
    51   23   27 ar  
    52   24   25 ar  
    53   24   61 1   
    54   25   29 ar  
    55   25   62 1   
    56   26   27 1   
    57   27   28 ar  
    58   28   29 ar  
    59   28   63 1   
    60   29   30 1   
    61   30   31 2   
    62   30   35 1   
    63   31   32 1   
    64   31   33 1   
    65   32   64 1   
    66   32   65 1   
    67   32   66 1   
    68   33   34 1   
    69   34   35 2   
    70   35   36 1   
    71   36   67 1   
    72   36   68 1   
    73   36   69 1   
@<TRIPOS>SUBSTRUCTURE
     1 2LO         1 TEMP              0 ****  ****    0 ROOT
