@<TRIPOS>MOLECULE
2LO
   69    73     1     0     0
SMALL
bcc


@<TRIPOS>ATOM
      1 CL          7.2860   -0.4320   -1.6070 cl        1 2LO     -0.073400
      2 C16         6.2760    0.5570   -0.6650 ca        1 2LO     -0.011600
      3 C15         6.7840    1.3700    0.3710 ca        1 2LO      0.135100
      4 O           8.1450    1.3190    0.5850 os        1 2LO     -0.312900
      5 C18         8.6580    2.1700    1.6050 c3        1 2LO      0.112700
      6 C14         5.9070    2.1700    1.1180 ca        1 2LO     -0.195000
      7 C13         4.5450    2.1590    0.8380 ca        1 2LO     -0.089000
      8 C17         4.9050    0.5580   -0.9320 ca        1 2LO     -0.096000
      9 C12         4.0320    1.3540   -0.1840 ca        1 2LO     -0.112300
     10 C11         2.5740    1.3560   -0.4800 c3        1 2LO     -0.032100
     11 C10         1.7980    0.5950    0.5840 c3        1 2LO     -0.092700
     12 C9          0.3290    0.6560    0.3090 cc        1 2LO      0.414800
     13 N1         -0.3310   -0.2760   -0.5410 na        1 2LO     -0.155300
     14 C19         0.2400   -1.4470   -1.1270 c3        1 2LO      0.051300
     15 C20         0.3350   -2.6900   -0.1920 c3        1 2LO      0.163500
     16 N2         -0.9900   -3.1860    0.1660 n3        1 2LO     -0.728600
     17 C25        -1.6120   -4.0250   -0.8490 c3        1 2LO      0.136300
     18 C24        -3.0130   -4.4910   -0.4310 c3        1 2LO      0.125900
     19 O1         -2.9880   -5.1350    0.8370 os        1 2LO     -0.413600
     20 C23        -2.4360   -4.3000    1.8500 c3        1 2LO      0.125900
     21 C22        -1.0290   -3.8120    1.4820 c3        1 2LO      0.136300
     22 C21         1.2750   -3.6900   -0.8660 c3        1 2LO     -0.127100
     23 C6         -1.6810    0.0970   -0.5530 ca        1 2LO     -0.048200
     24 C5         -2.8140   -0.4290   -1.1870 ca        1 2LO     -0.123000
     25 C4         -4.0180    0.2300   -1.0090 ca        1 2LO     -0.106000
     26 N          -0.5040    1.6020    0.7890 nd        1 2LO     -0.566100
     27 C7         -1.7760    1.2890    0.2710 ca        1 2LO      0.062400
     28 C8         -3.0100    1.9300    0.4270 ca        1 2LO     -0.063000
     29 C3         -4.1280    1.3980   -0.2180 ca        1 2LO     -0.033000
     30 C2         -5.4110    2.0390   -0.0600 cc        1 2LO     -0.264600
     31 C26        -5.9450    2.6230    1.0800 cd        1 2LO      0.273000
     32 C27        -5.4990    2.8230    2.4560 c3        1 2LO     -0.141400
     33 O2         -7.2280    3.1180    0.7480 os        1 2LO     -0.120100
     34 N3         -7.4950    2.8760   -0.5190 nd        1 2LO     -0.367300
     35 C1         -6.4540    2.2290   -1.0820 cc        1 2LO      0.332600
     36 C          -6.3710    1.7970   -2.4900 c3        1 2LO     -0.134400
     37 H1          9.7590    1.9680    1.5750 h1        1 2LO      0.048033
     38 H2          8.4470    3.2410    1.3710 h1        1 2LO      0.048033
     39 H3          8.2330    1.8930    2.6010 h1        1 2LO      0.048033
     40 H4          6.2870    2.8120    1.9260 ha        1 2LO      0.144000
     41 H5          3.8620    2.7920    1.4270 ha        1 2LO      0.142000
     42 H6          4.5110   -0.0730   -1.7440 ha        1 2LO      0.144000
     43 H7          2.2020    2.4160   -0.5210 hc        1 2LO      0.060200
     44 H8          2.3810    0.8960   -1.4860 hc        1 2LO      0.060200
     45 H9          2.1390   -0.4730    0.6200 hc        1 2LO      0.068200
     46 H10         2.0010    1.0480    1.5920 hc        1 2LO      0.068200
     47 H11        -0.3610   -1.7110   -2.0430 h1        1 2LO      0.062200
     48 H12         1.2920   -1.1940   -1.4500 h1        1 2LO      0.062200
     49 H13         0.8340   -2.3530    0.7690 h1        1 2LO      0.063700
     50 H15        -1.7000   -3.4240   -1.7960 h1        1 2LO      0.039950
     51 H16        -0.9910   -4.9410   -1.0730 h1        1 2LO      0.039950
     52 H17        -3.7260   -3.6260   -0.4020 h1        1 2LO      0.056700
     53 H18        -3.3840   -5.2780   -1.1380 h1        1 2LO      0.056700
     54 H19        -3.1210   -3.4310    2.0330 h1        1 2LO      0.056700
     55 H20        -2.3900   -4.9560    2.7580 h1        1 2LO      0.056700
     56 H21        -0.3180   -4.6860    1.5470 h1        1 2LO      0.039950
     57 H22        -0.7130   -3.0450    2.2430 h1        1 2LO      0.039950
     58 H23         2.3030   -3.2580   -0.9200 hc        1 2LO      0.045367
     59 H24         1.3220   -4.6400   -0.2800 hc        1 2LO      0.045367
     60 H25         0.9330   -3.9270   -1.9020 hc        1 2LO      0.045367
     61 H26        -2.7500   -1.3460   -1.7880 ha        1 2LO      0.136000
     62 H27        -4.9270   -0.1700   -1.4870 ha        1 2LO      0.136000
     63 H28        -3.0930    2.8370    1.0440 ha        1 2LO      0.148000
     64 H29        -5.0480    3.8430    2.5670 hc        1 2LO      0.067033
     65 H30        -6.3600    2.7390    3.1660 hc        1 2LO      0.067033
     66 H31        -4.7250    2.0580    2.7190 hc        1 2LO      0.067033
     67 H32        -6.8060    0.7710   -2.5980 hc        1 2LO      0.058700
     68 H33        -6.9340    2.4900   -3.1640 hc        1 2LO      0.058700
     69 H34        -5.3000    1.7700   -2.8120 hc        1 2LO      0.058700
@<TRIPOS>BOND
     1    1    2 1   
     2    2    3 ar  
     3    2    8 ar  
     4    3    4 1   
     5    3    6 ar  
     6    4    5 1   
     7    5   37 1   
     8    5   38 1   
     9    5   39 1   
    10    6    7 ar  
    11    6   40 1   
    12    7    9 ar  
    13    7   41 1   
    14    8    9 ar  
    15    8   42 1   
    16    9   10 1   
    17   10   11 1   
    18   10   43 1   
    19   10   44 1   
    20   11   12 1   
    21   11   45 1   
    22   11   46 1   
    23   12   13 1   
    24   12   26 2   
    25   13   14 1   
    26   13   23 1   
    27   14   15 1   
    28   14   47 1   
    29   14   48 1   
    30   15   16 1   
    31   15   22 1   
    32   15   49 1   
    33   16   17 1   
    34   16   21 1   
    35   17   18 1   
    36   17   50 1   
    37   17   51 1   
    38   18   19 1   
    39   18   52 1   
    40   18   53 1   
    41   19   20 1   
    42   20   21 1   
    43   20   54 1   
    44   20   55 1   
    45   21   56 1   
    46   21   57 1   
    47   22   58 1   
    48   22   59 1   
    49   22   60 1   
    50   23   24 ar  
    51   23   27 ar  
    52   24   25 ar  
    53   24   61 1   
    54   25   29 ar  
    55   25   62 1   
    56   26   27 1   
    57   27   28 ar  
    58   28   29 ar  
    59   28   63 1   
    60   29   30 1   
    61   30   31 2   
    62   30   35 1   
    63   31   32 1   
    64   31   33 1   
    65   32   64 1   
    66   32   65 1   
    67   32   66 1   
    68   33   34 1   
    69   34   35 2   
    70   35   36 1   
    71   36   67 1   
    72   36   68 1   
    73   36   69 1   
@<TRIPOS>SUBSTRUCTURE
     1 2LO         1 TEMP              0 ****  ****    0 ROOT
