@<TRIPOS>MOLECULE
2LP
   20    20     1     0     0
SMALL
bcc


@<TRIPOS>ATOM
      1 C1          0.1190    0.0120   -0.0650 ca        1 2LP     -0.095300
      2 C2          1.4980   -0.2540    0.0590 ca        1 2LP      0.127100
      3 C3         -0.6160    0.2340    1.1030 ca        1 2LP     -0.099000
      4 C4         -0.5460    0.0420   -1.3970 c3        1 2LP     -0.003900
      5 C5          2.1170   -0.2910    1.3180 ca        1 2LP     -0.211000
      6 O6          2.2050   -0.4820   -1.1020 oh        1 2LP     -0.499100
      7 C7         -0.0070    0.1990    2.3560 ca        1 2LP     -0.162000
      8 C8          1.3580   -0.0620    2.4620 ca        1 2LP     -0.094000
      9 C13        -1.0890    1.3870   -1.7250 c2        1 2LP     -0.159200
     10 C14        -0.9710    1.9580   -2.9210 c2        1 2LP     -0.222000
     11 HC3        -1.6950    0.4380    1.0230 ha        1 2LP      0.134000
     12 HC41       -1.4000   -0.6930   -1.3900 hc        1 2LP      0.063700
     13 HC42        0.1740   -0.2950   -2.1920 hc        1 2LP      0.063700
     14 HC5         3.1930   -0.4980    1.3960 ha        1 2LP      0.132000
     15 HO6         3.1310   -0.6310   -0.8600 ho        1 2LP      0.419000
     16 HC7        -0.6060    0.3760    3.2610 ha        1 2LP      0.133000
     17 HC8         1.8400   -0.0890    3.4510 ha        1 2LP      0.132000
     18 H13        -1.6160    1.8920   -0.8990 ha        1 2LP      0.118000
     19 H141       -0.4430    1.4830   -3.7590 ha        1 2LP      0.111500
     20 H142       -1.3980    2.9450   -3.1420 ha        1 2LP      0.111500
@<TRIPOS>BOND
     1    1    2 ar  
     2    1    3 ar  
     3    1    4 1   
     4    2    5 ar  
     5    2    6 1   
     6    3    7 ar  
     7    3   11 1   
     8    4    9 1   
     9    4   12 1   
    10    4   13 1   
    11    5    8 ar  
    12    5   14 1   
    13    6   15 1   
    14    7    8 ar  
    15    7   16 1   
    16    8   17 1   
    17    9   10 2   
    18    9   18 1   
    19   10   19 1   
    20   10   20 1   
@<TRIPOS>SUBSTRUCTURE
     1 2LP         1 TEMP              0 ****  ****    0 ROOT
