@<TRIPOS>MOLECULE
2LP
   20    20     1     0     0
SMALL
bcc


@<TRIPOS>ATOM
      1 C1          0.1230    0.0090   -0.0710 ca        1 2LP     -0.095300
      2 C2          1.5050   -0.2440    0.0450 ca        1 2LP      0.127100
      3 C3         -0.6120    0.2020    1.1020 ca        1 2LP     -0.099000
      4 C4         -0.5460    0.0550   -1.4010 c3        1 2LP     -0.003900
      5 C5          2.1270   -0.2950    1.3020 ca        1 2LP     -0.211000
      6 O6          2.2120   -0.4440   -1.1210 oh        1 2LP     -0.499100
      7 C7          0.0010    0.1510    2.3530 ca        1 2LP     -0.162000
      8 C8          1.3690   -0.0960    2.4510 ca        1 2LP     -0.094000
      9 C13        -1.1040    1.3990   -1.7040 c2        1 2LP     -0.159200
     10 C14        -0.9940    1.9930   -2.8900 c2        1 2LP     -0.222000
     11 HC3        -1.6930    0.3960    1.0280 ha        1 2LP      0.134000
     12 HC41       -1.3920   -0.6900   -1.4050 hc        1 2LP      0.063700
     13 HC42        0.1760   -0.2610   -2.2040 hc        1 2LP      0.063700
     14 HC5         3.2060   -0.4920    1.3730 ha        1 2LP      0.132000
     15 HO6         3.1390   -0.5870   -0.8850 ho        1 2LP      0.419000
     16 HC7        -0.5970    0.3070    3.2620 ha        1 2LP      0.133000
     17 HC8         1.8540   -0.1340    3.4380 ha        1 2LP      0.132000
     18 H13        -1.6350    1.8830   -0.8680 ha        1 2LP      0.118000
     19 H141       -0.4610    1.5390   -3.7360 ha        1 2LP      0.111500
     20 H142       -1.4320    2.9790   -3.0930 ha        1 2LP      0.111500
@<TRIPOS>BOND
     1    1    2 ar  
     2    1    3 ar  
     3    1    4 1   
     4    2    5 ar  
     5    2    6 1   
     6    3    7 ar  
     7    3   11 1   
     8    4    9 1   
     9    4   12 1   
    10    4   13 1   
    11    5    8 ar  
    12    5   14 1   
    13    6   15 1   
    14    7    8 ar  
    15    7   16 1   
    16    8   17 1   
    17    9   10 2   
    18    9   18 1   
    19   10   19 1   
    20   10   20 1   
@<TRIPOS>SUBSTRUCTURE
     1 2LP         1 TEMP              0 ****  ****    0 ROOT
