@<TRIPOS>MOLECULE
2LP
   20    20     1     0     0
SMALL
bcc


@<TRIPOS>ATOM
      1 C1         -0.4340   -0.3470    0.0470 ca        1 2LP     -0.158300
      2 C2          0.8510   -0.0040    0.5090 ca        1 2LP      0.134100
      3 C3         -1.4940   -0.3320    0.9620 ca        1 2LP     -0.092000
      4 C4         -0.6720   -0.7480   -1.3670 c3        1 2LP     -0.011900
      5 C5          1.0700    0.3330    1.8570 ca        1 2LP     -0.157000
      6 O6          1.9680    0.0040   -0.2940 oh        1 2LP     -0.503100
      7 C7         -1.2830    0.0040    2.2960 ca        1 2LP     -0.165000
      8 C8         -0.0010    0.3330    2.7410 ca        1 2LP     -0.099000
      9 C13        -0.5180    0.3870   -2.3160 c2        1 2LP     -0.171200
     10 C14         0.2490    0.3430   -3.4020 c2        1 2LP     -0.228000
     11 HC3        -2.5060   -0.5940    0.6180 ha        1 2LP      0.131000
     12 HC41        0.0300   -1.5850   -1.6350 hc        1 2LP      0.058200
     13 HC42       -1.7170   -1.1540   -1.4740 hc        1 2LP      0.058200
     14 HC5         2.0870    0.5890    2.1870 ha        1 2LP      0.150000
     15 HO6         1.6790   -0.0520   -1.2180 ho        1 2LP      0.426000
     16 HC7        -2.1270    0.0100    3.0000 ha        1 2LP      0.133000
     17 HC8         0.1640    0.5950    3.7970 ha        1 2LP      0.134000
     18 H13        -1.1030    1.2870   -2.0620 ha        1 2LP      0.131000
     19 H141        0.3300    1.1890   -4.0970 ha        1 2LP      0.115000
     20 H142        0.8430   -0.5390   -3.6780 ha        1 2LP      0.115000
@<TRIPOS>BOND
     1    1    2 ar  
     2    1    3 ar  
     3    1    4 1   
     4    2    5 ar  
     5    2    6 1   
     6    3    7 ar  
     7    3   11 1   
     8    4    9 1   
     9    4   12 1   
    10    4   13 1   
    11    5    8 ar  
    12    5   14 1   
    13    6   15 1   
    14    7    8 ar  
    15    7   16 1   
    16    8   17 1   
    17    9   10 2   
    18    9   18 1   
    19   10   19 1   
    20   10   20 1   
@<TRIPOS>SUBSTRUCTURE
     1 2LP         1 TEMP              0 ****  ****    0 ROOT
