@<TRIPOS>MOLECULE
2LP
   20    16     1     0     0
SMALL
bcc


@<TRIPOS>ATOM
      1 C1         -0.0880   -0.3220    0.1730 c1        1 2LP     -0.089000
      2 C2          1.2980   -0.3470    0.1890 c1        1 2LP      0.075000
      3 C3         -0.7950   -0.2980    1.3650 c1        1 2LP     -0.097000
      4 C4         -0.8300   -0.3830   -1.1440 c3        1 2LP     -0.094000
      5 C5          1.9770   -0.3470    1.3970 c1        1 2LP     -0.210000
      6 O6          2.0150   -0.3480   -1.0210 oh        1 2LP     -0.254000
      7 C7         -0.1150   -0.2980    2.5730 c1        1 2LP     -0.129000
      8 C8          1.2700   -0.3230    2.5890 c1        1 2LP     -0.129000
      9 C13        -1.1080    1.0220   -1.6320 c2        1 2LP     -0.158000
     10 C14        -1.7830    1.2140   -2.7830 c1        1 2LP     -0.227000
     11 HC3        -1.7710   -0.2800    1.3540 ha        1 2LP      0.140000
     12 HC41       -0.2840   -0.8560   -1.8040 hc        1 2LP      0.106000
     13 HC42       -1.6760   -0.8590   -1.0200 hc        1 2LP      0.106000
     14 HC5         2.9530   -0.3650    1.4090 ha        1 2LP      0.132000
     15 HO6         2.6560   -0.9630   -0.9850 ho        1 2LP      0.218000
     16 HC7        -0.6130   -0.2810    3.4130 ha        1 2LP      0.132500
     17 HC8         1.7490   -0.3230    3.4400 ha        1 2LP      0.132500
     18 H13        -0.7980    1.7890   -1.1140 ha        1 2LP      0.123000
     19 H141       -2.0930    0.4450   -3.3020 DU        1 2LP      0.111000
     20 H142       -1.9630    2.1220   -3.0980 ha        1 2LP      0.111000
@<TRIPOS>BOND
     1    1    3 1   
     2    1    4 1   
     3    2    5 1   
     4    2    6 1   
     5    3   11 1   
     6    4    9 1   
     7    4   12 1   
     8    4   13 1   
     9    5   14 1   
    10    6   15 1   
    11    7    8 1   
    12    7   16 1   
    13    8   17 1   
    14    9   10 1   
    15    9   18 1   
    16   10   20 1   
@<TRIPOS>SUBSTRUCTURE
     1 2LP         1 TEMP              0 ****  ****    0 ROOT
