@<TRIPOS>MOLECULE
2LQ
   47    48     1     0     0
SMALL
bcc


@<TRIPOS>ATOM
      1 O01        -0.0240    0.9360    0.1220 o         1 2LQ     -0.589100
      2 C02         1.0300    0.2780    0.1240 c         1 2LQ      0.664100
      3 C03         1.8960    0.1240    1.3820 c3        1 2LQ     -0.121700
      4 C04         0.9960    0.0890    2.6240 c3        1 2LQ     -0.075400
      5 C05         1.0380   -1.2190    3.4040 c3        1 2LQ     -0.076400
      6 C06         2.2310   -1.3450    4.3590 c3        1 2LQ     -0.047200
      7 C07         3.4170   -0.8920    3.5950 c2        1 2LQ     -0.173200
      8 C08         3.6920    0.4160    3.4880 c2        1 2LQ     -0.178200
      9 C09         4.1670    0.9850    2.2050 c3        1 2LQ     -0.043200
     10 C10         2.9110    1.2730    1.3750 c3        1 2LQ     -0.074400
     11 N11         1.5110   -0.3510   -1.0210 ns        1 2LQ     -0.477100
     12 C12         0.9180   -0.3570   -2.2920 ca        1 2LQ      0.075600
     13 C13        -0.4370   -0.0230   -2.5080 ca        1 2LQ     -0.164500
     14 C14        -0.9700   -0.0590   -3.7920 ca        1 2LQ     -0.113500
     15 C15         1.7030   -0.7400   -3.4080 ca        1 2LQ     -0.164500
     16 C16         1.1520   -0.7690   -4.6820 ca        1 2LQ     -0.113500
     17 C17        -0.1870   -0.4190   -4.8940 ca        1 2LQ     -0.143300
     18 C18        -0.7640   -0.4360   -6.2630 c3        1 2LQ     -0.045100
     19 C19        -0.4340    0.8280   -7.0450 c3        1 2LQ     -0.067500
     20 C20        -1.1100    0.7220   -8.4970 c         1 2LQ      0.935600
     21 O21        -0.6440   -0.1680   -9.2260 o         1 2LQ     -0.758300
     22 O22        -2.0220    1.5620   -8.7130 o         1 2LQ     -0.758300
     23 N23        -0.9200    2.0670   -6.3640 nz        1 2LQ     -0.835600
     24 H031        2.4630   -0.8480    1.3260 hc        1 2LQ      0.067700
     25 H042       -0.0690    0.2710    2.3130 hc        1 2LQ      0.064200
     26 H041        1.2730    0.9340    3.3080 hc        1 2LQ      0.064200
     27 H051        1.0520   -2.0820    2.6880 hc        1 2LQ      0.044700
     28 H052        0.0980   -1.3010    4.0090 hc        1 2LQ      0.044700
     29 H062        2.0590   -0.7100    5.2660 hc        1 2LQ      0.050200
     30 H061        2.3310   -2.4070    4.6990 hc        1 2LQ      0.050200
     31 H071        3.8860   -1.6410    2.9380 ha        1 2LQ      0.119000
     32 H081        3.3450    1.1450    4.2380 ha        1 2LQ      0.127000
     33 H092        4.8310    0.2680    1.6560 hc        1 2LQ      0.049200
     34 H091        4.7390    1.9360    2.3530 hc        1 2LQ      0.049200
     35 H102        3.2320    1.4840    0.3210 hc        1 2LQ      0.051700
     36 H101        2.4140    2.1990    1.7660 hc        1 2LQ      0.051700
     37 H111        2.4010   -0.7940   -0.9600 hn        1 2LQ      0.318500
     38 H131       -1.0840    0.2660   -1.6630 ha        1 2LQ      0.154500
     39 H141       -2.0380    0.1730   -3.9310 ha        1 2LQ      0.138000
     40 H151        2.7580   -1.0260   -3.2770 ha        1 2LQ      0.154500
     41 H161        1.7740   -1.0760   -5.5380 ha        1 2LQ      0.138000
     42 H181       -1.8770   -0.5820   -6.2200 hc        1 2LQ      0.091200
     43 H182       -0.3450   -1.2910   -6.8660 hc        1 2LQ      0.091200
     44 H191        0.6780    0.9180   -7.1830 hx        1 2LQ      0.087700
     45 H232       -1.1770    1.8800   -5.3950 hn        1 2LQ      0.445133
     46 H231       -1.7560    2.3840   -6.9070 hn        1 2LQ      0.445133
     47 H233       -0.2110    2.7930   -6.3980 hn        1 2LQ      0.445133
@<TRIPOS>BOND
     1    1    2 2   
     2    2    3 1   
     3    2   11 1   
     4    3    4 1   
     5    3   10 1   
     6    3   24 1   
     7    4    5 1   
     8    4   25 1   
     9    4   26 1   
    10    5    6 1   
    11    5   27 1   
    12    5   28 1   
    13    6    7 1   
    14    6   29 1   
    15    6   30 1   
    16    7    8 2   
    17    7   31 1   
    18    8    9 1   
    19    8   32 1   
    20    9   10 1   
    21    9   33 1   
    22    9   34 1   
    23   10   35 1   
    24   10   36 1   
    25   11   12 1   
    26   11   37 1   
    27   12   13 ar  
    28   12   15 ar  
    29   13   14 ar  
    30   13   38 1   
    31   14   17 ar  
    32   14   39 1   
    33   15   16 ar  
    34   15   40 1   
    35   16   17 ar  
    36   16   41 1   
    37   17   18 1   
    38   18   19 1   
    39   18   42 1   
    40   18   43 1   
    41   19   20 1   
    42   19   23 1   
    43   19   44 1   
    44   20   21 1   
    45   20   22 1   
    46   23   45 1   
    47   23   46 1   
    48   23   47 1   
@<TRIPOS>SUBSTRUCTURE
     1 2LQ         1 TEMP              0 ****  ****    0 ROOT
