@<TRIPOS>MOLECULE
2LQ
   47    48     1     0     0
SMALL
bcc


@<TRIPOS>ATOM
      1 O01        -0.0330    0.9140    0.1290 o         1 2LQ     -0.589100
      2 C02         1.0320    0.2730    0.1250 c         1 2LQ      0.664100
      3 C03         1.9060    0.1320    1.3800 c3        1 2LQ     -0.121700
      4 C04         1.0120    0.0770    2.6260 c3        1 2LQ     -0.075400
      5 C05         1.0810   -1.2310    3.4010 c3        1 2LQ     -0.076400
      6 C06         2.2810   -1.3380    4.3510 c3        1 2LQ     -0.047200
      7 C07         3.4540   -0.8620    3.5830 c2        1 2LQ     -0.173200
      8 C08         3.7060    0.4510    3.4780 c2        1 2LQ     -0.178200
      9 C09         4.1640    1.0320    2.1950 c3        1 2LQ     -0.043200
     10 C10         2.9000    1.3000    1.3710 c3        1 2LQ     -0.074400
     11 N11         1.5180   -0.3460   -1.0230 n         1 2LQ     -0.477100
     12 C12         0.9200   -0.3590   -2.2910 ca        1 2LQ      0.075600
     13 C13        -0.4410   -0.0460   -2.5010 ca        1 2LQ     -0.164500
     14 C14        -0.9790   -0.0890   -3.7830 ca        1 2LQ     -0.113500
     15 C15         1.7060   -0.7290   -3.4110 ca        1 2LQ     -0.164500
     16 C16         1.1490   -0.7650   -4.6820 ca        1 2LQ     -0.113500
     17 C17        -0.1950   -0.4360   -4.8880 ca        1 2LQ     -0.143300
     18 C18        -0.7780   -0.4610   -6.2550 c3        1 2LQ     -0.045100
     19 C19        -0.4700    0.8090   -7.0370 c3        1 2LQ     -0.067500
     20 C20        -1.1500    0.6940   -8.4870 c         1 2LQ      0.935600
     21 O21        -0.6740   -0.1880   -9.2180 o         1 2LQ     -0.758300
     22 O22        -2.0760    1.5210   -8.6980 o         1 2LQ     -0.758300
     23 N23        -0.9710    2.0400   -6.3530 n4        1 2LQ     -0.835600
     24 H031        2.4900   -0.8300    1.3190 hc        1 2LQ      0.067700
     25 H042       -0.0570    0.2410    2.3190 hc        1 2LQ      0.063700
     26 H041        1.2770    0.9250    3.3110 hc        1 2LQ      0.063700
     27 H051        1.1070   -2.0920    2.6830 hc        1 2LQ      0.044700
     28 H052        0.1450   -1.3320    4.0110 hc        1 2LQ      0.044700
     29 H062        2.1010   -0.7090    5.2610 hc        1 2LQ      0.050200
     30 H061        2.4010   -2.3990    4.6880 hc        1 2LQ      0.050200
     31 H071        3.9340   -1.6010    2.9220 ha        1 2LQ      0.119000
     32 H081        3.3490    1.1710    4.2320 ha        1 2LQ      0.127000
     33 H092        4.8390    0.3280    1.6420 hc        1 2LQ      0.049200
     34 H091        4.7200    1.9920    2.3430 hc        1 2LQ      0.049200
     35 H102        3.2130    1.5180    0.3170 hc        1 2LQ      0.051700
     36 H101        2.3880    2.2150    1.7670 hc        1 2LQ      0.051700
     37 H111        2.4150   -0.7740   -0.9660 hn        1 2LQ      0.318500
     38 H131       -1.0890    0.2320   -1.6530 ha        1 2LQ      0.154500
     39 H141       -2.0510    0.1270   -3.9170 ha        1 2LQ      0.138000
     40 H151        2.7660   -0.9990   -3.2840 ha        1 2LQ      0.154500
     41 H161        1.7730   -1.0620   -5.5410 ha        1 2LQ      0.138000
     42 H181       -1.8880   -0.6230   -6.2070 hc        1 2LQ      0.091200
     43 H182       -0.3490   -1.3090   -6.8600 hc        1 2LQ      0.091200
     44 H191        0.6400    0.9150   -7.1800 hx        1 2LQ      0.087700
     45 H232       -1.8140    2.3460   -6.8920 hn        1 2LQ      0.445133
     46 H231       -0.2730    2.7770   -6.3890 hn        1 2LQ      0.445133
     47 H233       -1.2220    1.8480   -5.3830 hn        1 2LQ      0.445133
@<TRIPOS>BOND
     1    1    2 2   
     2    2    3 1   
     3    2   11 1   
     4    3    4 1   
     5    3   10 1   
     6    3   24 1   
     7    4    5 1   
     8    4   25 1   
     9    4   26 1   
    10    5    6 1   
    11    5   27 1   
    12    5   28 1   
    13    6    7 1   
    14    6   29 1   
    15    6   30 1   
    16    7    8 2   
    17    7   31 1   
    18    8    9 1   
    19    8   32 1   
    20    9   10 1   
    21    9   33 1   
    22    9   34 1   
    23   10   35 1   
    24   10   36 1   
    25   11   12 1   
    26   11   37 1   
    27   12   13 ar  
    28   12   15 ar  
    29   13   14 ar  
    30   13   38 1   
    31   14   17 ar  
    32   14   39 1   
    33   15   16 ar  
    34   15   40 1   
    35   16   17 ar  
    36   16   41 1   
    37   17   18 1   
    38   18   19 1   
    39   18   42 1   
    40   18   43 1   
    41   19   20 1   
    42   19   23 1   
    43   19   44 1   
    44   20   21 1   
    45   20   22 1   
    46   23   45 1   
    47   23   46 1   
    48   23   47 1   
@<TRIPOS>SUBSTRUCTURE
     1 2LQ         1 TEMP              0 ****  ****    0 ROOT
