@<TRIPOS>MOLECULE
2LQ
   48    49     1     0     0
SMALL
bcc


@<TRIPOS>ATOM
      1 O01         0.4180    2.7400    1.2990 o         1 2LQ     -0.415100
      2 C02         1.1980    1.9810    0.7500 c         1 2LQ      0.553100
      3 C03         1.8160    0.6920    1.2480 c3        1 2LQ     -0.113700
      4 C04         0.8590    0.0250    2.2500 c3        1 2LQ     -0.080400
      5 C05         0.3070   -1.3200    1.7940 c3        1 2LQ     -0.078400
      6 C06         1.2640   -2.4980    2.0070 c3        1 2LQ     -0.052200
      7 C07         2.5940   -2.0340    1.5470 c2        1 2LQ     -0.168200
      8 C08         3.3710   -1.3050    2.3610 c2        1 2LQ     -0.183200
      9 C09         4.1530   -0.1630    1.8350 c3        1 2LQ     -0.043200
     10 C10         3.1970    1.0370    1.8300 c3        1 2LQ     -0.081400
     11 N11         1.6340    2.4300   -0.6430 n4        1 2LQ     -0.552200
     12 C12         0.9320    1.6960   -1.6990 ca        1 2LQ     -0.057400
     13 C13         1.5480    0.5840   -2.3000 ca        1 2LQ     -0.098000
     14 C14         0.9060   -0.0610   -3.3520 ca        1 2LQ     -0.082500
     15 C15        -0.3310    2.1370   -2.1310 ca        1 2LQ     -0.098000
     16 C16        -0.9540    1.4810   -3.1900 ca        1 2LQ     -0.082500
     17 C17        -0.3350    0.3960   -3.8210 ca        1 2LQ     -0.016300
     18 C18        -0.9660   -0.2690   -4.9960 c3        1 2LQ     -0.047100
     19 C19        -0.2950    0.1910   -6.2910 c3        1 2LQ     -0.080500
     20 C20         1.2930   -0.0770   -6.1910 c         1 2LQ      0.924600
     21 O21         1.6230   -1.2510   -6.4890 o         1 2LQ     -0.749800
     22 O22         1.9730    0.8950   -5.8270 o         1 2LQ     -0.749800
     23 N23        -0.7950   -0.5690   -7.4760 n4        1 2LQ     -0.825600
     24 H031        1.9570    0.0020    0.3640 hc        1 2LQ      0.099700
     25 H042       -0.0110    0.7080    2.4520 hc        1 2LQ      0.075200
     26 H041        1.3910   -0.1080    3.2300 hc        1 2LQ      0.075200
     27 H051        0.0270   -1.2660    0.7100 hc        1 2LQ      0.052700
     28 H052       -0.6330   -1.5250    2.3730 hc        1 2LQ      0.052700
     29 H062        0.9020   -3.3850    1.4270 hc        1 2LQ      0.065700
     30 H061        1.2790   -2.7840    3.0920 hc        1 2LQ      0.065700
     31 H071        2.7940   -2.1210    0.4680 ha        1 2LQ      0.122000
     32 H081        3.2830   -1.3650    3.4580 ha        1 2LQ      0.140000
     33 H092        5.0370    0.0770    2.4810 hc        1 2LQ      0.065700
     34 H091        4.5310   -0.3590    0.7980 hc        1 2LQ      0.065700
     35 H102        3.6740    1.8610    1.2380 hc        1 2LQ      0.054700
     36 H101        3.0670    1.4070    2.8810 hc        1 2LQ      0.054700
     37 H111        2.6440    2.2770   -0.7460 hn        1 2LQ      0.462300
     38 H131        2.5420    0.2300   -1.9810 ha        1 2LQ      0.157500
     39 H141        1.4090   -0.9080   -3.8590 ha        1 2LQ      0.178000
     40 H151       -0.8310    2.9980   -1.6570 ha        1 2LQ      0.157500
     41 H161       -1.9370    1.8380   -3.5370 ha        1 2LQ      0.178000
     42 H181       -2.0650   -0.0370   -5.0210 hc        1 2LQ      0.065700
     43 H182       -0.8480   -1.3830   -4.8860 hc        1 2LQ      0.065700
     44 H191       -0.4720    1.2860   -6.4630 hx        1 2LQ      0.102700
     45 H232       -0.6330   -0.0220   -8.3210 hn        1 2LQ      0.452800
     46 H231       -0.2200   -1.4370   -7.5280 hn        1 2LQ      0.452800
     47 H112        1.4340    3.4340   -0.7550 hn        1 2LQ      0.462300
     48 H233       -1.7810   -0.8070   -7.3960 hn        1 2LQ      0.452800
@<TRIPOS>BOND
     1    1    2 2   
     2    2    3 1   
     3    2   11 1   
     4    3    4 1   
     5    3   10 1   
     6    3   24 1   
     7    4    5 1   
     8    4   25 1   
     9    4   26 1   
    10    5    6 1   
    11    5   27 1   
    12    5   28 1   
    13    6    7 1   
    14    6   29 1   
    15    6   30 1   
    16    7    8 2   
    17    7   31 1   
    18    8    9 1   
    19    8   32 1   
    20    9   10 1   
    21    9   33 1   
    22    9   34 1   
    23   10   35 1   
    24   10   36 1   
    25   11   12 1   
    26   11   37 1   
    27   11   47 1   
    28   12   13 ar  
    29   12   15 ar  
    30   13   14 ar  
    31   13   38 1   
    32   14   17 ar  
    33   14   39 1   
    34   15   16 ar  
    35   15   40 1   
    36   16   17 ar  
    37   16   41 1   
    38   17   18 1   
    39   18   19 1   
    40   18   42 1   
    41   18   43 1   
    42   19   20 1   
    43   19   23 1   
    44   19   44 1   
    45   20   21 1   
    46   20   22 1   
    47   23   45 1   
    48   23   46 1   
    49   23   48 1   
@<TRIPOS>SUBSTRUCTURE
     1 2LQ         1 TEMP              0 ****  ****    0 ROOT
