@<TRIPOS>MOLECULE
2LS
   32    32     1     0     0
SMALL
bcc


@<TRIPOS>ATOM
      1 C26         0.0190    0.1680   -0.0760 c3        1 2LS     -0.114400
      2 C28        -2.0770    0.3550   -1.3730 c3        1 2LS     -0.101600
      3 C33         2.0440    0.1360    1.4230 c3        1 2LS      0.140100
      4 C34         3.5510    0.3280    1.4430 cx        1 2LS      0.013800
      5 C45         3.9950    1.7430    1.2480 c3        1 2LS     -0.093100
      6 O40         4.2990   -0.6650    0.7020 os        1 2LS     -0.447600
      7 C35         4.4420   -0.6530    2.1310 cx        1 2LS      0.101400
      8 O43         1.6360   -0.9860    2.1890 oh        1 2LS     -0.621800
      9 C25         1.5240   -0.0990   -0.0220 c3        1 2LS      0.133500
     10 C27        -0.6190   -0.0630   -1.4380 c3        1 2LS     -0.077700
     11 C29         0.0910    0.6940   -2.5390 c3        1 2LS     -0.101600
     12 N24         1.8620   -1.4820   -0.4970 n4        1 2LS     -0.836600
     13 H14        -0.1310    1.2440    0.2160 hc        1 2LS      0.088700
     14 H15        -0.4990   -0.4640    0.6960 hc        1 2LS      0.088700
     15 H16        -2.5840    0.1210   -2.3410 hc        1 2LS      0.050700
     16 H17        -2.6060   -0.1900   -0.5550 hc        1 2LS      0.050700
     17 H18        -2.1630    1.4530   -1.1870 hc        1 2LS      0.050700
     18 H19         1.5570    1.0760    1.8140 h1        1 2LS      0.098700
     19 H20         3.4870    2.1980    0.3620 hc        1 2LS      0.068367
     20 H21         3.7460    2.3450    2.1570 hc        1 2LS      0.068367
     21 H22         5.1000    1.7860    1.0810 hc        1 2LS      0.068367
     22 H23         4.0160   -1.5390    2.6410 h1        1 2LS      0.104700
     23 H24         5.4420   -0.3390    2.4890 h1        1 2LS      0.104700
     24 H25         1.7310   -0.7550    3.1240 ho        1 2LS      0.451000
     25 H26         2.0680    0.6220   -0.7060 hx        1 2LS      0.118700
     26 H27        -0.5960   -1.1640   -1.6790 hc        1 2LS      0.032700
     27 H28         0.1770    1.7780   -2.2830 hc        1 2LS      0.050700
     28 H29         1.1160    0.2880   -2.7170 hc        1 2LS      0.050700
     29 H30        -0.4850    0.6080   -3.4940 hc        1 2LS      0.050700
     30 H31         1.5370   -1.6040   -1.4590 hn        1 2LS      0.469133
     31 H2          1.4010   -2.1660    0.1140 hn        1 2LS      0.469133
     32 H243        2.8820   -1.6250   -0.4440 hn        1 2LS      0.469133
@<TRIPOS>BOND
     1    1    9 1   
     2    1   10 1   
     3    1   13 1   
     4    1   14 1   
     5    2   10 1   
     6    2   15 1   
     7    2   16 1   
     8    2   17 1   
     9    3    4 1   
    10    3    8 1   
    11    3    9 1   
    12    3   18 1   
    13    4    5 1   
    14    4    6 1   
    15    4    7 1   
    16    5   19 1   
    17    5   20 1   
    18    5   21 1   
    19    6    7 1   
    20    7   22 1   
    21    7   23 1   
    22    8   24 1   
    23    9   12 1   
    24    9   25 1   
    25   10   11 1   
    26   10   26 1   
    27   11   27 1   
    28   11   28 1   
    29   11   29 1   
    30   12   30 1   
    31   12   31 1   
    32   12   32 1   
@<TRIPOS>SUBSTRUCTURE
     1 2LS         1 TEMP              0 ****  ****    0 ROOT
