@<TRIPOS>MOLECULE
2LS
   32    32     1     0     0
SMALL
bcc


@<TRIPOS>ATOM
      1 C26         0.0190    0.1800   -0.0670 c3        1 2LS     -0.114400
      2 C28        -2.0890    0.3070   -1.3530 c3        1 2LS     -0.101600
      3 C33         2.0590    0.2240    1.4110 c3        1 2LS      0.140100
      4 C34         3.5690    0.3950    1.4020 cx        1 2LS      0.013800
      5 C45         4.0300    1.7870    1.1040 c3        1 2LS     -0.093100
      6 O40         4.2950   -0.6580    0.7250 os        1 2LS     -0.447600
      7 C35         4.4530   -0.5490    2.1480 cx        1 2LS      0.101400
      8 O43         1.6440   -0.8360    2.2570 oh        1 2LS     -0.621800
      9 C25         1.5200   -0.1040   -0.0090 c3        1 2LS      0.133500
     10 C27        -0.6380   -0.1350   -1.4030 c3        1 2LS     -0.077700
     11 C29         0.0700    0.5340   -2.5620 c3        1 2LS     -0.101600
     12 N24         1.8340   -1.5210   -0.3900 n4        1 2LS     -0.836600
     13 H14        -0.5000   -0.3880    0.7520 hc        1 2LS      0.088700
     14 H15        -0.1130    1.2760    0.1500 hc        1 2LS      0.088700
     15 H16        -2.6100    0.0140   -2.2970 hc        1 2LS      0.050700
     16 H17        -2.6160   -0.1720   -0.4930 hc        1 2LS      0.050700
     17 H18        -2.1590    1.4160   -1.2420 hc        1 2LS      0.050700
     18 H19         1.5900    1.1960    1.7390 h1        1 2LS      0.098700
     19 H20         3.5200    2.1860    0.1940 hc        1 2LS      0.068367
     20 H21         5.1330    1.8010    0.9240 hc        1 2LS      0.068367
     21 H22         3.7980    2.4540    1.9710 hc        1 2LS      0.068367
     22 H23         4.0210   -1.3900    2.7230 h1        1 2LS      0.104700
     23 H24         5.4610   -0.2260    2.4740 h1        1 2LS      0.104700
     24 H25         1.7520   -0.5420    3.1720 ho        1 2LS      0.451000
     25 H26         2.0660    0.5600   -0.7470 hx        1 2LS      0.118700
     26 H27        -0.6320   -1.2510   -1.5680 hc        1 2LS      0.032700
     27 H28         1.0880    0.1020   -2.7200 hc        1 2LS      0.050700
     28 H29        -0.5170    0.3900   -3.5020 hc        1 2LS      0.050700
     29 H30         0.1730    1.6310   -2.3820 hc        1 2LS      0.050700
     30 H31         1.3700   -2.1540    0.2710 hn        1 2LS      0.469133
     31 H2          1.4970   -1.7040   -1.3390 hn        1 2LS      0.469133
     32 H243        2.8520   -1.6750   -0.3370 hn        1 2LS      0.469133
@<TRIPOS>BOND
     1    1    9 1   
     2    1   10 1   
     3    1   13 1   
     4    1   14 1   
     5    2   10 1   
     6    2   15 1   
     7    2   16 1   
     8    2   17 1   
     9    3    4 1   
    10    3    8 1   
    11    3    9 1   
    12    3   18 1   
    13    4    5 1   
    14    4    6 1   
    15    4    7 1   
    16    5   19 1   
    17    5   20 1   
    18    5   21 1   
    19    6    7 1   
    20    7   22 1   
    21    7   23 1   
    22    8   24 1   
    23    9   12 1   
    24    9   25 1   
    25   10   11 1   
    26   10   26 1   
    27   11   27 1   
    28   11   28 1   
    29   11   29 1   
    30   12   30 1   
    31   12   31 1   
    32   12   32 1   
@<TRIPOS>SUBSTRUCTURE
     1 2LS         1 TEMP              0 ****  ****    0 ROOT
