@<TRIPOS>MOLECULE
2LS
   32    32     1     0     0
SMALL
bcc


@<TRIPOS>ATOM
      1 C26         0.0200    0.1660   -0.0710 c3        1 2LS     -0.114400
      2 C28        -2.0820    0.3270   -1.3640 c3        1 2LS     -0.101600
      3 C33         2.0510    0.1660    1.4200 c3        1 2LS      0.140100
      4 C34         3.5580    0.3580    1.4290 cx        1 2LS      0.013800
      5 C45         4.0020    1.7680    1.2010 c3        1 2LS     -0.093100
      6 O40         4.3020   -0.6530    0.7080 os        1 2LS     -0.447600
      7 C35         4.4510   -0.6090    2.1350 cx        1 2LS      0.101400
      8 O43         1.6450   -0.9380    2.2130 oh        1 2LS     -0.621800
      9 C25         1.5240   -0.1010   -0.0170 c3        1 2LS      0.133500
     10 C27        -0.6240   -0.0950   -1.4250 c3        1 2LS     -0.077700
     11 C29         0.0820    0.6370   -2.5460 c3        1 2LS     -0.101600
     12 N24         1.8600   -1.4940   -0.4620 nz        1 2LS     -0.836600
     13 H14        -0.1280    1.2480    0.1970 hc        1 2LS      0.088700
     14 H15        -0.4960   -0.4470    0.7170 hc        1 2LS      0.088700
     15 H16        -2.6070   -0.1990   -0.5310 hc        1 2LS      0.050700
     16 H17        -2.1660    1.4280   -1.2020 hc        1 2LS      0.050700
     17 H18        -2.5930    0.0710   -2.3240 hc        1 2LS      0.050700
     18 H19         1.5670    1.1160    1.7910 h1        1 2LS      0.098700
     19 H20         3.7570    2.3900    2.0970 hc        1 2LS      0.068367
     20 H21         5.1060    1.8060    1.0270 hc        1 2LS      0.068367
     21 H22         3.4910    2.2030    0.3070 hc        1 2LS      0.068367
     22 H23         4.0270   -1.4820    2.6670 h1        1 2LS      0.104700
     23 H24         5.4530   -0.2880    2.4820 h1        1 2LS      0.104700
     24 H25         1.7450   -0.6860    3.1410 ho        1 2LS      0.451000
     25 H26         2.0660    0.6050   -0.7190 hx        1 2LS      0.118700
     26 H27        -0.6030   -1.2010   -1.6420 hc        1 2LS      0.032700
     27 H28        -0.4980    0.5310   -3.4960 hc        1 2LS      0.050700
     28 H29         0.1700    1.7260   -2.3140 hc        1 2LS      0.050700
     29 H30         1.1060    0.2260   -2.7180 hc        1 2LS      0.050700
     30 H31         1.4010   -2.1640    0.1650 hn        1 2LS      0.469133
     31 H2          1.5310   -1.6370   -1.4200 hn        1 2LS      0.469133
     32 H243        2.8800   -1.6370   -0.4100 hn        1 2LS      0.469133
@<TRIPOS>BOND
     1    1    9 1   
     2    1   10 1   
     3    1   13 1   
     4    1   14 1   
     5    2   10 1   
     6    2   15 1   
     7    2   16 1   
     8    2   17 1   
     9    3    4 1   
    10    3    8 1   
    11    3    9 1   
    12    3   18 1   
    13    4    5 1   
    14    4    6 1   
    15    4    7 1   
    16    5   19 1   
    17    5   20 1   
    18    5   21 1   
    19    6    7 1   
    20    7   22 1   
    21    7   23 1   
    22    8   24 1   
    23    9   12 1   
    24    9   25 1   
    25   10   11 1   
    26   10   26 1   
    27   11   27 1   
    28   11   28 1   
    29   11   29 1   
    30   12   30 1   
    31   12   31 1   
    32   12   32 1   
@<TRIPOS>SUBSTRUCTURE
     1 2LS         1 TEMP              0 ****  ****    0 ROOT
