@<TRIPOS>MOLECULE
2LU
   22    21     1     0     0
SMALL
bcc


@<TRIPOS>ATOM
      1 N          -1.5870    0.6180    1.2840 n3        1 2LU     -0.902800
      2 CA         -1.2850    0.1970   -0.0730 c3        1 2LU      0.158500
      3 C          -2.4070   -0.5910   -0.7580 c3        1 2LU     -0.134100
      4 CB          0.0040   -0.6340   -0.1600 c3        1 2LU     -0.068400
      5 CG          1.2580    0.1580    0.1800 c3        1 2LU     -0.068700
      6 CD1         2.3970   -0.7940    0.4900 c3        1 2LU     -0.089600
      7 CD2         1.6510    1.0830   -0.9530 c3        1 2LU     -0.089600
      8 H          -2.4860    1.0580    1.3130 hn        1 2LU      0.344300
      9 H2         -1.5930   -0.1680    1.9060 hn        1 2LU      0.344300
     10 HA         -1.1280    1.1500   -0.6640 h1        1 2LU      0.059700
     11 HC1        -3.3660   -0.0190   -0.7320 hc        1 2LU      0.036033
     12 HC2        -2.1400   -0.7790   -1.8250 hc        1 2LU      0.036033
     13 HC3        -2.5660   -1.5740   -0.2540 hc        1 2LU      0.036033
     14 HB2         0.0920   -1.0310   -1.2050 hc        1 2LU      0.039200
     15 HB3        -0.0760   -1.5180    0.5260 hc        1 2LU      0.039200
     16 HG          1.0600    0.7820    1.0960 hc        1 2LU      0.069700
     17 HD11        3.3270   -0.2200    0.7220 hc        1 2LU      0.031867
     18 HD12        2.1460   -1.4310    1.3720 hc        1 2LU      0.031867
     19 HD13        2.6020   -1.4600   -0.3820 hc        1 2LU      0.031867
     20 HD21        0.8370    1.8170   -1.1640 hc        1 2LU      0.031867
     21 HD22        2.5750    1.6500   -0.6830 hc        1 2LU      0.031867
     22 HD23        1.8550    0.5010   -1.8850 hc        1 2LU      0.031867
@<TRIPOS>BOND
     1    1    2 1   
     2    1    8 1   
     3    1    9 1   
     4    2    3 1   
     5    2    4 1   
     6    2   10 1   
     7    3   11 1   
     8    3   12 1   
     9    3   13 1   
    10    4    5 1   
    11    4   14 1   
    12    4   15 1   
    13    5    6 1   
    14    5    7 1   
    15    5   16 1   
    16    6   17 1   
    17    6   18 1   
    18    6   19 1   
    19    7   20 1   
    20    7   21 1   
    21    7   22 1   
@<TRIPOS>SUBSTRUCTURE
     1 2LU         1 TEMP              0 ****  ****    0 ROOT
