@<TRIPOS>MOLECULE
2LU
   22    21     1     0     0
SMALL
bcc


@<TRIPOS>ATOM
      1 N          -1.8660   -0.7540    1.0100 n3        1 2LU     -0.902800
      2 CA         -0.4430   -0.7540    1.0100 c3        1 2LU      0.158500
      3 C           0.0610   -0.7540    2.4350 c3        1 2LU     -0.134100
      4 CB          0.0610    0.4800    0.2980 c3        1 2LU     -0.068400
      5 CG          0.2640    0.1680   -1.1680 c3        1 2LU     -0.068700
      6 CD1        -0.4520    1.2030   -2.0080 c3        1 2LU     -0.089600
      7 CD2         1.7420    0.1930   -1.4890 c3        1 2LU     -0.089600
      8 H          -2.1700   -1.5950    0.8330 hn        1 2LU      0.344300
      9 H2         -2.1700   -0.4870    1.8280 hn        1 2LU      0.344300
     10 HA         -0.1180   -1.5510    0.5500 h1        1 2LU      0.059700
     11 HC1        -0.2020    0.0780    2.8740 hc        1 2LU      0.036033
     12 HC2        -0.3240   -1.5110    2.9170 hc        1 2LU      0.036033
     13 HC3         1.0340   -0.8290    2.4360 hc        1 2LU      0.036033
     14 HB2        -0.5930    1.1990    0.3900 hc        1 2LU      0.039200
     15 HB3         0.9090    0.7600    0.6920 hc        1 2LU      0.039200
     16 HG         -0.0970   -0.7170   -1.3660 hc        1 2LU      0.069700
     17 HD11       -0.2570    1.0480   -2.9520 hc        1 2LU      0.031867
     18 HD12       -0.1460    2.0950   -1.7560 hc        1 2LU      0.031867
     19 HD13       -1.4140    1.1350   -1.8590 hc        1 2LU      0.031867
     20 HD21        1.8750   -0.0340   -2.4290 hc        1 2LU      0.031867
     21 HD22        2.0980    1.0850   -1.3170 hc        1 2LU      0.031867
     22 HD23        2.2080   -0.4570   -0.9290 hc        1 2LU      0.031867
@<TRIPOS>BOND
     1    1    2 1   
     2    1    8 1   
     3    1    9 1   
     4    2    3 1   
     5    2    4 1   
     6    2   10 1   
     7    3   11 1   
     8    3   12 1   
     9    3   13 1   
    10    4    5 1   
    11    4   14 1   
    12    4   15 1   
    13    5    6 1   
    14    5    7 1   
    15    5   16 1   
    16    6   17 1   
    17    6   18 1   
    18    6   19 1   
    19    7   20 1   
    20    7   21 1   
    21    7   22 1   
@<TRIPOS>SUBSTRUCTURE
     1 2LU         1 TEMP              0 ****  ****    0 ROOT
