@<TRIPOS>MOLECULE
2LW
   30    25     1     0     0
SMALL
bcc


@<TRIPOS>ATOM
      1 CAH        -1.0110   -0.5050   -2.4540 c3        1 2LW     -0.030000
      2 CAG         0.4070   -0.3900   -2.4460 c3        1 2LW     -0.135000
      3 CAM         1.0880   -0.3800   -1.0540 c2        1 2LW     -0.010000
      4 NAJ         2.3780   -0.4390   -0.6180 n2        1 2LW     -0.200000
      5 CAO         2.3640   -0.4360    0.8000 c1        1 2LW      0.000000
      6 CAE         3.3950   -0.4590    1.7450 c1        1 2LW     -0.121500
      7 CAD         3.0940   -0.4200    3.1050 c1        1 2LW     -0.121500
      8 CAL         1.7600   -0.3570    3.5270 c1        1 2LW     -0.083000
      9 CL          1.5100   -0.4780    5.2480 cl        1 2LW     -0.024000
     10 CAF         0.7320   -0.3340    2.5870 c1        1 2LW     -0.083000
     11 CAP         1.0320   -0.3740    1.2210 c1        1 2LW     -0.055000
     12 CAN         0.2320   -0.3390    0.0980 c1        1 2LW     -0.188000
     13 CAI        -1.3170   -0.1390   -0.1520 c2        1 2LW      0.042000
     14 NAQ        -1.6940    0.1250   -1.4290 n3        1 2LW     -0.318000
     15 CAK        -2.7590    1.0230   -1.7050 c1        1 2LW      0.298000
     16 OAB        -3.0810    1.2470   -2.8540 o         1 2LW     -0.368000
     17 CAA        -3.5340    1.6490   -0.5660 c2        1 2LW     -0.238000
     18 H1         -1.2370   -1.4590   -2.4260 h1        1 2LW      0.111000
     19 H2         -1.3390   -0.1400   -3.3040 h1        1 2LW      0.111000
     20 H3          0.6470    0.4400   -2.9070 hc        1 2LW      0.105000
     21 H4          0.7740   -1.1410   -2.9580 hc        1 2LW      0.105000
     22 H5          3.1210   -0.4730   -1.1460 DU        1 2LW      0.253000
     23 H6          4.3250   -0.5020    1.4520 ha        1 2LW      0.142500
     24 H7          3.8140   -0.4290    3.7640 ha        1 2LW      0.142500
     25 H8         -0.1970   -0.2910    2.8810 ha        1 2LW      0.148000
     26 H9         -1.7780   -0.9540    0.1370 h4        1 2LW      0.097500
     27 H10        -1.6220    0.6000    0.4130 h4        1 2LW      0.097500
     28 H11        -4.1230    2.3490   -0.9180 ha        1 2LW      0.107000
     29 H12        -2.9090    2.0420    0.0780 ha        1 2LW      0.107000
     30 H13        -4.0730    0.9620   -0.1210 ha        1 2LW      0.107000
@<TRIPOS>BOND
     1    1    2 1   
     2    1   14 1   
     3    1   18 1   
     4    1   19 1   
     5    2    3 1   
     6    2   20 1   
     7    2   21 1   
     8    3    4 1   
     9    3   12 1   
    10    4    5 1   
    11    5   11 1   
    12    6    7 1   
    13    6   23 1   
    14    7   24 1   
    15    8    9 1   
    16    8   10 1   
    17   10   25 1   
    18   13   14 1   
    19   13   26 1   
    20   13   27 1   
    21   14   15 1   
    22   15   16 1   
    23   17   28 1   
    24   17   29 1   
    25   17   30 1   
@<TRIPOS>SUBSTRUCTURE
     1 2LW         1 TEMP              0 ****  ****    0 ROOT
