@<TRIPOS>MOLECULE
2LW
   30    32     1     0     0
SMALL
bcc


@<TRIPOS>ATOM
      1 CAH        -3.1630   -0.8650    0.9400 c3        1 2LW      0.091000
      2 CAG        -2.3810   -1.9420    0.1620 c3        1 2LW     -0.049200
      3 CAM        -0.9640   -1.5300    0.0720 cc        1 2LW     -0.062300
      4 NAJ         0.1220   -2.3380   -0.2760 na        1 2LW     -0.178400
      5 CAO         1.2740   -1.5460   -0.2530 ca        1 2LW     -0.043200
      6 CAE         2.6120   -1.8730   -0.5240 ca        1 2LW     -0.137000
      7 CAD         3.5610   -0.8700   -0.4180 ca        1 2LW     -0.107000
      8 CAL         3.1950    0.4420   -0.0500 ca        1 2LW     -0.007600
      9 CL          4.4140    1.6270    0.0590 cl        1 2LW     -0.102400
     10 CAF         1.8780    0.7910    0.2230 ca        1 2LW     -0.075000
     11 CAP         0.8980   -0.1980    0.1270 ca        1 2LW     -0.069800
     12 CAN        -0.5290   -0.2220    0.3260 cd        1 2LW     -0.156400
     13 CAI        -1.4500    0.8660    0.7320 c3        1 2LW      0.148200
     14 NAQ        -2.8530    0.5000    0.5850 n         1 2LW     -0.457800
     15 CAK        -3.6510    1.2270   -0.3040 c         1 2LW      0.651100
     16 OAB        -3.2480    2.3140   -0.7630 o         1 2LW     -0.595100
     17 CAA        -5.0380    0.7330   -0.6340 c3        1 2LW     -0.171100
     18 H1         -4.2630   -1.0640    0.8150 h1        1 2LW      0.058200
     19 H2         -2.9140   -0.9810    2.0350 h1        1 2LW      0.058200
     20 H3         -2.4940   -2.9210    0.6970 hc        1 2LW      0.059200
     21 H4         -2.8090   -2.0630   -0.8690 hc        1 2LW      0.059200
     22 H5          0.0810   -3.2880   -0.5260 hn        1 2LW      0.300700
     23 H6          2.9000   -2.8930   -0.8110 ha        1 2LW      0.137000
     24 H7          4.6180   -1.0970   -0.6250 ha        1 2LW      0.146000
     25 H8          1.6030    1.8180    0.5050 ha        1 2LW      0.153000
     26 H9         -1.2780    1.1090    1.8220 h1        1 2LW      0.077200
     27 H10        -1.2350    1.7970    0.1290 h1        1 2LW      0.077200
     28 H11        -5.6520    0.6300    0.2930 hc        1 2LW      0.065700
     29 H12        -5.5270    1.4780   -1.3090 hc        1 2LW      0.065700
     30 H13        -4.9890   -0.2510   -1.1590 hc        1 2LW      0.065700
@<TRIPOS>BOND
     1    1    2 1   
     2    1   14 1   
     3    1   18 1   
     4    1   19 1   
     5    2    3 1   
     6    2   20 1   
     7    2   21 1   
     8    3    4 1   
     9    3   12 2   
    10    4    5 1   
    11    4   22 1   
    12    5    6 ar  
    13    5   11 ar  
    14    6    7 ar  
    15    6   23 1   
    16    7    8 ar  
    17    7   24 1   
    18    8    9 1   
    19    8   10 ar  
    20   10   11 ar  
    21   10   25 1   
    22   11   12 1   
    23   12   13 1   
    24   13   14 1   
    25   13   26 1   
    26   13   27 1   
    27   14   15 1   
    28   15   16 2   
    29   15   17 1   
    30   17   28 1   
    31   17   29 1   
    32   17   30 1   
@<TRIPOS>SUBSTRUCTURE
     1 2LW         1 TEMP              0 ****  ****    0 ROOT
