@<TRIPOS>MOLECULE
2LW
   30    32     1     0     0
SMALL
bcc


@<TRIPOS>ATOM
      1 CAH        -0.0480   -0.0690    0.0350 c3        1 2LW      0.091000
      2 CAG         1.4930   -0.0620    0.0010 c3        1 2LW     -0.049200
      3 CAM         2.0000   -0.0430    1.3900 cc        1 2LW     -0.062300
      4 NAJ         3.3020   -0.3310    1.8090 na        1 2LW     -0.178400
      5 CAO         3.3520   -0.1770    3.1970 ca        1 2LW     -0.043200
      6 CAE         4.4160   -0.3450    4.0970 ca        1 2LW     -0.137000
      7 CAD         4.1730   -0.1240    5.4420 ca        1 2LW     -0.107000
      8 CAL         2.8940    0.2590    5.8960 ca        1 2LW     -0.007600
      9 CL          2.6650    0.5160    7.5650 cl        1 2LW     -0.102400
     10 CAF         1.8230    0.4320    5.0260 ca        1 2LW     -0.075000
     11 CAP         2.0360    0.2150    3.6650 ca        1 2LW     -0.069800
     12 CAN         1.2030    0.2910    2.4920 cd        1 2LW     -0.156400
     13 CAI        -0.2340    0.6340    2.3690 c3        1 2LW      0.148200
     14 NAQ        -0.6480    0.8380    0.9860 n         1 2LW     -0.457800
     15 CAK        -1.1260    2.0940    0.6020 c         1 2LW      0.651100
     16 OAB        -1.4340    2.9390    1.4660 o         1 2LW     -0.595100
     17 CAA        -1.3530    2.3890   -0.8600 c3        1 2LW     -0.171100
     18 H1         -0.4280    0.1410   -1.0020 h1        1 2LW      0.058200
     19 H2         -0.3830   -1.1090    0.3210 h1        1 2LW      0.058200
     20 H3          1.8650    0.8410   -0.5530 hc        1 2LW      0.059200
     21 H4          1.8410   -0.9730   -0.5540 hc        1 2LW      0.059200
     22 H5          4.0590   -0.5670    1.2270 hn        1 2LW      0.300700
     23 H6          5.4140   -0.6420    3.7470 ha        1 2LW      0.137000
     24 H7          4.9890   -0.2480    6.1700 ha        1 2LW      0.146000
     25 H8          0.8310    0.7350    5.3910 ha        1 2LW      0.153000
     26 H9         -0.8550   -0.2140    2.7850 h1        1 2LW      0.077200
     27 H10        -0.4620    1.5610    2.9730 h1        1 2LW      0.077200
     28 H11        -0.3880    2.3560   -1.4210 hc        1 2LW      0.065700
     29 H12        -1.7880    3.4150   -0.9500 hc        1 2LW      0.065700
     30 H13        -2.0670    1.6560   -1.3060 hc        1 2LW      0.065700
@<TRIPOS>BOND
     1    1    2 1   
     2    1   14 1   
     3    1   18 1   
     4    1   19 1   
     5    2    3 1   
     6    2   20 1   
     7    2   21 1   
     8    3    4 1   
     9    3   12 2   
    10    4    5 1   
    11    4   22 1   
    12    5    6 ar  
    13    5   11 ar  
    14    6    7 ar  
    15    6   23 1   
    16    7    8 ar  
    17    7   24 1   
    18    8    9 1   
    19    8   10 ar  
    20   10   11 ar  
    21   10   25 1   
    22   11   12 1   
    23   12   13 1   
    24   13   14 1   
    25   13   26 1   
    26   13   27 1   
    27   14   15 1   
    28   15   16 2   
    29   15   17 1   
    30   17   28 1   
    31   17   29 1   
    32   17   30 1   
@<TRIPOS>SUBSTRUCTURE
     1 2LW         1 TEMP              0 ****  ****    0 ROOT
