@<TRIPOS>MOLECULE
2LW
   30    32     1     0     0
SMALL
bcc


@<TRIPOS>ATOM
      1 CAH        -0.0460   -0.0690    0.0340 c3        1 2LW      0.091000
      2 CAG         1.4950   -0.0610    0.0000 c3        1 2LW     -0.049200
      3 CAM         2.0010   -0.0420    1.3900 cc        1 2LW     -0.062300
      4 NAJ         3.3030   -0.3280    1.8100 na        1 2LW     -0.178400
      5 CAO         3.3520   -0.1750    3.1980 ca        1 2LW     -0.043200
      6 CAE         4.4160   -0.3420    4.0980 ca        1 2LW     -0.137000
      7 CAD         4.1710   -0.1230    5.4430 ca        1 2LW     -0.107000
      8 CAL         2.8910    0.2580    5.8970 ca        1 2LW     -0.007600
      9 Cl          2.6610    0.5130    7.5660 cl        1 2LW     -0.102400
     10 CAF         1.8220    0.4300    5.0270 ca        1 2LW     -0.075000
     11 CAP         2.0350    0.2150    3.6650 ca        1 2LW     -0.069800
     12 CAN         1.2030    0.2900    2.4920 cd        1 2LW     -0.156400
     13 CAI        -0.2350    0.6320    2.3680 c3        1 2LW      0.148200
     14 NAQ        -0.6480    0.8360    0.9850 n         1 2LW     -0.457800
     15 CAK        -1.1270    2.0920    0.6020 c         1 2LW      0.651100
     16 OAB        -1.4360    2.9360    1.4660 o         1 2LW     -0.595100
     17 CAA        -1.3530    2.3880   -0.8610 c3        1 2LW     -0.171100
     18 H1         -0.4260    0.1410   -1.0030 h1        1 2LW      0.058200
     19 H2         -0.3800   -1.1100    0.3180 h1        1 2LW      0.058200
     20 H3          1.8660    0.8440   -0.5520 hc        1 2LW      0.059200
     21 H4          1.8450   -0.9700   -0.5540 hc        1 2LW      0.059200
     22 H5          4.0610   -0.5630    1.2280 hn        1 2LW      0.300700
     23 H6          5.4140   -0.6380    3.7480 ha        1 2LW      0.137000
     24 H7          4.9880   -0.2460    6.1720 ha        1 2LW      0.146000
     25 H8          0.8280    0.7320    5.3910 ha        1 2LW      0.153000
     26 H9         -0.8540   -0.2180    2.7830 h1        1 2LW      0.077200
     27 H10        -0.4640    1.5580    2.9730 h1        1 2LW      0.077200
     28 H11        -2.0670    1.6550   -1.3070 hc        1 2LW      0.065700
     29 H12        -1.7890    3.4140   -0.9500 hc        1 2LW      0.065700
     30 H13        -0.3880    2.3570   -1.4200 hc        1 2LW      0.065700
@<TRIPOS>BOND
     1    1    2 1   
     2    1   14 1   
     3    1   18 1   
     4    1   19 1   
     5    2    3 1   
     6    2   20 1   
     7    2   21 1   
     8    3    4 1   
     9    3   12 2   
    10    4    5 1   
    11    4   22 1   
    12    5    6 ar  
    13    5   11 ar  
    14    6    7 ar  
    15    6   23 1   
    16    7    8 ar  
    17    7   24 1   
    18    8    9 1   
    19    8   10 ar  
    20   10   11 ar  
    21   10   25 1   
    22   11   12 1   
    23   12   13 1   
    24   13   14 1   
    25   13   26 1   
    26   13   27 1   
    27   14   15 1   
    28   15   16 2   
    29   15   17 1   
    30   17   28 1   
    31   17   29 1   
    32   17   30 1   
@<TRIPOS>SUBSTRUCTURE
     1 2LW         1 TEMP              0 ****  ****    0 ROOT
