@<TRIPOS>MOLECULE
2LW
   30    32     1     0     0
SMALL
bcc


@<TRIPOS>ATOM
      1 CAH        -0.0500   -0.0700    0.0360 c3        1 2LW      0.091000
      2 CAG         1.4920   -0.0620    0.0000 c3        1 2LW     -0.049200
      3 CAM         2.0000   -0.0430    1.3890 cc        1 2LW     -0.062300
      4 NAJ         3.3020   -0.3300    1.8080 na        1 2LW     -0.178400
      5 CAO         3.3530   -0.1750    3.1960 ca        1 2LW     -0.043200
      6 CAE         4.4180   -0.3420    4.0950 ca        1 2LW     -0.137000
      7 CAD         4.1760   -0.1210    5.4400 ca        1 2LW     -0.107000
      8 CAL         2.8960    0.2610    5.8950 ca        1 2LW     -0.007600
      9 CL          2.6680    0.5170    7.5640 cl        1 2LW     -0.102400
     10 CAF         1.8250    0.4320    5.0260 ca        1 2LW     -0.075000
     11 CAP         2.0370    0.2150    3.6640 ca        1 2LW     -0.069800
     12 CAN         1.2030    0.2900    2.4920 cd        1 2LW     -0.156400
     13 CAI        -0.2350    0.6320    2.3700 c3        1 2LW      0.148200
     14 NAQ        -0.6500    0.8360    0.9870 n         1 2LW     -0.457800
     15 CAK        -1.1290    2.0920    0.6030 c         1 2LW      0.651100
     16 OAB        -1.4360    2.9360    1.4680 o         1 2LW     -0.595100
     17 CAA        -1.3560    2.3870   -0.8590 c3        1 2LW     -0.171100
     18 H1         -0.4300    0.1400   -1.0010 h1        1 2LW      0.058200
     19 H2         -0.3830   -1.1110    0.3220 h1        1 2LW      0.058200
     20 H3          1.8410   -0.9720   -0.5540 hc        1 2LW      0.059200
     21 H4          1.8620    0.8410   -0.5530 hc        1 2LW      0.059200
     22 H5          4.0600   -0.5650    1.2250 hn        1 2LW      0.300700
     23 H6          5.4160   -0.6380    3.7440 ha        1 2LW      0.137000
     24 H7          4.9930   -0.2440    6.1680 ha        1 2LW      0.146000
     25 H8          0.8320    0.7340    5.3910 ha        1 2LW      0.153000
     26 H9         -0.8540   -0.2170    2.7860 h1        1 2LW      0.077200
     27 H10        -0.4630    1.5590    2.9750 h1        1 2LW      0.077200
     28 H11        -2.0700    1.6540   -1.3040 hc        1 2LW      0.065700
     29 H12        -0.3910    2.3550   -1.4190 hc        1 2LW      0.065700
     30 H13        -1.7910    3.4130   -0.9480 hc        1 2LW      0.065700
@<TRIPOS>BOND
     1    1    2 1   
     2    1   14 1   
     3    1   18 1   
     4    1   19 1   
     5    2    3 1   
     6    2   20 1   
     7    2   21 1   
     8    3    4 1   
     9    3   12 2   
    10    4    5 1   
    11    4   22 1   
    12    5    6 ar  
    13    5   11 ar  
    14    6    7 ar  
    15    6   23 1   
    16    7    8 ar  
    17    7   24 1   
    18    8    9 1   
    19    8   10 ar  
    20   10   11 ar  
    21   10   25 1   
    22   11   12 1   
    23   12   13 1   
    24   13   14 1   
    25   13   26 1   
    26   13   27 1   
    27   14   15 1   
    28   15   16 2   
    29   15   17 1   
    30   17   28 1   
    31   17   29 1   
    32   17   30 1   
@<TRIPOS>SUBSTRUCTURE
     1 2LW         1 TEMP              0 ****  ****    0 ROOT
