@<TRIPOS>MOLECULE
2LX
   34    32     1     0     0
SMALL
bcc


@<TRIPOS>ATOM
      1 C01        -1.7660   -3.8520    1.8390 c3        1 2LX     -0.079000
      2 N02        -1.3640   -2.4840    2.2760 n         1 2LX     -0.374000
      3 C03        -0.9300   -1.5250    1.3040 c2        1 2LX      0.354000
      4 C04        -0.0730   -0.3330    1.7370 c2        1 2LX     -0.140000
      5 C05         0.4290   -0.2660    3.0410 c2        1 2LX     -0.093000
      6 C06         1.1810    0.8340    3.4430 c1        1 2LX     -0.143000
      7 C07         1.4340    1.8760    2.5410 c1        1 2LX     -0.126500
      8 C08         0.9330    1.8100    1.2400 c1        1 2LX     -0.126500
      9 C09         0.1800    0.7080    0.8380 c1        1 2LX      0.094000
     10 O10        -0.4270    0.6910   -0.4670 o         1 2LX     -0.240000
     11 C11         0.5430    0.2540   -1.4340 c3        1 2LX      0.026000
     12 C12        -0.1720   -0.3820   -2.5850 c3        1 2LX     -0.202500
     13 C13        -0.9580    0.6120   -3.3980 c3        1 2LX     -0.022000
     14 O14        -0.1500    1.7590   -3.8120 os        1 2LX     -0.274000
     15 C15         0.5680    2.4060   -2.6710 c3        1 2LX     -0.022000
     16 C16         1.3590    1.4120   -1.8510 c3        1 2LX     -0.202500
     17 O17        -1.3680   -1.5780    0.1540 o         1 2LX     -0.368000
     18 H1         -1.8450   -4.4260    2.6100 h1        1 2LX      0.084000
     19 H2         -2.6650   -3.8060    1.3550 h1        1 2LX      0.084000
     20 H3         -1.0420   -4.2380    1.1880 h1        1 2LX      0.084000
     21 H4         -1.4570   -2.2300    3.1800 hn        1 2LX      0.227000
     22 H5          0.2430   -1.0330    3.7080 ha        1 2LX      0.143000
     23 H6          1.5310    0.8800    4.3560 ha        1 2LX      0.139000
     24 H7          1.9620    2.6480    2.8220 ha        1 2LX      0.143500
     25 H8          1.1100    2.5360    0.6120 ha        1 2LX      0.143500
     26 H9          1.1180   -0.4030   -1.0240 h1        1 2LX      0.126000
     27 H10        -0.7880   -1.0720   -2.2390 hc        1 2LX      0.101750
     28 H11         0.4910   -0.8100   -3.1690 hc        1 2LX      0.101750
     29 H12        -1.3020    0.1670   -4.1870 h1        1 2LX      0.089000
     30 H13        -1.6790    0.9200   -2.8840 h1        1 2LX      0.089000
     31 H14        -0.1070    2.8650   -2.0720 h1        1 2LX      0.089000
     32 H15         1.1980    3.0950   -3.0370 h1        1 2LX      0.089000
     33 H16         1.7040    1.8680   -1.0390 hc        1 2LX      0.101750
     34 H17         2.1070    1.0950   -2.3750 hc        1 2LX      0.101750
@<TRIPOS>BOND
     1    1    2 1   
     2    1   18 1   
     3    1   19 1   
     4    1   20 1   
     5    2    3 1   
     6    2   21 1   
     7    3    4 1   
     8    3   17 1   
     9    4    5 1   
    10    4    9 1   
    11    5    6 1   
    12    5   22 1   
    13    6   23 1   
    14    7    8 1   
    15    7   24 1   
    16    8   25 1   
    17   10   11 1   
    18   11   12 1   
    19   11   16 1   
    20   11   26 1   
    21   12   13 1   
    22   12   27 1   
    23   12   28 1   
    24   13   14 1   
    25   13   29 1   
    26   13   30 1   
    27   14   15 1   
    28   15   16 1   
    29   15   31 1   
    30   15   32 1   
    31   16   33 1   
    32   16   34 1   
@<TRIPOS>SUBSTRUCTURE
     1 2LX         1 TEMP              0 ****  ****    0 ROOT
