@<TRIPOS>MOLECULE
2LX
   35    36     1     0     0
SMALL
bcc


@<TRIPOS>ATOM
      1 C01         0.7660    0.8360    1.0580 c3        1 2LX      0.085100
      2 N02         1.4290   -0.2010    0.2380 n4        1 2LX     -0.684800
      3 C03         2.4340   -1.0000    1.0840 c         1 2LX      0.602700
      4 C04         3.8060   -0.5150    0.9930 ca        1 2LX     -0.263600
      5 C05         4.4630   -0.4280   -0.2480 ca        1 2LX     -0.066000
      6 C06         5.7930   -0.0470   -0.3060 ca        1 2LX     -0.152000
      7 C07         6.4870    0.2610    0.8750 ca        1 2LX     -0.022000
      8 C08         5.8560    0.1940    2.1080 ca        1 2LX     -0.203000
      9 C09         4.5050   -0.1960    2.1820 ca        1 2LX      0.228100
     10 O10         3.7580   -0.2560    3.3220 os        1 2LX     -0.342900
     11 C11         4.4430   -0.1840    4.5990 c3        1 2LX      0.146100
     12 C12         4.5880    1.2720    5.0210 c3        1 2LX     -0.130900
     13 C13         5.0190    1.3480    6.4780 c3        1 2LX      0.124900
     14 O14         4.1240    0.6390    7.3240 os        1 2LX     -0.397600
     15 C15         4.0290   -0.7410    6.9910 c3        1 2LX      0.124900
     16 C16         3.5370   -0.9410    5.5670 c3        1 2LX     -0.130900
     17 O17         1.9440   -1.9210    1.7100 o         1 2LX     -0.393100
     18 H1          0.0290    1.4020    0.4260 hx        1 2LX      0.109700
     19 H2          0.2300    0.3420    1.9140 hx        1 2LX      0.109700
     20 H3          1.5390    1.5440    1.4620 hx        1 2LX      0.109700
     21 H4          1.9220    0.2390   -0.5450 hn        1 2LX      0.454300
     22 H5          3.9340   -0.7000   -1.1750 ha        1 2LX      0.136000
     23 H6          6.3130    0.0080   -1.2760 ha        1 2LX      0.168000
     24 H7          7.5480    0.5600    0.8190 ha        1 2LX      0.168000
     25 H8          6.4110    0.4460    3.0250 ha        1 2LX      0.170000
     26 H9          5.4420   -0.6910    4.5240 h1        1 2LX      0.067700
     27 H10         5.3390    1.7960    4.3790 hc        1 2LX      0.066950
     28 H11         3.6020    1.7910    4.8950 hc        1 2LX      0.066950
     29 H12         4.9710    2.4050    6.8540 h1        1 2LX      0.064200
     30 H13         6.0590    0.9460    6.6010 h1        1 2LX      0.064200
     31 H14         5.0250   -1.2370    7.1370 h1        1 2LX      0.064200
     32 H15         3.2870   -1.1490    7.7290 h1        1 2LX      0.064200
     33 H16         2.4880   -0.5570    5.4690 hc        1 2LX      0.066950
     34 H17         3.5330   -2.0310    5.3140 hc        1 2LX      0.066950
     35 H022        0.7170   -0.8410   -0.1340 hn        1 2LX      0.454300
@<TRIPOS>BOND
     1    1    2 1   
     2    1   18 1   
     3    1   19 1   
     4    1   20 1   
     5    2    3 1   
     6    2   21 1   
     7    2   35 1   
     8    3    4 1   
     9    3   17 2   
    10    4    5 ar  
    11    4    9 ar  
    12    5    6 ar  
    13    5   22 1   
    14    6    7 ar  
    15    6   23 1   
    16    7    8 ar  
    17    7   24 1   
    18    8    9 ar  
    19    8   25 1   
    20    9   10 1   
    21   10   11 1   
    22   11   12 1   
    23   11   16 1   
    24   11   26 1   
    25   12   13 1   
    26   12   27 1   
    27   12   28 1   
    28   13   14 1   
    29   13   29 1   
    30   13   30 1   
    31   14   15 1   
    32   15   16 1   
    33   15   31 1   
    34   15   32 1   
    35   16   33 1   
    36   16   34 1   
@<TRIPOS>SUBSTRUCTURE
     1 2LX         1 TEMP              0 ****  ****    0 ROOT
