@<TRIPOS>MOLECULE
2LX
   35    36     1     0     0
SMALL
bcc


@<TRIPOS>ATOM
      1 C01         0.7990    0.9340    1.0480 c3        1 2LX      0.085100
      2 N02         1.4240   -0.1340    0.2370 ny        1 2LX     -0.684800
      3 C03         2.3970   -0.9620    1.0910 c         1 2LX      0.602700
      4 C04         3.7870   -0.5310    0.9980 ca        1 2LX     -0.263600
      5 C05         4.4480   -0.4800   -0.2430 ca        1 2LX     -0.066000
      6 C06         5.7910   -0.1500   -0.3020 ca        1 2LX     -0.152000
      7 C07         6.4950    0.1420    0.8770 ca        1 2LX     -0.022000
      8 C08         5.8610    0.1100    2.1100 ca        1 2LX     -0.203000
      9 C09         4.4960   -0.2280    2.1850 ca        1 2LX      0.228100
     10 O10         3.7460   -0.2490    3.3250 os        1 2LX     -0.342900
     11 C11         4.4310   -0.1910    4.6020 c3        1 2LX      0.146100
     12 C12         4.6300    1.2620    5.0110 c3        1 2LX     -0.130900
     13 C13         5.0620    1.3350    6.4680 c3        1 2LX      0.124900
     14 O14         4.1410    0.6680    7.3190 os        1 2LX     -0.397600
     15 C15         3.9940   -0.7100    6.9990 c3        1 2LX      0.124900
     16 C16         3.4960   -0.9050    5.5750 c3        1 2LX     -0.130900
     17 O17         1.8720   -1.8590    1.7240 o         1 2LX     -0.393100
     18 H1          0.0850    1.5220    0.4100 hx        1 2LX      0.109700
     19 H2          1.5970    1.6160    1.4480 hx        1 2LX      0.109700
     20 H3          0.2430    0.4680    1.9070 hx        1 2LX      0.109700
     21 H4          0.6890   -0.7500   -0.1300 hn        1 2LX      0.454300
     22 H5          3.9100   -0.7400   -1.1680 ha        1 2LX      0.136000
     23 H6          6.3140   -0.1240   -1.2720 ha        1 2LX      0.168000
     24 H7          7.5670    0.4010    0.8200 ha        1 2LX      0.168000
     25 H8          6.4240    0.3490    3.0250 ha        1 2LX      0.170000
     26 H9          5.4110   -0.7360    4.5330 h1        1 2LX      0.067700
     27 H10         3.6650    1.8170    4.8780 hc        1 2LX      0.066950
     28 H11         5.4020    1.7520    4.3650 hc        1 2LX      0.066950
     29 H12         6.0870    0.8950    6.5960 h1        1 2LX      0.064200
     30 H13         5.0540    2.3970    6.8350 h1        1 2LX      0.064200
     31 H14         3.2360   -1.0840    7.7390 h1        1 2LX      0.064200
     32 H15         4.9700   -1.2430    7.1510 h1        1 2LX      0.064200
     33 H16         2.4630   -0.4820    5.4720 hc        1 2LX      0.066950
     34 H17         3.4510   -1.9960    5.3320 hc        1 2LX      0.066950
     35 H022        1.9350    0.2810   -0.5480 hn        1 2LX      0.454300
@<TRIPOS>BOND
     1    1    2 1   
     2    1   18 1   
     3    1   19 1   
     4    1   20 1   
     5    2    3 1   
     6    2   21 1   
     7    2   35 1   
     8    3    4 1   
     9    3   17 2   
    10    4    5 ar  
    11    4    9 ar  
    12    5    6 ar  
    13    5   22 1   
    14    6    7 ar  
    15    6   23 1   
    16    7    8 ar  
    17    7   24 1   
    18    8    9 ar  
    19    8   25 1   
    20    9   10 1   
    21   10   11 1   
    22   11   12 1   
    23   11   16 1   
    24   11   26 1   
    25   12   13 1   
    26   12   27 1   
    27   12   28 1   
    28   13   14 1   
    29   13   29 1   
    30   13   30 1   
    31   14   15 1   
    32   15   16 1   
    33   15   31 1   
    34   15   32 1   
    35   16   33 1   
    36   16   34 1   
@<TRIPOS>SUBSTRUCTURE
     1 2LX         1 TEMP              0 ****  ****    0 ROOT
