@<TRIPOS>MOLECULE
2LX
   35    36     1     0     0
SMALL
bcc


@<TRIPOS>ATOM
      1 C01         0.8050    0.9560    1.0470 c3        1 2LX      0.085100
      2 N02         1.4210   -0.1180    0.2380 n4        1 2LX     -0.684800
      3 C03         2.3880   -0.9530    1.0930 c         1 2LX      0.602700
      4 C04         3.7810   -0.5330    0.9990 ca        1 2LX     -0.263600
      5 C05         4.4430   -0.4900   -0.2420 ca        1 2LX     -0.066000
      6 C06         5.7880   -0.1700   -0.3020 ca        1 2LX     -0.152000
      7 C07         6.4950    0.1180    0.8760 ca        1 2LX     -0.022000
      8 C08         5.8610    0.0930    2.1090 ca        1 2LX     -0.203000
      9 C09         4.4930   -0.2340    2.1850 ca        1 2LX      0.228100
     10 O10         3.7430   -0.2470    3.3250 os        1 2LX     -0.342900
     11 C11         4.4300   -0.1930    4.6030 c3        1 2LX      0.146100
     12 C12         4.6410    1.2590    5.0090 c3        1 2LX     -0.130900
     13 C13         5.0740    1.3310    6.4660 c3        1 2LX      0.124900
     14 O14         4.1470    0.6710    7.3180 os        1 2LX     -0.397600
     15 C15         3.9890   -0.7050    7.0000 c3        1 2LX      0.124900
     16 C16         3.4890   -0.8980    5.5770 c3        1 2LX     -0.130900
     17 O17         1.8560   -1.8450    1.7280 o         1 2LX     -0.393100
     18 H1          1.6090    1.6330    1.4450 hx        1 2LX      0.109700
     19 H2          0.0960    1.5480    0.4090 hx        1 2LX      0.109700
     20 H3          0.2460    0.4950    1.9070 hx        1 2LX      0.109700
     21 H4          0.6820   -0.7290   -0.1290 hn        1 2LX      0.454300
     22 H5          3.9020   -0.7470   -1.1670 ha        1 2LX      0.136000
     23 H6          6.3110   -0.1500   -1.2720 ha        1 2LX      0.168000
     24 H7          7.5690    0.3670    0.8180 ha        1 2LX      0.168000
     25 H8          6.4260    0.3290    3.0250 ha        1 2LX      0.170000
     26 H9          5.4040   -0.7470    4.5340 h1        1 2LX      0.067700
     27 H10         5.4160    1.7410    4.3620 hc        1 2LX      0.066950
     28 H11         3.6790    1.8210    4.8760 hc        1 2LX      0.066950
     29 H12         6.0950    0.8820    6.5940 h1        1 2LX      0.064200
     30 H13         5.0740    2.3930    6.8310 h1        1 2LX      0.064200
     31 H14         3.2280   -1.0720    7.7410 h1        1 2LX      0.064200
     32 H15         4.9610   -1.2460    7.1520 h1        1 2LX      0.064200
     33 H16         3.4350   -1.9890    5.3350 hc        1 2LX      0.066950
     34 H17         2.4590   -0.4680    5.4730 hc        1 2LX      0.066950
     35 H022        1.9350    0.2920   -0.5480 hn        1 2LX      0.454300
@<TRIPOS>BOND
     1    1    2 1   
     2    1   18 1   
     3    1   19 1   
     4    1   20 1   
     5    2    3 1   
     6    2   21 1   
     7    2   35 1   
     8    3    4 1   
     9    3   17 2   
    10    4    5 ar  
    11    4    9 ar  
    12    5    6 ar  
    13    5   22 1   
    14    6    7 ar  
    15    6   23 1   
    16    7    8 ar  
    17    7   24 1   
    18    8    9 ar  
    19    8   25 1   
    20    9   10 1   
    21   10   11 1   
    22   11   12 1   
    23   11   16 1   
    24   11   26 1   
    25   12   13 1   
    26   12   27 1   
    27   12   28 1   
    28   13   14 1   
    29   13   29 1   
    30   13   30 1   
    31   14   15 1   
    32   15   16 1   
    33   15   31 1   
    34   15   32 1   
    35   16   33 1   
    36   16   34 1   
@<TRIPOS>SUBSTRUCTURE
     1 2LX         1 TEMP              0 ****  ****    0 ROOT
