@<TRIPOS>MOLECULE
2LX
   34    35     1     0     0
SMALL
bcc


@<TRIPOS>ATOM
      1 C01         2.4840    2.7550    0.7980 c3        1 2LX      0.074300
      2 N02         2.1860    1.3610    0.6930 n         1 2LX     -0.552900
      3 C03         2.3220    0.6740   -0.4960 c         1 2LX      0.671700
      4 C04         1.8890   -0.7550   -0.5290 ca        1 2LX     -0.150600
      5 C05         2.7250   -1.6600   -1.1970 ca        1 2LX     -0.065000
      6 C06         2.3900   -3.0090   -1.2810 ca        1 2LX     -0.152000
      7 C07         1.2100   -3.4730   -0.6970 ca        1 2LX     -0.093000
      8 C08         0.3620   -2.5910   -0.0350 ca        1 2LX     -0.176000
      9 C09         0.6990   -1.2300    0.0490 ca        1 2LX      0.130100
     10 O10        -0.0870   -0.3580    0.7860 os        1 2LX     -0.358900
     11 C11        -1.4540   -0.2460    0.3420 c3        1 2LX      0.149100
     12 C12        -2.2370    0.2610    1.5490 c3        1 2LX     -0.129900
     13 C13        -3.6580    0.6020    1.1330 c3        1 2LX      0.127900
     14 O14        -3.6930    1.5310    0.0570 os        1 2LX     -0.411600
     15 C15        -3.0070    1.0660   -1.1010 c3        1 2LX      0.127900
     16 C16        -1.5520    0.7460   -0.8100 c3        1 2LX     -0.129900
     17 O17         2.8580    1.2000   -1.4950 o         1 2LX     -0.614100
     18 H1          3.1970    3.0590   -0.0140 h1        1 2LX      0.043367
     19 H2          1.5520    3.3780    0.7090 h1        1 2LX      0.043367
     20 H3          2.9540    2.9540    1.7980 h1        1 2LX      0.043367
     21 H4          1.6110    0.9640    1.4010 hn        1 2LX      0.323500
     22 H5          3.6470   -1.2810   -1.6680 ha        1 2LX      0.159000
     23 H6          3.0550   -3.7070   -1.8090 ha        1 2LX      0.141000
     24 H7          0.9490   -4.5400   -0.7570 ha        1 2LX      0.137000
     25 H8         -0.5640   -2.9540    0.4340 ha        1 2LX      0.142000
     26 H9         -1.8390   -1.2530    0.0220 h1        1 2LX      0.050700
     27 H10        -2.2500   -0.5180    2.3510 hc        1 2LX      0.066450
     28 H11        -1.7290    1.1720    1.9600 hc        1 2LX      0.066450
     29 H12        -4.2150   -0.3290    0.8440 h1        1 2LX      0.051200
     30 H13        -4.2010    1.1270    1.9630 h1        1 2LX      0.051200
     31 H14        -3.5340    0.1630   -1.5100 h1        1 2LX      0.051200
     32 H15        -3.0940    1.9180   -1.8270 h1        1 2LX      0.051200
     33 H16        -1.0040    1.6840   -0.5340 hc        1 2LX      0.066450
     34 H17        -1.0670    0.3220   -1.7260 hc        1 2LX      0.066450
@<TRIPOS>BOND
     1    1    2 1   
     2    1   18 1   
     3    1   19 1   
     4    1   20 1   
     5    2    3 1   
     6    2   21 1   
     7    3    4 1   
     8    3   17 2   
     9    4    5 ar  
    10    4    9 ar  
    11    5    6 ar  
    12    5   22 1   
    13    6    7 ar  
    14    6   23 1   
    15    7    8 ar  
    16    7   24 1   
    17    8    9 ar  
    18    8   25 1   
    19    9   10 1   
    20   10   11 1   
    21   11   12 1   
    22   11   16 1   
    23   11   26 1   
    24   12   13 1   
    25   12   27 1   
    26   12   28 1   
    27   13   14 1   
    28   13   29 1   
    29   13   30 1   
    30   14   15 1   
    31   15   16 1   
    32   15   31 1   
    33   15   32 1   
    34   16   33 1   
    35   16   34 1   
@<TRIPOS>SUBSTRUCTURE
     1 2LX         1 TEMP              0 ****  ****    0 ROOT
