@<TRIPOS>MOLECULE
2LY
   23    24     1     0     0
SMALL
bcc


@<TRIPOS>ATOM
      1 C01        -0.0210   -0.0050   -0.0640 c3        1 2LY      0.084100
      2 N02         1.4550   -0.0100   -0.1320 n4        1 2LY     -0.679800
      3 C03         2.1210   -0.0240    1.2550 c         1 2LY      0.617700
      4 C04         3.5470   -0.0050    1.2160 cc        1 2LY     -0.306700
      5 C05         4.3380   -0.0480    2.3760 cd        1 2LY      0.203100
      6 C06         5.7440   -0.0040    2.0610 cd        1 2LY      0.015100
      7 C07         5.9730    0.0570    0.7050 cc        1 2LY     -0.063100
      8 S08         4.5470    0.0620   -0.1580 ss        1 2LY      0.036200
      9 O09         6.7100   -0.0500    3.0320 os        1 2LY     -0.266900
     10 C10         6.1950    0.3400    4.3210 c3        1 2LY      0.082400
     11 C11         4.8820   -0.3560    4.6370 c3        1 2LY      0.084400
     12 O12         3.8600   -0.0970    3.6370 os        1 2LY     -0.258900
     13 O13         1.3480   -0.0500    2.2000 o         1 2LY     -0.416100
     14 H1         -0.3660    0.9050    0.4980 hx        1 2LY      0.111700
     15 H2         -0.4410    0.0030   -1.1050 hx        1 2LY      0.111700
     16 H3         -0.3730   -0.9200    0.4860 hx        1 2LY      0.111700
     17 H4          1.7780    0.8230   -0.6350 hn        1 2LY      0.454800
     18 H5          6.9610    0.0980    0.2350 h4        1 2LY      0.222000
     19 H6          6.0770    1.4550    4.3360 h1        1 2LY      0.098700
     20 H7          7.0030    0.0170    5.0310 h1        1 2LY      0.098700
     21 H8          5.0100   -1.4680    4.6950 h1        1 2LY      0.102700
     22 H9          4.4190    0.0450    5.5780 h1        1 2LY      0.102700
     23 H022        1.7720   -0.8390   -0.6460 hn        1 2LY      0.454800
@<TRIPOS>BOND
     1    1    2 1   
     2    1   14 1   
     3    1   15 1   
     4    1   16 1   
     5    2    3 1   
     6    2   17 1   
     7    2   23 1   
     8    3    4 1   
     9    3   13 2   
    10    4    5 2   
    11    4    8 1   
    12    5    6 1   
    13    5   12 1   
    14    6    7 2   
    15    6    9 1   
    16    7    8 1   
    17    7   18 1   
    18    9   10 1   
    19   10   11 1   
    20   10   19 1   
    21   10   20 1   
    22   11   12 1   
    23   11   21 1   
    24   11   22 1   
@<TRIPOS>SUBSTRUCTURE
     1 2LY         1 TEMP              0 ****  ****    0 ROOT
