@<TRIPOS>MOLECULE
2LY
   23    24     1     0     0
SMALL
bcc


@<TRIPOS>ATOM
      1 C01        -0.0230   -0.0000   -0.0600 c3        1 2LY      0.084100
      2 N02         1.4530   -0.0060   -0.1300 n4        1 2LY     -0.679800
      3 C03         2.1200   -0.0220    1.2560 c         1 2LY      0.617700
      4 C04         3.5460   -0.0060    1.2160 cc        1 2LY     -0.306700
      5 C05         4.3380   -0.0490    2.3750 cd        1 2LY      0.203100
      6 C06         5.7440   -0.0080    2.0590 cd        1 2LY      0.015100
      7 C07         5.9720    0.0520    0.7030 cc        1 2LY     -0.063100
      8 S08         4.5450    0.0590   -0.1590 ss        1 2LY      0.036200
      9 O09         6.7120   -0.0550    3.0300 os        1 2LY     -0.266900
     10 C10         6.1970    0.3360    4.3180 c3        1 2LY      0.082400
     11 C11         4.8840   -0.3560    4.6360 c3        1 2LY      0.084400
     12 O12         3.8620   -0.0970    3.6370 os        1 2LY     -0.258900
     13 O13         1.3480   -0.0470    2.2030 o         1 2LY     -0.416100
     14 H1         -0.3670    0.9100    0.5030 hx        1 2LY      0.111700
     15 H2         -0.4430    0.0100   -1.1010 hx        1 2LY      0.111700
     16 H3         -0.3750   -0.9150    0.4890 hx        1 2LY      0.111700
     17 H4          1.7690   -0.8350   -0.6450 hn        1 2LY      0.454800
     18 H5          6.9600    0.0910    0.2320 h4        1 2LY      0.222000
     19 H6          7.0050    0.0130    5.0280 h1        1 2LY      0.098700
     20 H7          6.0820    1.4520    4.3330 h1        1 2LY      0.098700
     21 H8          5.0100   -1.4690    4.6950 h1        1 2LY      0.102700
     22 H9          4.4230    0.0460    5.5780 h1        1 2LY      0.102700
     23 H022        1.7770    0.8270   -0.6320 hn        1 2LY      0.454800
@<TRIPOS>BOND
     1    1    2 1   
     2    1   14 1   
     3    1   15 1   
     4    1   16 1   
     5    2    3 1   
     6    2   17 1   
     7    2   23 1   
     8    3    4 1   
     9    3   13 2   
    10    4    5 2   
    11    4    8 1   
    12    5    6 1   
    13    5   12 1   
    14    6    7 2   
    15    6    9 1   
    16    7    8 1   
    17    7   18 1   
    18    9   10 1   
    19   10   11 1   
    20   10   19 1   
    21   10   20 1   
    22   11   12 1   
    23   11   21 1   
    24   11   22 1   
@<TRIPOS>SUBSTRUCTURE
     1 2LY         1 TEMP              0 ****  ****    0 ROOT
