@<TRIPOS>MOLECULE
2LY
   22    23     1     0     0
SMALL
bcc


@<TRIPOS>ATOM
      1 C01         3.7180    1.2740    0.2130 c3        1 2LY      0.080300
      2 N02         2.3880    0.7570    0.1640 n         1 2LY     -0.558900
      3 C03         2.0350   -0.2930   -0.6560 c         1 2LY      0.710700
      4 C04         0.6230   -0.7090   -0.6810 cc        1 2LY     -0.200700
      5 C05        -0.4910   -0.0400   -0.1910 cd        1 2LY      0.066100
      6 C06        -1.7010   -0.7800   -0.4210 cd        1 2LY      0.022100
      7 C07        -1.4560   -1.9720   -1.0740 cc        1 2LY     -0.192100
      8 S08         0.1580   -2.1660   -1.3880 ss        1 2LY      0.172200
      9 O09        -2.9450   -0.3180   -0.0590 os        1 2LY     -0.290900
     10 C10        -2.8620    0.7460    0.9020 c3        1 2LY      0.091400
     11 C11        -1.7940    1.7620    0.5310 c3        1 2LY      0.094400
     12 O12        -0.4850    1.1670    0.4670 os        1 2LY     -0.309900
     13 O13         2.8940   -0.8930   -1.3410 o         1 2LY     -0.627100
     14 H1          4.4250    0.5880   -0.3270 h1        1 2LY      0.043367
     15 H2          3.7640    2.2900   -0.2650 h1        1 2LY      0.043367
     16 H3          4.0440    1.3680    1.2840 h1        1 2LY      0.043367
     17 H4          1.6820    1.2530    0.6540 hn        1 2LY      0.325500
     18 H5         -2.2240   -2.6940   -1.3520 h4        1 2LY      0.190000
     19 H6         -3.8840    1.2060    0.8780 h1        1 2LY      0.073700
     20 H7         -2.6530    0.3010    1.9100 h1        1 2LY      0.073700
     21 H8         -2.0170    2.2290   -0.4640 h1        1 2LY      0.074700
     22 H9         -1.6860    2.5480    1.3230 h1        1 2LY      0.074700
@<TRIPOS>BOND
     1    1    2 1   
     2    1   14 1   
     3    1   15 1   
     4    1   16 1   
     5    2    3 1   
     6    2   17 1   
     7    3    4 1   
     8    3   13 2   
     9    4    5 2   
    10    4    8 1   
    11    5    6 1   
    12    5   12 1   
    13    6    7 2   
    14    6    9 1   
    15    7    8 1   
    16    7   18 1   
    17    9   10 1   
    18   10   11 1   
    19   10   19 1   
    20   10   20 1   
    21   11   12 1   
    22   11   21 1   
    23   11   22 1   
@<TRIPOS>SUBSTRUCTURE
     1 2LY         1 TEMP              0 ****  ****    0 ROOT
