@<TRIPOS>MOLECULE
2LY
   22    20     1     0     0
SMALL
bcc


@<TRIPOS>ATOM
      1 C01        -3.9460   -1.4740   -0.9260 c3        1 2LY     -0.075000
      2 N02        -2.7460   -0.6790   -1.0760 n         1 2LY     -0.368000
      3 C03        -1.9270   -0.3930    0.0670 c2        1 2LY      0.384000
      4 C04        -0.4390   -0.6730    0.0210 c2        1 2LY     -0.450000
      5 C05         0.6230    0.3000    0.2680 c1        1 2LY      0.021000
      6 C06         2.0420   -0.4830    0.2560 c1        1 2LY     -0.023000
      7 C07         1.7870   -1.8920    0.0040 c1        1 2LY     -0.462000
      8 S08         0.2310   -2.0820   -0.1550 ss        1 2LY      0.712000
      9 O09         3.2220    0.2830    0.5560 o         1 2LY     -0.183500
     10 C10         3.0440    1.5590    0.9580 c3        1 2LY     -0.057500
     11 C11         1.8850    2.3290    0.3280 c3        1 2LY     -0.057500
     12 O12         0.6630    1.7350    0.3840 o         1 2LY     -0.183500
     13 O13        -2.4120    0.1320    1.0420 o         1 2LY     -0.388000
     14 H1         -4.7100   -0.8830   -0.7310 h1        1 2LY      0.082667
     15 H2         -3.8260   -2.1080   -0.1880 h1        1 2LY      0.082667
     16 H3         -4.1170   -1.9670   -1.7550 h1        1 2LY      0.082667
     17 H4         -2.5280   -0.3410   -1.8840 hn        1 2LY      0.239000
     18 H5          2.4510   -2.5860   -0.0560 DU        1 2LY      0.190000
     19 H6          3.8790    2.0570    0.7670 h1        1 2LY      0.113500
     20 H7          2.9090    1.5530    1.9300 h1        1 2LY      0.113500
     21 H8          2.1010    2.4400   -0.6150 h1        1 2LY      0.113500
     22 H9          1.8120    3.1710    0.8080 h1        1 2LY      0.113500
@<TRIPOS>BOND
     1    1    2 1   
     2    1   14 1   
     3    1   15 1   
     4    1   16 1   
     5    2    3 1   
     6    2   17 1   
     7    3    4 1   
     8    3   13 1   
     9    4    5 1   
    10    4    8 1   
    11    5    6 1   
    12    6    7 1   
    13    7    8 1   
    14    9   10 1   
    15   10   11 1   
    16   10   19 1   
    17   10   20 1   
    18   11   12 1   
    19   11   21 1   
    20   11   22 1   
@<TRIPOS>SUBSTRUCTURE
     1 2LY         1 TEMP              0 ****  ****    0 ROOT
