@<TRIPOS>MOLECULE
2LY
   23    24     1     0     0
SMALL
bcc


@<TRIPOS>ATOM
      1 C01        -0.0240   -0.0010   -0.0590 c3        1 2LY      0.084100
      2 N02         1.4520   -0.0100   -0.1300 ny        1 2LY     -0.679800
      3 C03         2.1200   -0.0250    1.2570 c         1 2LY      0.617700
      4 C04         3.5460   -0.0060    1.2160 cc        1 2LY     -0.306700
      5 C05         4.3380   -0.0490    2.3750 cd        1 2LY      0.203100
      6 C06         5.7440   -0.0040    2.0580 cd        1 2LY      0.015100
      7 C07         5.9710    0.0580    0.7020 cc        1 2LY     -0.063100
      8 S08         4.5450    0.0630   -0.1590 ss        1 2LY      0.036200
      9 O09         6.7120   -0.0500    3.0290 os        1 2LY     -0.266900
     10 C10         6.1970    0.3380    4.3180 c3        1 2LY      0.082400
     11 C11         4.8850   -0.3580    4.6350 c3        1 2LY      0.084400
     12 O12         3.8620   -0.0990    3.6370 os        1 2LY     -0.258900
     13 O13         1.3480   -0.0520    2.2030 o         1 2LY     -0.416100
     14 H1         -0.4440    0.0070   -1.1000 hx        1 2LY      0.111700
     15 H2         -0.3660    0.9100    0.5030 hx        1 2LY      0.111700
     16 H3         -0.3770   -0.9150    0.4920 hx        1 2LY      0.111700
     17 H4          1.7770    0.8220   -0.6330 hn        1 2LY      0.454800
     18 H5          6.9590    0.1000    0.2310 h4        1 2LY      0.222000
     19 H6          6.0800    1.4540    4.3340 h1        1 2LY      0.098700
     20 H7          7.0060    0.0160    5.0270 h1        1 2LY      0.098700
     21 H8          4.4230    0.0420    5.5770 h1        1 2LY      0.102700
     22 H9          5.0140   -1.4700    4.6930 h1        1 2LY      0.102700
     23 H022        1.7670   -0.8400   -0.6430 hn        1 2LY      0.454800
@<TRIPOS>BOND
     1    1    2 1   
     2    1   14 1   
     3    1   15 1   
     4    1   16 1   
     5    2    3 1   
     6    2   17 1   
     7    2   23 1   
     8    3    4 1   
     9    3   13 2   
    10    4    5 2   
    11    4    8 1   
    12    5    6 1   
    13    5   12 1   
    14    6    7 2   
    15    6    9 1   
    16    7    8 1   
    17    7   18 1   
    18    9   10 1   
    19   10   11 1   
    20   10   19 1   
    21   10   20 1   
    22   11   12 1   
    23   11   21 1   
    24   11   22 1   
@<TRIPOS>SUBSTRUCTURE
     1 2LY         1 TEMP              0 ****  ****    0 ROOT
