@<TRIPOS>MOLECULE
2M0
   32    31     1     0     0
SMALL
bcc


@<TRIPOS>ATOM
      1 C26         0.0910    0.7730   -0.3430 c3        1 2M0     -0.336600
      2 C28         4.0590    0.0160    2.8100 c3        1 2M0     -0.078700
      3 C41         1.5840    0.6890   -0.1190 c3        1 2M0     -0.074400
      4 S42        -0.5400   -0.5960   -1.1850 s6        1 2M0      1.349000
      5 O43         0.1120   -0.7270   -2.4070 o         1 2M0     -0.667800
      6 O44        -0.3710   -1.6630   -0.2670 o         1 2M0     -0.667800
      7 C45        -2.1400   -0.1780   -1.3480 c3        1 2M0     -0.405300
      8 C25         2.0010    0.1910    1.2720 c3        1 2M0      0.124500
      9 C27         3.4950    0.4670    1.4710 c3        1 2M0     -0.114400
     10 C30         5.5000    0.4850    2.9170 c3        1 2M0     -0.101100
     11 C29         3.2540    0.5430    3.9790 c3        1 2M0     -0.101100
     12 N24         1.6810   -1.2620    1.4790 n4        1 2M0     -0.845600
     13 H14        -0.4330    0.9360    0.6340 h1        1 2M0      0.125700
     14 H15        -0.1070    1.7140   -0.9320 h1        1 2M0      0.125700
     15 H16         4.0710   -1.1100    2.8540 hc        1 2M0      0.033700
     16 H17         2.0600    0.0590   -0.9220 hc        1 2M0      0.097200
     17 H18         2.0260    1.7200   -0.2240 hc        1 2M0      0.097200
     18 H19        -2.8310   -1.0270   -1.0870 h1        1 2M0      0.149700
     19 H20        -2.4080    0.1010   -2.4060 h1        1 2M0      0.149700
     20 H21        -2.4910    0.6820   -0.7220 h1        1 2M0      0.149700
     21 H22         1.4150    0.7550    2.0610 hx        1 2M0      0.108700
     22 H23         4.0830   -0.0100    0.6410 hc        1 2M0      0.085700
     23 H24         3.6330    1.5800    1.3800 hc        1 2M0      0.085700
     24 H25         5.9590    0.0960    3.8580 hc        1 2M0      0.050700
     25 H26         5.5500    1.6010    2.9360 hc        1 2M0      0.050700
     26 H27         6.0980    0.1150    2.0500 hc        1 2M0      0.050700
     27 H28         3.7830    0.3180    4.9390 hc        1 2M0      0.050700
     28 H29         2.2440    0.0690    4.0240 hc        1 2M0      0.050700
     29 H30         3.1260    1.6500    3.9050 hc        1 2M0      0.050700
     30 H31         0.6590   -1.4130    1.4550 hn        1 2M0      0.467800
     31 H2          2.0930   -1.8270    0.7300 hn        1 2M0      0.467800
     32 H243        2.0540   -1.5700    2.3810 hn        1 2M0      0.467800
@<TRIPOS>BOND
     1    1    3 1   
     2    1    4 1   
     3    1   13 1   
     4    1   14 1   
     5    2    9 1   
     6    2   10 1   
     7    2   11 1   
     8    2   15 1   
     9    3    8 1   
    10    3   16 1   
    11    3   17 1   
    12    4    5 2   
    13    4    6 2   
    14    4    7 1   
    15    7   18 1   
    16    7   19 1   
    17    7   20 1   
    18    8    9 1   
    19    8   12 1   
    20    8   21 1   
    21    9   22 1   
    22    9   23 1   
    23   10   24 1   
    24   10   25 1   
    25   10   26 1   
    26   11   27 1   
    27   11   28 1   
    28   11   29 1   
    29   12   30 1   
    30   12   31 1   
    31   12   32 1   
@<TRIPOS>SUBSTRUCTURE
     1 2M0         1 TEMP              0 ****  ****    0 ROOT
