@<TRIPOS>MOLECULE
2M0
   32    31     1     0     0
SMALL
bcc


@<TRIPOS>ATOM
      1 C26         0.1150    0.6940   -0.4050 c3        1 2M0     -0.336600
      2 C28         4.1110    0.0710    2.7420 c3        1 2M0     -0.078700
      3 C41         1.5970    0.4730   -0.2040 c3        1 2M0     -0.073400
      4 S42        -0.7070   -0.7230   -0.9540 s6        1 2M0      1.349000
      5 O43        -0.1350   -1.1550   -2.1460 o         1 2M0     -0.667800
      6 O44        -0.6150   -1.6130    0.1460 o         1 2M0     -0.667800
      7 C45        -2.2570   -0.1550   -1.1490 c3        1 2M0     -0.405300
      8 C25         2.0170    0.1990    1.2460 c3        1 2M0      0.124500
      9 C27         3.5410    0.3270    1.3550 c3        1 2M0     -0.114400
     10 C30         5.5980    0.3770    2.7240 c3        1 2M0     -0.101100
     11 C29         3.4240    0.9000    3.8070 c3        1 2M0     -0.101100
     12 N24         1.5460   -1.1410    1.7360 nz        1 2M0     -0.845600
     13 H14        -0.0020    1.5230   -1.1590 h1        1 2M0      0.126200
     14 H15        -0.3420    1.0990    0.5350 h1        1 2M0      0.126200
     15 H16         3.9980   -1.0200    3.0000 hc        1 2M0      0.033700
     16 H17         2.1480    1.4050   -0.5150 hc        1 2M0      0.097200
     17 H18         1.9600   -0.3500   -0.8810 hc        1 2M0      0.097200
     18 H19        -2.5660   -0.1130   -2.2310 h1        1 2M0      0.150033
     19 H20        -2.4610    0.8710   -0.7480 h1        1 2M0      0.150033
     20 H21        -3.0200   -0.8170   -0.6530 h1        1 2M0      0.150033
     21 H22         1.5350    0.9670    1.9270 hx        1 2M0      0.108700
     22 H23         3.7990    1.3780    1.0490 hc        1 2M0      0.085700
     23 H24         4.0330   -0.3640    0.6180 hc        1 2M0      0.085700
     24 H25         6.1110   -0.2170    1.9300 hc        1 2M0      0.050700
     25 H26         5.7740    1.4620    2.5280 hc        1 2M0      0.050700
     26 H27         6.0530    0.1190    3.7110 hc        1 2M0      0.050700
     27 H28         2.3700    0.5660    3.9650 hc        1 2M0      0.050700
     28 H29         3.9670    0.7980    4.7790 hc        1 2M0      0.050700
     29 H30         3.4180    1.9810    3.5250 hc        1 2M0      0.050700
     30 H31         0.5130   -1.1710    1.7660 hn        1 2M0      0.467800
     31 H2          1.8560   -1.8820    1.0990 hn        1 2M0      0.467800
     32 H243        1.9230   -1.3170    2.6710 hn        1 2M0      0.467800
@<TRIPOS>BOND
     1    1    3 1   
     2    1    4 1   
     3    1   13 1   
     4    1   14 1   
     5    2    9 1   
     6    2   10 1   
     7    2   11 1   
     8    2   15 1   
     9    3    8 1   
    10    3   16 1   
    11    3   17 1   
    12    4    5 2   
    13    4    6 2   
    14    4    7 1   
    15    7   18 1   
    16    7   19 1   
    17    7   20 1   
    18    8    9 1   
    19    8   12 1   
    20    8   21 1   
    21    9   22 1   
    22    9   23 1   
    23   10   24 1   
    24   10   25 1   
    25   10   26 1   
    26   11   27 1   
    27   11   28 1   
    28   11   29 1   
    29   12   30 1   
    30   12   31 1   
    31   12   32 1   
@<TRIPOS>SUBSTRUCTURE
     1 2M0         1 TEMP              0 ****  ****    0 ROOT
