@<TRIPOS>MOLECULE
2M0
   32    31     1     0     0
SMALL
bcc


@<TRIPOS>ATOM
      1 C26         0.1120    0.7030   -0.3980 c3        1 2M0     -0.336600
      2 C28         4.1120    0.0620    2.7410 c3        1 2M0     -0.078700
      3 C41         1.5950    0.4850   -0.2000 c3        1 2M0     -0.073400
      4 S42        -0.7060   -0.7110   -0.9590 s6        1 2M0      1.349000
      5 O43        -0.1330   -1.1320   -2.1540 o         1 2M0     -0.667800
      6 O44        -0.6130   -1.6090    0.1340 o         1 2M0     -0.667800
      7 C45        -2.2570   -0.1440   -1.1510 c3        1 2M0     -0.405300
      8 C25         2.0170    0.1980    1.2480 c3        1 2M0      0.124500
      9 C27         3.5410    0.3280    1.3560 c3        1 2M0     -0.114400
     10 C30         5.5990    0.3710    2.7240 c3        1 2M0     -0.101100
     11 C29         3.4250    0.8790    3.8130 c3        1 2M0     -0.101100
     12 N24         1.5480   -1.1460    1.7250 n4        1 2M0     -0.845600
     13 H14        -0.0070    1.5390   -1.1440 h1        1 2M0      0.126200
     14 H15        -0.3450    1.0990    0.5460 h1        1 2M0      0.126200
     15 H16         4.0010   -1.0320    2.9890 hc        1 2M0      0.033700
     16 H17         2.1430    1.4210   -0.5030 hc        1 2M0      0.097200
     17 H18         1.9600   -0.3310   -0.8850 hc        1 2M0      0.097200
     18 H19        -2.5570   -0.0700   -2.2330 h1        1 2M0      0.150033
     19 H20        -2.4700    0.8670   -0.7200 h1        1 2M0      0.150033
     20 H21        -3.0210   -0.8250   -0.6830 h1        1 2M0      0.150033
     21 H22         1.5340    0.9590    1.9350 hx        1 2M0      0.108700
     22 H23         3.7960    1.3830    1.0600 hc        1 2M0      0.085700
     23 H24         4.0330   -0.3540    0.6130 hc        1 2M0      0.085700
     24 H25         6.1120   -0.2150    1.9240 hc        1 2M0      0.050700
     25 H26         5.7720    1.4580    2.5370 hc        1 2M0      0.050700
     26 H27         6.0550    0.1050    3.7080 hc        1 2M0      0.050700
     27 H28         2.3710    0.5420    3.9690 hc        1 2M0      0.050700
     28 H29         3.9690    0.7700    4.7840 hc        1 2M0      0.050700
     29 H30         3.4160    1.9620    3.5410 hc        1 2M0      0.050700
     30 H31         0.5160   -1.1790    1.7560 hn        1 2M0      0.467800
     31 H2          1.8600   -1.8810    1.0820 hn        1 2M0      0.467800
     32 H243        1.9270   -1.3300    2.6590 hn        1 2M0      0.467800
@<TRIPOS>BOND
     1    1    3 1   
     2    1    4 1   
     3    1   13 1   
     4    1   14 1   
     5    2    9 1   
     6    2   10 1   
     7    2   11 1   
     8    2   15 1   
     9    3    8 1   
    10    3   16 1   
    11    3   17 1   
    12    4    5 2   
    13    4    6 2   
    14    4    7 1   
    15    7   18 1   
    16    7   19 1   
    17    7   20 1   
    18    8    9 1   
    19    8   12 1   
    20    8   21 1   
    21    9   22 1   
    22    9   23 1   
    23   10   24 1   
    24   10   25 1   
    25   10   26 1   
    26   11   27 1   
    27   11   28 1   
    28   11   29 1   
    29   12   30 1   
    30   12   31 1   
    31   12   32 1   
@<TRIPOS>SUBSTRUCTURE
     1 2M0         1 TEMP              0 ****  ****    0 ROOT
