@<TRIPOS>MOLECULE
2M2
   49    52     1     0     0
SMALL
bcc


@<TRIPOS>ATOM
      1 C1         -0.0580    2.1910    0.8990 c3        1 2M2     -0.134400
      2 C2          1.2330    1.4820    0.9280 cc        1 2M2      0.321600
      3 C3          2.3220    1.7780    1.8660 cc        1 2M2     -0.343600
      4 C4          3.3140    0.8840    1.5300 cd        1 2M2      0.241000
      5 C5          4.6950    0.6350    2.0060 c3        1 2M2      0.174500
      6 N6          4.9500   -0.7600    2.2890 nu        1 2M2     -0.826900
      7 C7          6.2720   -1.1630    2.5590 ca        1 2M2      0.889900
      8 N8          7.1840   -0.2070    2.9920 nb        1 2M2     -0.773000
      9 C9          8.3910   -0.6750    3.3510 ca        1 2M2      0.482200
     10 C10         8.7580   -2.0220    3.2980 ca        1 2M2     -0.460600
     11 C11         7.7760   -2.9410    2.8060 ca        1 2M2      0.703200
     12 N12         8.1610   -4.2840    2.6320 nu        1 2M2     -0.789600
     13 C13         7.2060   -5.2930    2.4150 cc        1 2M2      0.504200
     14 C14         6.2190   -5.3220    1.3470 cc        1 2M2     -0.249300
     15 C15         5.5670   -6.5560    1.4960 cd        1 2M2     -0.103600
     16 C16         4.4580   -7.1270    0.7050 c3        1 2M2     -0.015100
     17 C17         4.8430   -8.4380    0.0380 c3        1 2M2     -0.036100
     18 C18         3.7440   -8.9480   -0.8270 ca        1 2M2     -0.084300
     19 C19         2.9870  -10.0580   -0.4360 ca        1 2M2     -0.126000
     20 C20         1.9660  -10.5360   -1.2560 ca        1 2M2     -0.127000
     21 C21         1.6920   -9.9090   -2.4710 ca        1 2M2     -0.129000
     22 C22         2.4430   -8.8020   -2.8660 ca        1 2M2     -0.127000
     23 C23         3.4650   -8.3230   -2.0490 ca        1 2M2     -0.126000
     24 N24         6.1660   -7.1880    2.5960 na        1 2M2     -0.008600
     25 N26         7.1270   -6.4630    3.1540 nd        1 2M2     -0.551800
     26 N27         6.5320   -2.5190    2.4360 nb        1 2M2     -0.784000
     27 O28         2.8400    0.0960    0.4500 os        1 2M2     -0.127100
     28 N29         1.6190    0.4690    0.1240 nd        1 2M2     -0.354300
     29 H1         -0.5690    2.0740    1.8880 hc        1 2M2      0.059700
     30 H2          0.1190    3.2800    0.7150 hc        1 2M2      0.059700
     31 H3         -0.7340    1.7990    0.0990 hc        1 2M2      0.059700
     32 H4          2.3090    2.5360    2.6410 ha        1 2M2      0.178000
     33 H5          4.8540    1.2250    2.9560 h1        1 2M2      0.077700
     34 H6          5.4090    1.0380    1.2240 h1        1 2M2      0.077700
     35 H7          4.4030   -1.4110    1.7620 hn        1 2M2      0.441800
     36 H8          9.1070    0.0920    3.7030 h4        1 2M2      0.025100
     37 H9          9.7560   -2.3500    3.6060 ha        1 2M2      0.153000
     38 H10         8.9220   -4.5520    3.2270 hn        1 2M2      0.432800
     39 H11         6.0280   -4.5450    0.6170 ha        1 2M2      0.180000
     40 H12         4.1630   -6.3790   -0.0800 hc        1 2M2      0.066700
     41 H13         3.5630   -7.2890    1.3650 hc        1 2M2      0.066700
     42 H14         5.7640   -8.2810   -0.5860 hc        1 2M2      0.051200
     43 H15         5.0990   -9.1990    0.8220 hc        1 2M2      0.051200
     44 H16         3.2000  -10.5580    0.5200 ha        1 2M2      0.131000
     45 H17         1.3760  -11.4100   -0.9420 ha        1 2M2      0.132500
     46 H18         0.8860  -10.2870   -3.1170 ha        1 2M2      0.132000
     47 H19         2.2300   -8.3060   -3.8240 ha        1 2M2      0.132500
     48 H20         4.0580   -7.4510   -2.3620 ha        1 2M2      0.131000
     49 H21         5.9570   -8.0910    2.9490 hn        1 2M2      0.321700
@<TRIPOS>BOND
     1    1    2 1   
     2    1   29 1   
     3    1   30 1   
     4    1   31 1   
     5    2    3 1   
     6    2   28 2   
     7    3    4 2   
     8    3   32 1   
     9    4    5 1   
    10    4   27 1   
    11    5    6 1   
    12    5   33 1   
    13    5   34 1   
    14    6    7 1   
    15    6   35 1   
    16    7    8 ar  
    17    7   26 ar  
    18    8    9 ar  
    19    9   10 ar  
    20    9   36 1   
    21   10   11 ar  
    22   10   37 1   
    23   11   12 1   
    24   11   26 ar  
    25   12   13 1   
    26   12   38 1   
    27   13   14 1   
    28   13   25 2   
    29   14   15 2   
    30   14   39 1   
    31   15   16 1   
    32   15   24 1   
    33   16   17 1   
    34   16   40 1   
    35   16   41 1   
    36   17   18 1   
    37   17   42 1   
    38   17   43 1   
    39   18   19 ar  
    40   18   23 ar  
    41   19   20 ar  
    42   19   44 1   
    43   20   21 ar  
    44   20   45 1   
    45   21   22 ar  
    46   21   46 1   
    47   22   23 ar  
    48   22   47 1   
    49   23   48 1   
    50   24   25 1   
    51   24   49 1   
    52   27   28 1   
@<TRIPOS>SUBSTRUCTURE
     1 2M2         1 TEMP              0 ****  ****    0 ROOT
