@<TRIPOS>MOLECULE
2M2
   49    52     1     0     0
SMALL
bcc


@<TRIPOS>ATOM
      1 C1          3.8260    6.4510    1.9780 c3        1 2M2     -0.134400
      2 C2          3.6100    5.1370    1.3460 cc        1 2M2      0.321600
      3 C3          4.5100    3.9880    1.4920 cc        1 2M2     -0.343600
      4 C4          3.9210    2.9950    0.7410 cd        1 2M2      0.241000
      5 C5          4.2830    1.6030    0.3900 c3        1 2M2      0.174500
      6 N6          3.2010    0.6680    0.6050 nh        1 2M2     -0.826900
      7 C7          3.3440   -0.6510    0.1300 ca        1 2M2      0.889900
      8 N8          4.6240   -1.1400   -0.1020 nb        1 2M2     -0.773000
      9 C9          4.6990   -2.4390   -0.4340 ca        1 2M2      0.482200
     10 C10         3.5930   -3.2810   -0.5640 ca        1 2M2     -0.460600
     11 C11         2.3040   -2.6940   -0.3450 ca        1 2M2      0.703200
     12 N12         1.1690   -3.4910   -0.5850 nh        1 2M2     -0.789600
     13 C13        -0.1060   -3.0940   -0.1460 cc        1 2M2      0.504200
     14 C14        -0.7750   -1.8470   -0.4800 cc        1 2M2     -0.249300
     15 C15        -2.0440   -1.9510    0.1130 cd        1 2M2     -0.103600
     16 C16        -3.1520   -0.9750    0.1240 c3        1 2M2     -0.015100
     17 C17        -4.4120   -1.5280   -0.5220 c3        1 2M2     -0.036100
     18 C18        -5.4850   -0.4980   -0.5850 ca        1 2M2     -0.084300
     19 C19        -6.5980   -0.5770    0.2590 ca        1 2M2     -0.126000
     20 C20        -7.6040    0.3860    0.1880 ca        1 2M2     -0.127000
     21 C21        -7.5050    1.4350   -0.7260 ca        1 2M2     -0.129000
     22 C22        -6.3980    1.5180   -1.5710 ca        1 2M2     -0.127000
     23 C23        -5.3920    0.5560   -1.5020 ca        1 2M2     -0.126000
     24 N24        -2.0800   -3.2010    0.7470 na        1 2M2     -0.008600
     25 N26        -0.9520   -3.8880    0.6120 nd        1 2M2     -0.551800
     26 N27         2.1720   -1.3810    0.0020 nb        1 2M2     -0.784000
     27 O28         2.7310    3.5260    0.1800 os        1 2M2     -0.127100
     28 N29         2.5760    4.7790    0.5550 nd        1 2M2     -0.354300
     29 H1          3.8620    6.3280    3.0900 hc        1 2M2      0.059700
     30 H2          4.8030    6.8730    1.6340 hc        1 2M2      0.059700
     31 H3          3.0140    7.1760    1.7250 hc        1 2M2      0.059700
     32 H4          5.4240    3.9630    2.0740 ha        1 2M2      0.178000
     33 H5          4.6300    1.5970   -0.6890 h1        1 2M2      0.077700
     34 H6          5.1570    1.2900    1.0350 h1        1 2M2      0.077700
     35 H7          2.2810    1.0540    0.5290 hn        1 2M2      0.441800
     36 H8          5.7230   -2.8220   -0.6070 h4        1 2M2      0.025100
     37 H9          3.7110   -4.3350   -0.8340 ha        1 2M2      0.153000
     38 H10         1.3540   -4.4720   -0.4910 hn        1 2M2      0.432800
     39 H11        -0.3650   -1.0190   -1.0470 ha        1 2M2      0.180000
     40 H12        -3.3760   -0.6640    1.1810 hc        1 2M2      0.066700
     41 H13        -2.8190   -0.0570   -0.4310 hc        1 2M2      0.066700
     42 H14        -4.1730   -1.8800   -1.5620 hc        1 2M2      0.051200
     43 H15        -4.7710   -2.4210    0.0560 hc        1 2M2      0.051200
     44 H16        -6.6820   -1.4030    0.9810 ha        1 2M2      0.131000
     45 H17        -8.4760    0.3170    0.8540 ha        1 2M2      0.132500
     46 H18        -8.2990    2.1940   -0.7820 ha        1 2M2      0.132000
     47 H19        -6.3180    2.3430   -2.2930 ha        1 2M2      0.132500
     48 H20        -4.5210    0.6220   -2.1700 ha        1 2M2      0.131000
     49 H21        -2.8480   -3.5990    1.2340 hn        1 2M2      0.321700
@<TRIPOS>BOND
     1    1    2 1   
     2    1   29 1   
     3    1   30 1   
     4    1   31 1   
     5    2    3 1   
     6    2   28 2   
     7    3    4 2   
     8    3   32 1   
     9    4    5 1   
    10    4   27 1   
    11    5    6 1   
    12    5   33 1   
    13    5   34 1   
    14    6    7 1   
    15    6   35 1   
    16    7    8 ar  
    17    7   26 ar  
    18    8    9 ar  
    19    9   10 ar  
    20    9   36 1   
    21   10   11 ar  
    22   10   37 1   
    23   11   12 1   
    24   11   26 ar  
    25   12   13 1   
    26   12   38 1   
    27   13   14 1   
    28   13   25 2   
    29   14   15 2   
    30   14   39 1   
    31   15   16 1   
    32   15   24 1   
    33   16   17 1   
    34   16   40 1   
    35   16   41 1   
    36   17   18 1   
    37   17   42 1   
    38   17   43 1   
    39   18   19 ar  
    40   18   23 ar  
    41   19   20 ar  
    42   19   44 1   
    43   20   21 ar  
    44   20   45 1   
    45   21   22 ar  
    46   21   46 1   
    47   22   23 ar  
    48   22   47 1   
    49   23   48 1   
    50   24   25 1   
    51   24   49 1   
    52   27   28 1   
@<TRIPOS>SUBSTRUCTURE
     1 2M2         1 TEMP              0 ****  ****    0 ROOT
