@<TRIPOS>MOLECULE
2M2
   51    54     1     0     0
SMALL
bcc


@<TRIPOS>ATOM
      1 C1          1.7710    4.9150    0.1850 c3        1 2M2     -0.155400
      2 C2          2.5680    3.7020    0.4400 cc        1 2M2      0.347600
      3 C3          3.2720    3.4170    1.7040 cc        1 2M2     -0.213600
      4 C4          3.8910    2.2080    1.4830 cd        1 2M2      0.091000
      5 C5          4.8200    1.3370    2.2090 c3        1 2M2      0.127500
      6 N6          4.2610   -0.0730    2.2630 n4        1 2M2     -0.753700
      7 C7          5.2870   -1.0470    2.7310 ca        1 2M2      0.749900
      8 N8          5.7200   -0.9110    4.0360 nb        1 2M2     -0.622000
      9 C9          6.6370   -1.7980    4.4440 ca        1 2M2      0.494200
     10 C10         7.1490   -2.8250    3.6060 ca        1 2M2     -0.248600
     11 C11         6.6390   -2.8700    2.2930 ca        1 2M2      0.537200
     12 N12         7.1110   -3.9120    1.3450 n4        1 2M2     -0.683400
     13 C13         6.5740   -5.2230    1.6560 cc        1 2M2      0.280200
     14 C14         5.8820   -6.0850    0.7260 cc        1 2M2     -0.243300
     15 C15         5.6190   -7.2520    1.4740 cd        1 2M2     -0.013600
     16 C16         4.9500   -8.5090    1.0790 c3        1 2M2     -0.046100
     17 C17         4.4820   -8.4690   -0.3680 c3        1 2M2     -0.019100
     18 C18         3.7960   -9.7400   -0.7280 ca        1 2M2     -0.121300
     19 C19         4.4780  -10.7340   -1.4390 ca        1 2M2     -0.122000
     20 C20         3.8270  -11.9170   -1.7870 ca        1 2M2     -0.118000
     21 C21         2.4940  -12.1150   -1.4270 ca        1 2M2     -0.105000
     22 C22         1.8100  -11.1250   -0.7190 ca        1 2M2     -0.118000
     23 C23         2.4580   -9.9410   -0.3700 ca        1 2M2     -0.122000
     24 N24         6.1410   -7.0160    2.7620 na        1 2M2      0.048400
     25 N26         6.7040   -5.8370    2.8950 nd        1 2M2     -0.474800
     26 N27         5.7030   -1.9860    1.8300 nb        1 2M2     -0.662000
     27 O28         3.5710    1.7900    0.1560 os        1 2M2     -0.152100
     28 N29         2.7900    2.6800   -0.4130 nd        1 2M2     -0.287300
     29 H1          2.4590    5.7830    0.0100 hc        1 2M2      0.086367
     30 H2          1.1290    5.1400    1.0740 hc        1 2M2      0.086367
     31 H3          1.1140    4.8010   -0.7140 hc        1 2M2      0.086367
     32 H4          3.2750    4.0590    2.5850 ha        1 2M2      0.205000
     33 H5          4.9770    1.7050    3.2650 hx        1 2M2      0.133200
     34 H6          5.8120    1.2840    1.6690 hx        1 2M2      0.133200
     35 H7          3.9270   -0.3330    1.3170 hn        1 2M2      0.492800
     36 H8          6.9850   -1.6910    5.4990 h4        1 2M2      0.110100
     37 H9          7.8950   -3.5430    3.9950 ha        1 2M2      0.227000
     38 H10         8.1440   -3.9450    1.4000 hn        1 2M2      0.493300
     39 H11         5.6270   -5.8970   -0.3140 ha        1 2M2      0.204000
     40 H12         4.0640   -8.6960    1.7490 hc        1 2M2      0.095200
     41 H13         5.6600   -9.3730    1.2160 hc        1 2M2      0.095200
     42 H14         5.3640   -8.3030   -1.0430 hc        1 2M2      0.050700
     43 H15         3.7780   -7.6060   -0.5110 hc        1 2M2      0.050700
     44 H16         5.5270  -10.5820   -1.7330 ha        1 2M2      0.127500
     45 H17         4.3670  -12.6950   -2.3490 ha        1 2M2      0.148000
     46 H18         1.9800  -13.0490   -1.7030 ha        1 2M2      0.152000
     47 H19         0.7570  -11.2780   -0.4380 ha        1 2M2      0.148000
     48 H20         1.9140   -9.1610    0.1800 ha        1 2M2      0.127500
     49 H21         6.1340   -7.6560    3.5360 hn        1 2M2      0.368700
     50 H62         3.4580   -0.1020    2.9110 hn        1 2M2      0.492800
     51 H122        6.8280   -3.6860    0.3740 hn        1 2M2      0.493300
@<TRIPOS>BOND
     1    1    2 1   
     2    1   29 1   
     3    1   30 1   
     4    1   31 1   
     5    2    3 1   
     6    2   28 2   
     7    3    4 2   
     8    3   32 1   
     9    4    5 1   
    10    4   27 1   
    11    5    6 1   
    12    5   33 1   
    13    5   34 1   
    14    6    7 1   
    15    6   35 1   
    16    6   50 1   
    17    7    8 ar  
    18    7   26 ar  
    19    8    9 ar  
    20    9   10 ar  
    21    9   36 1   
    22   10   11 ar  
    23   10   37 1   
    24   11   12 1   
    25   11   26 ar  
    26   12   13 1   
    27   12   38 1   
    28   12   51 1   
    29   13   14 1   
    30   13   25 2   
    31   14   15 2   
    32   14   39 1   
    33   15   16 1   
    34   15   24 1   
    35   16   17 1   
    36   16   40 1   
    37   16   41 1   
    38   17   18 1   
    39   17   42 1   
    40   17   43 1   
    41   18   19 ar  
    42   18   23 ar  
    43   19   20 ar  
    44   19   44 1   
    45   20   21 ar  
    46   20   45 1   
    47   21   22 ar  
    48   21   46 1   
    49   22   23 ar  
    50   22   47 1   
    51   23   48 1   
    52   24   25 1   
    53   24   49 1   
    54   27   28 1   
@<TRIPOS>SUBSTRUCTURE
     1 2M2         1 TEMP              0 ****  ****    0 ROOT
