@<TRIPOS>MOLECULE
2M2
   49    42     1     0     0
SMALL
bcc


@<TRIPOS>ATOM
      1 C1          5.4970   -1.8560   -2.6500 c3        1 2M2     -0.156000
      2 C2          4.8850   -0.5890   -3.2070 c2        1 2M2     -0.107000
      3 C3          3.6200   -0.4680   -3.7440 c1        1 2M2     -0.204000
      4 C4          3.4280    0.8490   -4.0840 c1        1 2M2     -0.075000
      5 C5          2.1790    1.4340   -4.7050 c2        1 2M2      0.018000
      6 N6          1.7370    2.5410   -3.9290 n3        1 2M2     -0.248000
      7 C7          0.3720    2.6440   -3.5550 c1        1 2M2      0.152000
      8 N8         -0.6040    2.5320   -4.4990 n1        1 2M2     -0.229000
      9 C9         -1.8920    2.6720   -4.1540 c1        1 2M2     -0.129750
     10 C10        -2.2260    2.9270   -2.8550 c1        1 2M2     -0.129750
     11 C11        -1.2480    3.0390   -1.9100 c1        1 2M2      0.164000
     12 N12        -1.5980    3.2270   -0.5490 n3        1 2M2     -0.193000
     13 C13        -2.1410    2.1520    0.1990 c2        1 2M2     -0.015000
     14 C14        -1.7100    1.7290    1.4230 c1        1 2M2     -0.241000
     15 C15        -2.4400    0.6280    1.7680 c1        1 2M2     -0.049000
     16 C16        -2.2760   -0.1870    3.0320 c2        1 2M2     -0.104000
     17 C17        -1.4480   -1.4180    2.7340 c3        1 2M2     -0.122000
     18 C18        -1.3690   -2.2830    3.9720 c2        1 2M2     -0.079000
     19 C19        -2.3880   -3.1780    4.2590 c2        1 2M2     -0.126000
     20 C20        -2.3230   -3.9600    5.4010 c1        1 2M2     -0.127000
     21 C21        -1.2380   -3.8480    6.2560 c1        1 2M2     -0.129750
     22 C22        -0.2190   -2.9530    5.9700 c1        1 2M2     -0.129750
     23 C23        -0.2850   -2.1710    4.8280 c1        1 2M2     -0.126000
     24 N24        -3.3100    0.3750    0.7690 n2        1 2M2     -0.159000
     25 N26        -3.1240    1.3220   -0.2060 n2        1 2M2     -0.108000
     26 N27         0.0390    2.8990   -2.2580 n1        1 2M2     -0.266000
     27 O28         4.5520    1.5320   -3.7620 os        1 2M2     -0.071000
     28 N29         5.4590    0.6320   -3.2150 n2        1 2M2     -0.020000
     29 H1          5.7320   -2.4570   -3.3870 hc        1 2M2      0.097333
     30 H2          4.8510   -2.2990   -2.0600 hc        1 2M2      0.097333
     31 H3          6.3040   -1.6320   -2.1400 hc        1 2M2      0.097333
     32 H4          2.9860   -1.1960   -3.8880 DU        1 2M2      0.207667
     33 H5          1.4760    0.7510   -4.7310 h4        1 2M2      0.130000
     34 H6          2.3770    1.7320   -5.6170 h4        1 2M2      0.130000
     35 H7          2.3230    3.2010   -3.7010 hn        1 2M2      0.222000
     36 H8         -2.5910    2.5910   -4.8300 ha        1 2M2      0.149750
     37 H9         -3.1640    3.0290   -2.6030 ha        1 2M2      0.149750
     38 H10        -1.4760    4.0410   -0.1550 hn        1 2M2      0.226000
     39 H11        -1.0270    2.1590    1.9710 DU        1 2M2      0.207667
     40 H12        -1.8250    0.3530    3.7120 ha        1 2M2      0.106500
     41 H13        -3.1560   -0.4570    3.3620 ha        1 2M2      0.106500
     42 H14        -0.5470   -1.1480    2.4670 hc        1 2M2      0.091000
     43 H15        -1.8660   -1.9240    2.0090 hc        1 2M2      0.091000
     44 H16        -3.1520   -3.2570    3.6560 ha        1 2M2      0.130000
     45 H17        -3.0400   -4.5900    5.6020 ha        1 2M2      0.133000
     46 H18        -1.1920   -4.3990    7.0610 ha        1 2M2      0.149750
     47 H19         0.5440   -2.8740    6.5720 ha        1 2M2      0.149750
     48 H20         0.4330   -1.5410    4.6260 ha        1 2M2      0.132000
     49 H21        -3.9160   -0.3060    0.7460 DU        1 2M2      0.207667
@<TRIPOS>BOND
     1    1    2 1   
     2    1   29 1   
     3    1   30 1   
     4    1   31 1   
     5    2    3 1   
     6    2   28 1   
     7    3    4 1   
     8    4   27 1   
     9    5    6 1   
    10    5   33 1   
    11    5   34 1   
    12    6    7 1   
    13    6   35 1   
    14    7    8 1   
    15    9   10 1   
    16    9   36 1   
    17   10   37 1   
    18   11   12 1   
    19   11   26 1   
    20   12   13 1   
    21   12   38 1   
    22   13   14 1   
    23   13   25 1   
    24   14   15 1   
    25   15   24 1   
    26   16   17 1   
    27   16   40 1   
    28   16   41 1   
    29   17   18 1   
    30   17   42 1   
    31   17   43 1   
    32   18   19 1   
    33   18   23 1   
    34   19   20 1   
    35   19   44 1   
    36   20   45 1   
    37   21   22 1   
    38   21   46 1   
    39   22   47 1   
    40   23   48 1   
    41   24   25 1   
    42   27   28 1   
@<TRIPOS>SUBSTRUCTURE
     1 2M2         1 TEMP              0 ****  ****    0 ROOT
