@<TRIPOS>MOLECULE
2M3
   48    48     1     0     0
SMALL
bcc


@<TRIPOS>ATOM
      1 C1          0.5310    2.5680    0.8920 c2        1 2M3     -0.208000
      2 C2          4.0410    1.5350    1.2830 c1        1 2M3      0.468800
      3 C4          0.0870    1.4530    1.4750 ce        1 2M3     -0.096200
      4 C5          0.7550    0.7180    2.5140 cc        1 2M3     -0.079800
      5 C6          2.1550    0.5580    2.6970 cd        1 2M3      0.226400
      6 C8          1.1280   -0.6520    4.3280 cd        1 2M3     -0.089600
      7 C11        -1.2960   -0.2200    3.7800 ce        1 2M3     -0.167200
      8 C12        -4.2630   -1.7130    3.3270 c3        1 2M3     -0.123100
      9 C15        -2.1990    0.7520    3.5170 c2        1 2M3     -0.017400
     10 C17        -5.8880    1.6520    3.5080 cx        1 2M3     -0.124900
     11 C19        -6.5540    0.7610    2.6320 c1        1 2M3     -0.077100
     12 C21        -9.0550   -3.2830    4.6410 c1        1 2M3      0.432800
     13 C23        -7.8200   -0.8070    0.9860 ce        1 2M3     -0.036700
     14 C24        -7.1320    0.0280    1.8800 cg        1 2M3     -0.163300
     15 N3          3.1820    1.0730    1.9530 n1        1 2M3     -0.787500
     16 N7          2.3660   -0.2830    3.8090 na        1 2M3     -0.178100
     17 C9          0.1120   -0.0530    3.5510 cc        1 2M3     -0.085800
     18 C10         0.9910   -1.5250    5.5090 c3        1 2M3     -0.034800
     19 C13        -4.1430   -0.5410    4.2910 c3        1 2M3      0.088000
     20 N14        -3.5850    0.6690    3.7280 n         1 2M3     -0.379000
     21 O18        -3.8880    2.7460    2.7890 o         1 2M3     -0.576100
     22 N20        -8.6890   -2.7160    3.6760 n1        1 2M3     -0.882200
     23 C22        -7.3790   -2.0050    0.5890 c2        1 2M3     -0.198000
     24 C25        -6.4250    1.8820    4.9110 cx        1 2M3     -0.092900
     25 C26        -6.5720    2.9570    3.8860 cx        1 2M3     -0.092900
     26 H1         -0.8870    1.0190    1.1750 ha        1 2M3      0.133000
     27 H2         -0.0440    3.0680    0.1010 ha        1 2M3      0.115500
     28 H4          1.4720    3.0630    1.1610 ha        1 2M3      0.115500
     29 H11        -1.5890   -1.1990    4.1960 ha        1 2M3      0.125000
     30 H12        -3.2780   -1.9600    2.8640 hc        1 2M3      0.046700
     31 H12A       -4.6280   -2.6040    3.8920 hc        1 2M3      0.046700
     32 H15        -4.9910   -1.4810    2.5110 hc        1 2M3      0.046700
     33 H15A       -1.8710    1.7330    3.1080 h4        1 2M3      0.180000
     34 H21        -8.3860   -2.2450    2.8820 hn        1 2M3      0.442400
     35 H23        -7.9460   -2.6220   -0.1220 ha        1 2M3      0.125500
     36 H24        -8.7760   -0.3950    0.6100 ha        1 2M3      0.145000
     37 HN7         3.2410   -0.5620    4.1660 hn        1 2M3      0.301700
     38 H10         1.4610   -2.5240    5.3260 hc        1 2M3      0.051367
     39 H10A       -0.0920   -1.6770    5.7370 hc        1 2M3      0.051367
     40 H10B        1.4790   -1.0640    6.4050 hc        1 2M3      0.051367
     41 H13        -3.4880   -0.8500    5.1590 h1        1 2M3      0.055700
     42 H13A       -5.1650   -0.3130    4.7110 h1        1 2M3      0.055700
     43 H22        -6.4280   -2.4360    0.9320 ha        1 2M3      0.125500
     44 H25        -7.3150    1.3110    5.2320 hc        1 2M3      0.089200
     45 H25A       -5.6950    2.0110    5.7320 hc        1 2M3      0.089200
     46 H26        -5.9390    3.8630    3.9480 hc        1 2M3      0.089200
     47 H26A       -7.5690    3.1690    3.4600 hc        1 2M3      0.089200
     48 C16        -4.3920    1.7290    3.3010 c         1 2M3      0.701100
@<TRIPOS>BOND
     1    1    3 2   
     2    1   27 1   
     3    1   28 1   
     4    2   15 3   
     5    3    4 1   
     6    3   26 1   
     7    4    5 2   
     8    4   17 1   
     9    5   15 1   
    10    5   16 1   
    11    6   16 1   
    12    6   17 2   
    13    6   18 1   
    14    7    9 2   
    15    7   17 1   
    16    7   29 1   
    17    8   19 1   
    18    8   30 1   
    19    8   31 1   
    20    8   32 1   
    21    9   20 1   
    22    9   33 1   
    23   10   11 1   
    24   10   24 1   
    25   10   25 1   
    26   10   48 1   
    27   11   14 3   
    28   12   22 3   
    29   13   14 1   
    30   13   23 2   
    31   13   36 1   
    32   16   37 1   
    33   18   38 1   
    34   18   39 1   
    35   18   40 1   
    36   19   20 1   
    37   19   41 1   
    38   19   42 1   
    39   20   48 1   
    40   21   48 2   
    41   22   34 1   
    42   23   35 1   
    43   23   43 1   
    44   24   25 1   
    45   24   44 1   
    46   24   45 1   
    47   25   46 1   
    48   25   47 1   
@<TRIPOS>SUBSTRUCTURE
     1 2M3         1 TEMP              0 ****  ****    0 ROOT
