@<TRIPOS>MOLECULE
2M3
   48    48     1     0     0
SMALL
bcc


@<TRIPOS>ATOM
      1 C1          0.4800    2.6270    0.9090 c2        1 2M3     -0.208000
      2 C2          4.0010    1.6390    1.3190 c1        1 2M3      0.468800
      3 C4          0.0470    1.5070    1.4920 ce        1 2M3     -0.096200
      4 C5          0.7190    0.7820    2.5350 cc        1 2M3     -0.079800
      5 C6          2.1200    0.6400    2.7250 cd        1 2M3      0.226400
      6 C8          1.1000   -0.5810    4.3530 cd        1 2M3     -0.089600
      7 C11        -1.3270   -0.1800    3.7920 ce        1 2M3     -0.167200
      8 C12        -4.2710   -1.7110    3.3240 c3        1 2M3     -0.123100
      9 C15        -2.2410    0.7800    3.5240 c2        1 2M3     -0.017400
     10 C17        -5.9410    1.6330    3.4970 cx        1 2M3     -0.124900
     11 C19        -6.5910    0.7340    2.6180 c1        1 2M3     -0.077100
     12 C21        -9.0270   -3.3890    4.5910 c1        1 2M3      0.432800
     13 C23        -7.8300   -0.8510    0.9670 ce        1 2M3     -0.036700
     14 C24        -7.1560   -0.0070    1.8630 cg        1 2M3     -0.163300
     15 N3          3.1430    1.1670    1.9860 n1        1 2M3     -0.787500
     16 N7          2.3360   -0.1970    3.8390 na        1 2M3     -0.178100
     17 C9          0.0800    0.0040    3.5690 cc        1 2M3     -0.085800
     18 C10         0.9680   -1.4540    5.5330 c3        1 2M3     -0.034800
     19 C13        -4.1710   -0.5380    4.2890 c3        1 2M3      0.088000
     20 N14        -3.6260    0.6800    3.7280 n         1 2M3     -0.379000
     21 O18        -3.9510    2.7520    2.7870 o         1 2M3     -0.576100
     22 N20        -8.6680   -2.8060    3.6320 n1        1 2M3     -0.882200
     23 C22        -7.3630   -2.0360    0.5590 c2        1 2M3     -0.198000
     24 C25        -6.4860    1.8570    4.8980 cx        1 2M3     -0.092900
     25 C26        -6.6420    2.9300    3.8710 cx        1 2M3     -0.092900
     26 H1         -0.9200    1.0610    1.1880 ha        1 2M3      0.133000
     27 H2         -0.0980    3.1190    0.1140 ha        1 2M3      0.115500
     28 H4          1.4140    3.1340    1.1810 ha        1 2M3      0.115500
     29 H11        -1.6090   -1.1620    4.2070 ha        1 2M3      0.125000
     30 H12        -3.2810   -1.9450    2.8660 hc        1 2M3      0.046700
     31 H12A       -4.6280   -2.6070    3.8870 hc        1 2M3      0.046700
     32 H15        -4.9980   -1.4890    2.5040 hc        1 2M3      0.046700
     33 H15A       -1.9230    1.7650    3.1160 h4        1 2M3      0.180000
     34 H21        -8.3720   -2.3220    2.8430 hn        1 2M3      0.442400
     35 H23        -7.9200   -2.6600   -0.1530 ha        1 2M3      0.125500
     36 H24        -8.7960   -0.4570    0.5980 ha        1 2M3      0.145000
     37 HN7         3.2130   -0.4650    4.2010 hn        1 2M3      0.301700
     38 H10         1.4450   -2.4500    5.3510 hc        1 2M3      0.051367
     39 H10A       -0.1150   -1.6140    5.7600 hc        1 2M3      0.051367
     40 H10B        1.4510   -0.9900    6.4300 hc        1 2M3      0.051367
     41 H13        -3.5180   -0.8370    5.1600 h1        1 2M3      0.055700
     42 H13A       -5.1980   -0.3230    4.7030 h1        1 2M3      0.055700
     43 H22        -6.4020   -2.4480    0.8950 ha        1 2M3      0.125500
     44 H25        -7.3710    1.2760    5.2140 hc        1 2M3      0.089200
     45 H25A       -5.7620    1.9960    5.7210 hc        1 2M3      0.089200
     46 H26        -6.0210    3.8440    3.9360 hc        1 2M3      0.089200
     47 H26A       -7.6400    3.1290    3.4410 hc        1 2M3      0.089200
     48 C16        -4.4440    1.7300    3.2970 c         1 2M3      0.701100
@<TRIPOS>BOND
     1    1    3 2   
     2    1   27 1   
     3    1   28 1   
     4    2   15 3   
     5    3    4 1   
     6    3   26 1   
     7    4    5 2   
     8    4   17 1   
     9    5   15 1   
    10    5   16 1   
    11    6   16 1   
    12    6   17 2   
    13    6   18 1   
    14    7    9 2   
    15    7   17 1   
    16    7   29 1   
    17    8   19 1   
    18    8   30 1   
    19    8   31 1   
    20    8   32 1   
    21    9   20 1   
    22    9   33 1   
    23   10   11 1   
    24   10   24 1   
    25   10   25 1   
    26   10   48 1   
    27   11   14 3   
    28   12   22 3   
    29   13   14 1   
    30   13   23 2   
    31   13   36 1   
    32   16   37 1   
    33   18   38 1   
    34   18   39 1   
    35   18   40 1   
    36   19   20 1   
    37   19   41 1   
    38   19   42 1   
    39   20   48 1   
    40   21   48 2   
    41   22   34 1   
    42   23   35 1   
    43   23   43 1   
    44   24   25 1   
    45   24   44 1   
    46   24   45 1   
    47   25   46 1   
    48   25   47 1   
@<TRIPOS>SUBSTRUCTURE
     1 2M3         1 TEMP              0 ****  ****    0 ROOT
