@<TRIPOS>MOLECULE
2M3
   48    42     1     0     0
SMALL
bcc


@<TRIPOS>ATOM
      1 C1          3.7320    1.0580   -1.8290 c1        1 2M3     -0.127000
      2 C2          4.7600    0.1380   -2.0220 c1        1 2M3     -0.054000
      3 C4          2.9480    0.9840   -0.7050 c1        1 2M3     -0.127000
      4 C5          3.1810   -0.0110    0.2410 c1        1 2M3     -0.038000
      5 C6          4.1980   -0.9190    0.0490 c1        1 2M3     -0.038000
      6 C8          3.1530   -1.4560    1.9550 c1        1 2M3     -0.010000
      7 C11         0.9790   -0.0180    1.7160 c3        1 2M3     -0.047000
      8 C12         0.0640   -1.0680    1.0030 c3        1 2M3     -0.168000
      9 C15         0.6510    1.1200    1.1930 c3        1 2M3     -0.034000
     10 C16        -1.9130    1.9860    0.7720 c1        1 2M3      0.342000
     11 C17        -3.2960    1.7220    0.1340 cu        1 2M3     -0.103000
     12 C19        -2.9160    0.7450   -0.9020 c2        1 2M3      0.020000
     13 C21        -1.9830    0.2880   -3.0350 c1        1 2M3     -0.127000
     14 C23        -3.1540   -1.4350   -1.8610 c1        1 2M3     -0.095000
     15 C24        -3.3890   -0.5630   -0.8290 c2        1 2M3     -0.178000
     16 N3          4.9900   -0.8430   -1.0880 n1        1 2M3     -0.146000
     17 N7          4.1810   -1.8140    1.1110 n1        1 2M3     -0.197000
     18 C9          2.5310   -0.3410    1.4230 c1        1 2M3     -0.140000
     19 C10         3.2850   -2.5400    3.0250 c2        1 2M3     -0.168000
     20 C13        -1.0060   -0.2370    0.2470 c3        1 2M3     -0.033000
     21 N14        -0.8820    0.9710    0.7080 n3        1 2M3     -0.316000
     22 O18        -1.6560    3.0860    1.2310 o         1 2M3     -0.349000
     23 N20        -2.2170    1.1590   -2.0040 n1        1 2M3     -0.115000
     24 C22        -2.4550   -1.0190   -2.9630 c1        1 2M3     -0.127000
     25 C25        -4.7310    1.3540    0.4790 cx        1 2M3     -0.179500
     26 C26        -4.5030    2.4340   -0.4590 cx        1 2M3     -0.179500
     27 H1          3.5680    1.7580   -2.4960 ha        1 2M3      0.149250
     28 H2          5.3230    0.1910   -2.8290 ha        1 2M3      0.157000
     29 H4          2.2280    1.6270   -0.5700 ha        1 2M3      0.149250
     30 H11         0.8060   -0.0140    2.6880 hc        1 2M3      0.095000
     31 H12         0.5870   -1.6010    0.3710 hc        1 2M3      0.096500
     32 H12A       -0.3670   -1.6540    1.6690 hc        1 2M3      0.096500
     33 H15         0.7250    1.8350    1.8670 h1        1 2M3      0.106500
     34 H15A        1.2250    1.3170    0.4330 h1        1 2M3      0.106500
     35 H21        -1.4820    0.5850   -3.8230 ha        1 2M3      0.149250
     36 H23        -3.4870   -2.3570   -1.8110 ha        1 2M3      0.138000
     37 H24        -3.8890   -0.8600   -0.0420 ha        1 2M3      0.142000
     38 HN7         4.7560   -2.5230    1.2290 DU        1 2M3      0.259000
     39 H10         3.6150   -2.1390    3.8590 ha        1 2M3      0.094333
     40 H10A        2.4100   -2.9490    3.1850 ha        1 2M3      0.094333
     41 H10B        3.9170   -3.2270    2.7200 ha        1 2M3      0.094333
     42 H13        -0.8310   -0.2540   -0.7190 h1        1 2M3      0.083000
     43 H13A       -1.9040   -0.5840    0.4380 h1        1 2M3      0.083000
     44 H22        -2.2870   -1.6430   -3.7030 ha        1 2M3      0.149250
     45 H25        -5.0590    0.5180    0.0900 hc        1 2M3      0.123250
     46 H25A       -5.0360    1.6240    1.3700 hc        1 2M3      0.123250
     47 H26        -4.6970    2.2290   -1.3980 hc        1 2M3      0.123250
     48 H26A       -4.6740    3.3390   -0.1140 hc        1 2M3      0.123250
@<TRIPOS>BOND
     1    1    3 1   
     2    1   27 1   
     3    2   16 1   
     4    2   28 1   
     5    3   29 1   
     6    4    5 1   
     7    6   17 1   
     8    6   18 1   
     9    7    8 1   
    10    7    9 1   
    11    7   18 1   
    12    7   30 1   
    13    8   20 1   
    14    8   31 1   
    15    8   32 1   
    16    9   21 1   
    17    9   33 1   
    18    9   34 1   
    19   10   21 1   
    20   10   22 1   
    21   11   12 1   
    22   11   25 1   
    23   11   26 1   
    24   12   15 1   
    25   12   23 1   
    26   13   24 1   
    27   13   35 1   
    28   14   15 1   
    29   14   36 1   
    30   15   37 1   
    31   19   39 1   
    32   19   40 1   
    33   19   41 1   
    34   20   21 1   
    35   20   42 1   
    36   20   43 1   
    37   24   44 1   
    38   25   26 1   
    39   25   45 1   
    40   25   46 1   
    41   26   47 1   
    42   26   48 1   
@<TRIPOS>SUBSTRUCTURE
     1 2M3         1 TEMP              0 ****  ****    0 ROOT
