@<TRIPOS>MOLECULE
2M3
   48    52     1     0     0
SMALL
bcc


@<TRIPOS>ATOM
      1 C1         -2.8530    2.9010   -0.0510 ca        1 2M3     -0.275300
      2 C2         -4.2670    2.9380   -0.1630 ca        1 2M3      0.411200
      3 C4         -2.2050    1.6850    0.1070 ca        1 2M3     -0.050000
      4 C5         -2.9840    0.5260    0.1500 ca        1 2M3     -0.186100
      5 C6         -4.4290    0.6750    0.0240 ca        1 2M3      0.424800
      6 C8         -3.9660   -1.5400    0.2530 cc        1 2M3     -0.041300
      7 C11        -1.4150   -1.5330    0.4570 c3        1 2M3     -0.003500
      8 C12        -0.6440   -1.0250    1.6850 c3        1 2M3     -0.089400
      9 C15        -0.4820   -1.2740   -0.7520 c3        1 2M3      0.086000
     10 C16         1.9800   -1.2290   -0.9220 c         1 2M3      0.690100
     11 C17         3.3090   -0.9940   -0.2490 cx        1 2M3     -0.254300
     12 C19         3.6130    0.4480   -0.0570 ca        1 2M3      0.438600
     13 C21         4.2180    2.2170    1.2970 ca        1 2M3      0.392200
     14 C23         3.8600    2.6440   -1.0420 ca        1 2M3     -0.093000
     15 C24         3.5630    1.2900   -1.1930 ca        1 2M3     -0.226300
     16 N3         -5.0730    1.8720   -0.1310 nb        1 2M3     -0.671000
     17 N7         -4.9970   -0.6040    0.0930 na        1 2M3     -0.283100
     18 C9         -2.7260   -0.8860    0.2940 cd        1 2M3     -0.132400
     19 C10        -4.2170   -2.9920    0.3570 c3        1 2M3     -0.045900
     20 C13         0.7800   -0.6990    1.2060 c3        1 2M3      0.085000
     21 N14         0.8260   -0.9160   -0.2280 n         1 2M3     -0.457800
     22 O18         1.9180   -1.6450   -2.0970 o         1 2M3     -0.608100
     23 N20         3.9350    0.9080    1.1780 nb        1 2M3     -0.668000
     24 C22         4.1970    3.1260    0.2240 ca        1 2M3     -0.245300
     25 C25         3.8030   -2.0470    0.7180 cx        1 2M3     -0.096400
     26 C26         4.4410   -1.9260   -0.6290 cx        1 2M3     -0.096400
     27 H1         -2.2870    3.8410   -0.0930 ha        1 2M3      0.141000
     28 H2         -4.7830    3.9080   -0.2890 h4        1 2M3      0.020100
     29 H4         -1.1090    1.6200    0.1940 ha        1 2M3      0.146000
     30 H11        -1.5700   -2.6440    0.5560 hc        1 2M3      0.055700
     31 H12        -1.1270   -0.1070    2.1050 hc        1 2M3      0.057700
     32 H12A       -0.6190   -1.8020    2.4860 hc        1 2M3      0.057700
     33 H15        -0.4090   -2.1820   -1.4100 h1        1 2M3      0.064700
     34 H15A       -0.8680   -0.4190   -1.3730 h1        1 2M3      0.064700
     35 H21         4.4770    2.5540    2.3170 h4        1 2M3      0.021100
     36 H23         3.8290    3.3200   -1.9090 ha        1 2M3      0.141000
     37 H24         3.2870    0.8690   -2.1710 ha        1 2M3      0.162000
     38 HN7        -5.9590   -0.8110    0.0250 hn        1 2M3      0.308700
     39 H10        -3.6720   -3.5260   -0.4620 hc        1 2M3      0.055367
     40 H10A       -3.8350   -3.3690    1.3390 hc        1 2M3      0.055367
     41 H10B       -5.3030   -3.2440    0.2800 hc        1 2M3      0.055367
     42 H13         1.0310    0.3770    1.4200 h1        1 2M3      0.053200
     43 H13A        1.5400   -1.3400    1.7330 h1        1 2M3      0.053200
     44 H22         4.4390    4.1840    0.3850 ha        1 2M3      0.144000
     45 H25         4.3610   -1.7280    1.6170 hc        1 2M3      0.085700
     46 H25A        3.1480   -2.9140    0.9250 hc        1 2M3      0.085700
     47 H26         4.2380   -2.6910   -1.4010 hc        1 2M3      0.085700
     48 H26A        5.4610   -1.5090   -0.7080 hc        1 2M3      0.085700
@<TRIPOS>BOND
     1    1    2 ar  
     2    1    3 ar  
     3    1   27 1   
     4    2   16 ar  
     5    2   28 1   
     6    3    4 ar  
     7    3   29 1   
     8    4    5 ar  
     9    4   18 1   
    10    5   16 ar  
    11    5   17 1   
    12    6   17 1   
    13    6   18 2   
    14    6   19 1   
    15    7    8 1   
    16    7    9 1   
    17    7   18 1   
    18    7   30 1   
    19    8   20 1   
    20    8   31 1   
    21    8   32 1   
    22    9   21 1   
    23    9   33 1   
    24    9   34 1   
    25   10   11 1   
    26   10   21 1   
    27   10   22 2   
    28   11   12 1   
    29   11   25 1   
    30   11   26 1   
    31   12   15 ar  
    32   12   23 ar  
    33   13   23 ar  
    34   13   24 ar  
    35   13   35 1   
    36   14   15 ar  
    37   14   24 ar  
    38   14   36 1   
    39   15   37 1   
    40   17   38 1   
    41   19   39 1   
    42   19   40 1   
    43   19   41 1   
    44   20   21 1   
    45   20   42 1   
    46   20   43 1   
    47   24   44 1   
    48   25   26 1   
    49   25   45 1   
    50   25   46 1   
    51   26   47 1   
    52   26   48 1   
@<TRIPOS>SUBSTRUCTURE
     1 2M3         1 TEMP              0 ****  ****    0 ROOT
