@<TRIPOS>MOLECULE
2M3
   48    52     1     0     0
SMALL
bcc


@<TRIPOS>ATOM
      1 C1         -0.3720   -0.4480    0.0850 ca        1 2M3     -0.275300
      2 C2          1.0420   -0.4050   -0.0350 ca        1 2M3      0.411200
      3 C4         -0.9630   -0.3130    1.3320 ca        1 2M3     -0.050000
      4 C5         -0.1280   -0.1380    2.4390 ca        1 2M3     -0.186100
      5 C6          1.3110   -0.1060    2.2060 ca        1 2M3      0.424800
      6 C8          0.9530    0.1670    4.4360 cc        1 2M3     -0.041300
      7 C11        -1.6010    0.0700    4.5800 c3        1 2M3     -0.003500
      8 C12        -2.4330   -1.2060    4.3840 c3        1 2M3     -0.089400
      9 C15        -2.5080    1.2320    4.1040 c3        1 2M3      0.086000
     10 C16        -4.9630    1.4890    4.1260 c         1 2M3      0.690100
     11 C17        -6.3220    0.8360    4.0990 cx        1 2M3     -0.254300
     12 C19        -6.7030    0.3510    2.7470 ca        1 2M3      0.438600
     13 C21        -7.4370   -1.3270    1.3410 ca        1 2M3      0.392200
     14 C23        -7.0290    0.8480    0.4020 ca        1 2M3     -0.093000
     15 C24        -6.6600    1.2750    1.6770 ca        1 2M3     -0.226300
     16 N3          1.8990   -0.2390    0.9780 nb        1 2M3     -0.671000
     17 N7          1.9400    0.0790    3.4450 na        1 2M3     -0.283100
     18 C9         -0.3200    0.0370    3.8590 cd        1 2M3     -0.132400
     19 C10         1.2720    0.3680    5.8630 c3        1 2M3     -0.045900
     20 C13        -3.8570   -0.7500    4.0220 c3        1 2M3      0.085000
     21 N14        -3.8480    0.6980    3.9240 n         1 2M3     -0.457800
     22 O18        -4.8440    2.7230    4.2740 o         1 2M3     -0.608100
     23 N20        -7.0850   -0.9400    2.5800 nb        1 2M3     -0.668000
     24 C22        -7.4270   -0.4770    0.2200 ca        1 2M3     -0.245300
     25 C25        -6.7930    0.1400    5.3570 cx        1 2M3     -0.096400
     26 C26        -7.3940    1.4540    4.9730 cx        1 2M3     -0.096400
     27 H1         -0.9820   -0.5870   -0.8170 ha        1 2M3      0.141000
     28 H2          1.5130   -0.5120   -1.0300 h4        1 2M3      0.020100
     29 H4         -2.0550   -0.3400    1.4610 ha        1 2M3      0.146000
     30 H11        -1.3940    0.2070    5.6780 hc        1 2M3      0.055700
     31 H12        -2.4440   -1.8180    5.3170 hc        1 2M3      0.057700
     32 H12A       -2.0110   -1.8320    3.5600 hc        1 2M3      0.057700
     33 H15        -2.5150    2.0730    4.8500 h1        1 2M3      0.064700
     34 H15A       -2.1470    1.6380    3.1190 h1        1 2M3      0.064700
     35 H21        -7.7430   -2.3840    1.2450 h4        1 2M3      0.021100
     36 H23        -7.0050    1.5470   -0.4470 ha        1 2M3      0.141000
     37 H24        -6.3340    2.3090    1.8640 ha        1 2M3      0.162000
     38 HN7         2.9130    0.1510    3.5910 hn        1 2M3      0.308700
     39 H10         0.7800    1.3050    6.2290 hc        1 2M3      0.055367
     40 H10A        2.3710    0.4530    6.0470 hc        1 2M3      0.055367
     41 H10B        0.8790   -0.4930    6.4600 hc        1 2M3      0.055367
     42 H13        -4.5990   -1.0950    4.7930 h1        1 2M3      0.053200
     43 H13A       -4.1680   -1.1810    3.0290 h1        1 2M3      0.053200
     44 H22        -7.7270   -0.8530   -0.7660 ha        1 2M3      0.144000
     45 H25        -6.1030    0.0980    6.2190 hc        1 2M3      0.085700
     46 H25A       -7.3930   -0.7830    5.2640 hc        1 2M3      0.085700
     47 H26        -7.1290    2.3640    5.5430 hc        1 2M3      0.085700
     48 H26A       -8.4300    1.4830    4.5910 hc        1 2M3      0.085700
@<TRIPOS>BOND
     1    1    2 ar  
     2    1    3 ar  
     3    1   27 1   
     4    2   16 ar  
     5    2   28 1   
     6    3    4 ar  
     7    3   29 1   
     8    4    5 ar  
     9    4   18 1   
    10    5   16 ar  
    11    5   17 1   
    12    6   17 1   
    13    6   18 2   
    14    6   19 1   
    15    7    8 1   
    16    7    9 1   
    17    7   18 1   
    18    7   30 1   
    19    8   20 1   
    20    8   31 1   
    21    8   32 1   
    22    9   21 1   
    23    9   33 1   
    24    9   34 1   
    25   10   11 1   
    26   10   21 1   
    27   10   22 2   
    28   11   12 1   
    29   11   25 1   
    30   11   26 1   
    31   12   15 ar  
    32   12   23 ar  
    33   13   23 ar  
    34   13   24 ar  
    35   13   35 1   
    36   14   15 ar  
    37   14   24 ar  
    38   14   36 1   
    39   15   37 1   
    40   17   38 1   
    41   19   39 1   
    42   19   40 1   
    43   19   41 1   
    44   20   21 1   
    45   20   42 1   
    46   20   43 1   
    47   24   44 1   
    48   25   26 1   
    49   25   45 1   
    50   25   46 1   
    51   26   47 1   
    52   26   48 1   
@<TRIPOS>SUBSTRUCTURE
     1 2M3         1 TEMP              0 ****  ****    0 ROOT
