@<TRIPOS>MOLECULE
2M4
   45    46     1     0     0
SMALL
bcc


@<TRIPOS>ATOM
      1 C1         -2.6150    3.7810   -2.3740 c3        1 2M4      0.135400
      2 O1         -3.0060    4.9900   -1.7490 oh        1 2M4     -0.591800
      3 C2         -1.4500    3.1200   -1.5560 c3        1 2M4      0.066100
      4 O2         -1.9170    2.6990   -0.4060 os        1 2M4     -0.444600
      5 C3         -1.3790    1.7970    0.3830 c3        1 2M4      0.339900
      6 O3         -0.3230    2.4170    1.1670 oh        1 2M4     -0.615800
      7 C4         -0.7830    0.6260   -0.4310 c3        1 2M4      0.137100
      8 O4         -1.0480   -0.5650    0.2310 os        1 2M4     -0.391600
      9 C5          0.1560   -1.1940    0.5600 c3        1 2M4      0.298900
     10 O5          0.7350   -0.5210    1.7400 os        1 2M4     -0.416600
     11 C6          1.9050   -1.2080    2.2670 c3        1 2M4      0.119100
     12 O6          4.0670   -0.3750    1.8390 oh        1 2M4     -0.603800
     13 C7          3.0400   -1.0660    1.2680 c3        1 2M4      0.092400
     14 O7          0.7230   -2.8350    3.6250 oh        1 2M4     -0.594800
     15 C8          1.6470   -2.7040    2.5220 c3        1 2M4      0.118100
     16 O8          2.1150   -3.4410    0.2880 oh        1 2M4     -0.611800
     17 C9          1.0810   -3.3830    1.3400 c3        1 2M4      0.151100
     18 O9         -0.4980   -3.2960   -0.4510 oh        1 2M4     -0.618800
     19 C10        -0.1120   -2.6770    0.8030 c3        1 2M4      0.094100
     20 O10        -2.6380    0.4730   -1.8920 oh        1 2M4     -0.590800
     21 C11        -1.3660    0.5380   -1.8950 c3        1 2M4      0.118100
     22 O11         0.5130    1.9710   -2.2790 oh        1 2M4     -0.599800
     23 C12        -0.8520    1.9400   -2.3810 c3        1 2M4      0.090100
     24 H1         -2.3070    3.9700   -3.2890 h1        1 2M4      0.053200
     25 H1A        -3.3700    3.1740   -2.4060 h1        1 2M4      0.053200
     26 HO1        -3.5600    5.4230   -2.2710 ho        1 2M4      0.414000
     27 H2         -0.7590    3.7810   -1.3970 h1        1 2M4      0.082700
     28 H3         -2.0750    1.4440    0.9960 h2        1 2M4      0.103700
     29 H4          0.1790    0.7460   -0.4860 h1        1 2M4      0.092700
     30 H5          0.7890   -1.1010   -0.2080 h2        1 2M4      0.054700
     31 H6          2.1660   -0.7890    3.1000 h1        1 2M4      0.093700
     32 HO6         4.7920   -0.4920    1.3710 ho        1 2M4      0.408000
     33 H7          3.3490   -1.9460    1.0030 h1        1 2M4      0.046700
     34 H7A         2.7060   -0.5600    0.4420 h1        1 2M4      0.046700
     35 HO7         1.1640   -3.1660    4.3570 ho        1 2M4      0.412000
     36 H8          2.5030   -3.1440    2.7660 h1        1 2M4      0.075700
     37 HO8         2.3990   -4.2980    0.1880 ho        1 2M4      0.428000
     38 H9          0.8220   -4.3120    1.5930 h1        1 2M4      0.073700
     39 HO9        -1.1580   -3.8340   -0.3150 ho        1 2M4      0.439000
     40 H10        -0.8540   -2.7680    1.4450 h1        1 2M4      0.087700
     41 HO10       -2.9240   -0.0220   -2.6140 ho        1 2M4      0.409000
     42 H11        -0.9550   -0.2030   -2.4100 h1        1 2M4      0.063700
     43 HO11        0.8690    2.1860   -3.0800 ho        1 2M4      0.411000
     44 H12        -1.1000    2.0560   -3.3190 h1        1 2M4      0.052700
     45 H22        -0.6700    2.7670    1.9140 ho        1 2M4      0.419000
@<TRIPOS>BOND
     1    1    2 1   
     2    1    3 1   
     3    1   24 1   
     4    1   25 1   
     5    2   26 1   
     6    3    4 1   
     7    3   23 1   
     8    3   27 1   
     9    4    5 1   
    10    5    6 1   
    11    5    7 1   
    12    5   28 1   
    13    6   45 1   
    14    7    8 1   
    15    7   21 1   
    16    7   29 1   
    17    8    9 1   
    18    9   10 1   
    19    9   19 1   
    20    9   30 1   
    21   10   11 1   
    22   11   13 1   
    23   11   15 1   
    24   11   31 1   
    25   12   13 1   
    26   12   32 1   
    27   13   33 1   
    28   13   34 1   
    29   14   15 1   
    30   14   35 1   
    31   15   17 1   
    32   15   36 1   
    33   16   17 1   
    34   16   37 1   
    35   17   19 1   
    36   17   38 1   
    37   18   19 1   
    38   18   39 1   
    39   19   40 1   
    40   20   21 1   
    41   20   41 1   
    42   21   23 1   
    43   21   42 1   
    44   22   23 1   
    45   22   43 1   
    46   23   44 1   
@<TRIPOS>SUBSTRUCTURE
     1 2M4         1 TEMP              0 ****  ****    0 ROOT
