@<TRIPOS>MOLECULE
2M4
   45    46     1     0     0
SMALL
bcc


@<TRIPOS>ATOM
      1 C1          3.7470   -0.7490    1.8850 c3        1 2M4      0.136400
      2 O1          4.1860   -2.0880    1.8510 oh        1 2M4     -0.593800
      3 C2          3.2300   -0.2940    0.5170 c3        1 2M4      0.073100
      4 O2          2.1420   -1.1720    0.2170 os        1 2M4     -0.450600
      5 C3          1.4410   -0.8890   -0.9780 c3        1 2M4      0.312900
      6 O3          2.3410   -1.1560   -2.0270 oh        1 2M4     -0.624800
      7 C4          0.9820    0.5770   -1.1230 c3        1 2M4      0.139100
      8 O4         -0.0540    0.7990   -0.1660 os        1 2M4     -0.431600
      9 C5         -1.3300    1.0490   -0.7310 c3        1 2M4      0.306900
     10 O5         -1.7680   -0.1810   -1.2620 os        1 2M4     -0.430600
     11 C6         -2.0800   -1.1810   -0.2860 c3        1 2M4      0.139100
     12 C7         -2.4750   -2.4320   -1.0680 c3        1 2M4      0.135400
     13 O7         -3.5940   -1.6980    1.4900 oh        1 2M4     -0.596800
     14 C8         -3.2240   -0.6640    0.5970 c3        1 2M4      0.087100
     15 O8         -3.7360    1.0700    2.2070 oh        1 2M4     -0.596800
     16 C9         -2.7200    0.5730    1.3620 c3        1 2M4      0.115100
     17 O9         -3.3620    2.2490   -0.1850 oh        1 2M4     -0.602800
     18 C10        -2.2120    1.6430    0.3870 c3        1 2M4      0.096100
     19 O10         1.6500    2.8490   -0.8360 oh        1 2M4     -0.599800
     20 C11         2.1480    1.5250   -0.8180 c3        1 2M4      0.143100
     21 O11         3.8450    2.0600    0.7330 oh        1 2M4     -0.603800
     22 C12         2.7580    1.1660    0.5480 c3        1 2M4      0.081100
     23 H1          2.9440   -0.6220    2.6590 h1        1 2M4      0.050200
     24 H1A         4.6550   -0.1520    2.1660 h1        1 2M4      0.050200
     25 HO1         3.4400   -2.6240    1.5500 ho        1 2M4      0.417000
     26 H2          4.0270   -0.4220   -0.2670 h1        1 2M4      0.075700
     27 H3          0.5550   -1.5930   -0.9660 h2        1 2M4      0.117700
     28 H4          0.6190    0.7440   -2.1730 h1        1 2M4      0.089700
     29 H5         -1.2810    1.7420   -1.6190 h2        1 2M4      0.087700
     30 H6         -1.1710   -1.3900    0.3450 h1        1 2M4      0.083700
     31 HO6        -1.5100   -3.8440   -1.9620 ho        1 2M4      0.405000
     32 H7         -3.1030   -3.0920   -0.4100 h1        1 2M4      0.050700
     33 H7A        -3.0420   -2.1540   -1.9950 h1        1 2M4      0.050700
     34 HO7        -4.0620   -1.2760    2.2250 ho        1 2M4      0.422000
     35 H8         -4.1110   -0.3820   -0.0360 h1        1 2M4      0.061700
     36 HO8        -4.4060    1.4860    1.6470 ho        1 2M4      0.422000
     37 H9         -1.8830    0.2780    2.0580 h1        1 2M4      0.101700
     38 HO9        -3.0630    3.0310   -0.6640 ho        1 2M4      0.417000
     39 H10        -1.6090    2.4090    0.9520 h1        1 2M4      0.076700
     40 HO10        2.3690    3.4140   -0.5190 ho        1 2M4      0.423000
     41 H11         2.9300    1.4010   -1.6210 h1        1 2M4      0.071700
     42 HO11        4.1810    1.9140    1.6250 ho        1 2M4      0.410000
     43 H12         1.9870    1.3130    1.3540 h1        1 2M4      0.070700
     44 H22         2.5730   -2.0920   -1.9720 ho        1 2M4      0.423000
     45 O6         -1.2650   -3.0940   -1.4090 oh        1 2M4     -0.610800
@<TRIPOS>BOND
     1    1    2 1   
     2    1    3 1   
     3    1   23 1   
     4    1   24 1   
     5    2   25 1   
     6    3    4 1   
     7    3   22 1   
     8    3   26 1   
     9    4    5 1   
    10    5    6 1   
    11    5    7 1   
    12    5   27 1   
    13    6   44 1   
    14    7    8 1   
    15    7   20 1   
    16    7   28 1   
    17    8    9 1   
    18    9   10 1   
    19    9   18 1   
    20    9   29 1   
    21   10   11 1   
    22   11   12 1   
    23   11   14 1   
    24   11   30 1   
    25   12   32 1   
    26   12   33 1   
    27   12   45 1   
    28   13   14 1   
    29   13   34 1   
    30   14   16 1   
    31   14   35 1   
    32   15   16 1   
    33   15   36 1   
    34   16   18 1   
    35   16   37 1   
    36   17   18 1   
    37   17   38 1   
    38   18   39 1   
    39   19   20 1   
    40   19   40 1   
    41   20   22 1   
    42   20   41 1   
    43   21   22 1   
    44   21   42 1   
    45   22   43 1   
    46   31   45 1   
@<TRIPOS>SUBSTRUCTURE
     1 2M4         1 TEMP              0 ****  ****    0 ROOT
