@<TRIPOS>MOLECULE
2M5
   30    30     1     0     0
SMALL
bcc


@<TRIPOS>ATOM
      1 C1         -0.3270   -0.6160   -1.4740 c3        1 2M5      0.299900
      2 O1         -0.7740   -1.8350   -1.0090 os        1 2M5     -0.438600
      3 C2          1.1860   -0.6160   -1.4740 c3        1 2M5      0.096100
      4 O2          1.6520    0.5580   -2.1690 oh        1 2M5     -0.592800
      5 C3          1.7490   -0.6160   -0.1030 c3        1 2M5      0.074100
      6 O3          3.1870   -0.4320   -0.1860 oh        1 2M5     -0.594800
      7 C4          1.1730    0.4700    0.7450 c3        1 2M5      0.087100
      8 O4          1.6260    0.2950    2.0930 oh        1 2M5     -0.593800
      9 C5         -0.3460    0.4670    0.7330 c3        1 2M5      0.112100
     10 O5         -0.8960    0.4620   -0.6220 os        1 2M5     -0.457600
     11 C6         -0.8380    1.6850    1.4520 c3        1 2M5      0.149100
     12 O6         -1.2550    2.6510    0.5090 oh        1 2M5     -0.595800
     13 CAI        -2.0080    1.3090    2.3410 c3        1 2M5     -0.128100
     14 CAN        -1.6240   -2.5130   -1.9070 c3        1 2M5      0.118700
     15 H1         -0.6420   -0.4930   -2.3900 h2        1 2M5      0.089700
     16 H2          1.5020   -1.4090   -1.9460 h1        1 2M5      0.109700
     17 HO2         1.9750    0.3240   -2.9620 ho        1 2M5      0.414000
     18 H3          1.5630   -1.4770    0.3160 h1        1 2M5      0.107700
     19 HO3         3.5950   -1.1860    0.0450 ho        1 2M5      0.416000
     20 H4          1.4900    1.3320    0.4130 h1        1 2M5      0.054700
     21 HO4         2.3480    0.7930    2.2290 ho        1 2M5      0.423000
     22 H5         -0.6630   -0.3270    1.2040 h1        1 2M5      0.076700
     23 H6         -0.1190    2.0530    1.9990 h1        1 2M5      0.100700
     24 HO6        -1.3150    3.4440    0.9040 ho        1 2M5      0.408000
     25 HAI        -2.7960    1.1440    1.7900 hc        1 2M5      0.046367
     26 HAIA       -1.7880    0.5020    2.8440 hc        1 2M5      0.046367
     27 HAIB       -2.1920    2.0390    2.9620 hc        1 2M5      0.046367
     28 HAN        -1.1320   -2.7290   -2.7210 h1        1 2M5      0.042367
     29 HANA       -2.3850   -1.9420   -2.1280 h1        1 2M5      0.042367
     30 HANB       -1.9450   -3.3360   -1.4920 h1        1 2M5      0.042367
@<TRIPOS>BOND
     1    1    2 1   
     2    1    3 1   
     3    1   10 1   
     4    1   15 1   
     5    2   14 1   
     6    3    4 1   
     7    3    5 1   
     8    3   16 1   
     9    4   17 1   
    10    5    6 1   
    11    5    7 1   
    12    5   18 1   
    13    6   19 1   
    14    7    8 1   
    15    7    9 1   
    16    7   20 1   
    17    8   21 1   
    18    9   10 1   
    19    9   11 1   
    20    9   22 1   
    21   11   12 1   
    22   11   13 1   
    23   11   23 1   
    24   12   24 1   
    25   13   25 1   
    26   13   26 1   
    27   13   27 1   
    28   14   28 1   
    29   14   29 1   
    30   14   30 1   
@<TRIPOS>SUBSTRUCTURE
     1 2M5         1 TEMP              0 ****  ****    0 ROOT
