@<TRIPOS>MOLECULE
2M5
   30    30     1     0     0
SMALL
bcc


@<TRIPOS>ATOM
      1 C1          0.7340   -1.4090   -0.5380 c3        1 2M5      0.305900
      2 O1          0.7140   -2.2230    0.6190 os        1 2M5     -0.445600
      3 C2          1.9070   -0.4220   -0.3770 c3        1 2M5      0.096100
      4 O2          2.1650    0.2380   -1.6050 oh        1 2M5     -0.596800
      5 C3          1.5820    0.6690    0.6510 c3        1 2M5      0.116100
      6 O3          2.5550    1.6920    0.6520 oh        1 2M5     -0.595800
      7 C4          0.1880    1.2630    0.3920 c3        1 2M5      0.089100
      8 O4         -0.1690    2.1520    1.4380 oh        1 2M5     -0.596800
      9 C5         -0.8620    0.1440    0.3720 c3        1 2M5      0.116100
     10 O5         -0.5400   -0.8140   -0.6420 os        1 2M5     -0.444600
     11 C6         -2.2520    0.6940    0.0060 c3        1 2M5      0.150100
     12 O6         -2.2930    1.1370   -1.3370 oh        1 2M5     -0.593800
     13 CAI        -3.3230   -0.3470    0.2750 c3        1 2M5     -0.128100
     14 CAN        -0.1640   -3.3370    0.5230 c3        1 2M5      0.120700
     15 H1          0.8330   -2.0160   -1.4840 h2        1 2M5      0.072700
     16 H2          2.8180   -0.9930   -0.0450 h1        1 2M5      0.070700
     17 HO2         2.4700   -0.4310   -2.2300 ho        1 2M5      0.412000
     18 H3          1.6250    0.2250    1.6860 h1        1 2M5      0.102700
     19 HO3         2.6460    2.0080   -0.2580 ho        1 2M5      0.421000
     20 H4          0.1780    1.8090   -0.5930 h1        1 2M5      0.072700
     21 HO4         0.5900    2.7390    1.5650 ho        1 2M5      0.420000
     22 H5         -0.8950   -0.3700    1.3710 h1        1 2M5      0.070700
     23 H6         -2.4310    1.6270    0.6150 h1        1 2M5      0.099700
     24 HO6        -2.0710    0.3800   -1.8960 ho        1 2M5      0.409000
     25 HAI        -3.4040   -0.5390    1.3700 hc        1 2M5      0.045033
     26 HAIA       -4.3070    0.0170   -0.1050 hc        1 2M5      0.045033
     27 HAIB       -3.0690   -1.3040   -0.2420 hc        1 2M5      0.045033
     28 HAN        -1.2080   -2.9940    0.3230 h1        1 2M5      0.041367
     29 HANA        0.1780   -4.0290   -0.2850 h1        1 2M5      0.041367
     30 HANB       -0.0900   -3.8300    1.5250 h1        1 2M5      0.041367
@<TRIPOS>BOND
     1    1    2 1   
     2    1    3 1   
     3    1   10 1   
     4    1   15 1   
     5    2   14 1   
     6    3    4 1   
     7    3    5 1   
     8    3   16 1   
     9    4   17 1   
    10    5    6 1   
    11    5    7 1   
    12    5   18 1   
    13    6   19 1   
    14    7    8 1   
    15    7    9 1   
    16    7   20 1   
    17    8   21 1   
    18    9   10 1   
    19    9   11 1   
    20    9   22 1   
    21   11   12 1   
    22   11   13 1   
    23   11   23 1   
    24   12   24 1   
    25   13   25 1   
    26   13   26 1   
    27   13   27 1   
    28   14   28 1   
    29   14   29 1   
    30   14   30 1   
@<TRIPOS>SUBSTRUCTURE
     1 2M5         1 TEMP              0 ****  ****    0 ROOT
