@<TRIPOS>MOLECULE
2M7
   31    32     1     0     0
SMALL
bcc


@<TRIPOS>ATOM
      1 CAI         0.2140    0.5930    0.1710 ca        1 2M7     -0.105500
      2 CAJ         1.5980    0.5570    0.3220 ca        1 2M7     -0.133000
      3 CAK         2.1670   -0.0450    1.4450 ca        1 2M7     -0.120000
      4 CAL         1.3480   -0.6130    2.4210 ca        1 2M7     -0.133000
      5 CAM        -0.0370   -0.5830    2.2790 ca        1 2M7     -0.105500
      6 CAH        -0.6160    0.0220    1.1510 ca        1 2M7      0.018000
      7 CAG        -2.0150    0.0560    1.0010 cg        1 2M7     -0.097000
      8 CAF        -3.2050    0.0870    0.8690 c1        1 2M7     -0.154100
      9 CAD        -4.6390    0.1570    0.6880 c3        1 2M7      0.247600
     10 NAE        -5.4380    0.0330    1.9130 n3        1 2M7     -0.804200
     11 CAA        -6.0700   -1.2920    1.9480 c3        1 2M7      0.132500
     12 CAN        -7.4460   -1.2600    2.5960 c3        1 2M7     -0.082100
     13 CAB        -6.1300   -1.8160    0.4860 c3        1 2M7      0.103100
     14 OAO        -7.4080   -1.7240   -0.1000 oh        1 2M7     -0.594800
     15 CAC        -5.1120   -0.9540   -0.3020 c3        1 2M7      0.104100
     16 OAP        -5.7300   -0.2950   -1.3900 oh        1 2M7     -0.594800
     17 H1         -0.2340    1.0690   -0.7140 ha        1 2M7      0.139000
     18 H2          2.2430    1.0060   -0.4470 ha        1 2M7      0.135000
     19 H3          3.2600   -0.0710    1.5610 ha        1 2M7      0.134000
     20 H4          1.7960   -1.0870    3.3060 ha        1 2M7      0.135000
     21 H5         -0.6820   -1.0310    3.0490 ha        1 2M7      0.139000
     22 H6         -4.8920    1.1700    0.2420 h1        1 2M7      0.110700
     23 H7         -4.8880    0.1900    2.7340 hn        1 2M7      0.373800
     24 H9         -5.4350   -2.0250    2.5330 h1        1 2M7      0.031700
     25 H10        -8.0960   -0.4750    2.1400 hc        1 2M7      0.045367
     26 H11        -7.9350   -2.2540    2.4480 hc        1 2M7      0.045367
     27 H12        -7.3560   -1.0530    3.6880 hc        1 2M7      0.045367
     28 H13        -5.8780   -2.9080    0.4430 h1        1 2M7      0.085700
     29 H14        -7.6880   -0.7990   -0.0400 ho        1 2M7      0.421000
     30 H15        -4.2530   -1.5720   -0.6710 h1        1 2M7      0.060700
     31 H16        -6.2100   -0.9700   -1.8910 ho        1 2M7      0.418000
@<TRIPOS>BOND
     1    1    2 ar  
     2    1    6 ar  
     3    1   17 1   
     4    2    3 ar  
     5    2   18 1   
     6    3    4 ar  
     7    3   19 1   
     8    4    5 ar  
     9    4   20 1   
    10    5    6 ar  
    11    5   21 1   
    12    6    7 1   
    13    7    8 3   
    14    8    9 1   
    15    9   10 1   
    16    9   15 1   
    17    9   22 1   
    18   10   11 1   
    19   10   23 1   
    20   11   12 1   
    21   11   13 1   
    22   11   24 1   
    23   12   25 1   
    24   12   26 1   
    25   12   27 1   
    26   13   14 1   
    27   13   15 1   
    28   13   28 1   
    29   14   29 1   
    30   15   16 1   
    31   15   30 1   
    32   16   31 1   
@<TRIPOS>SUBSTRUCTURE
     1 2M7         1 TEMP              0 ****  ****    0 ROOT
