@<TRIPOS>MOLECULE
2M7
   31    32     1     0     0
SMALL
bcc


@<TRIPOS>ATOM
      1 CAI        -0.0980    0.8600    0.4240 ca        1 2M7     -0.107500
      2 CAJ         1.2770    0.9590    0.6230 ca        1 2M7     -0.133000
      3 CAK         1.8980    0.2140    1.6260 ca        1 2M7     -0.122000
      4 CAL         1.1400   -0.6350    2.4320 ca        1 2M7     -0.133000
      5 CAM        -0.2360   -0.7420    2.2410 ca        1 2M7     -0.107500
      6 CAH        -0.8660    0.0060    1.2330 ca        1 2M7      0.023000
      7 CAG        -2.2560   -0.0950    1.0320 cg        1 2M7     -0.105000
      8 CAF        -3.4380   -0.1860    0.8680 c1        1 2M7     -0.117100
      9 CAD        -4.8630   -0.3160    0.6590 c3        1 2M7      0.218600
     10 NAE        -5.3400    0.4910   -0.4760 n7        1 2M7     -0.782200
     11 CAA        -6.2520    1.5200    0.0330 c3        1 2M7      0.162500
     12 CAN        -7.4150    1.8480   -0.8880 c3        1 2M7     -0.092100
     13 CAB        -6.7400    1.0920    1.4500 c3        1 2M7      0.123100
     14 OAO        -8.0030    0.4750    1.3210 oh        1 2M7     -0.592800
     15 CAC        -5.6410    0.1230    1.9460 c3        1 2M7      0.088100
     16 OAP        -6.2730   -0.9760    2.5700 oh        1 2M7     -0.601800
     17 H1         -0.5880    1.4470   -0.3680 ha        1 2M7      0.139500
     18 H2          1.8730    1.6290   -0.0140 ha        1 2M7      0.134000
     19 H3          2.9830    0.2960    1.7800 ha        1 2M7      0.133000
     20 H4          1.6290   -1.2230    3.2230 ha        1 2M7      0.134000
     21 H5         -0.8310   -1.4130    2.8770 ha        1 2M7      0.139500
     22 H6         -5.0790   -1.4150    0.4740 h1        1 2M7      0.070700
     23 H7         -5.8120   -0.1020   -1.1340 hn        1 2M7      0.365800
     24 H9         -5.6230    2.4500    0.1690 h1        1 2M7      0.067700
     25 H10        -7.0420    2.2160   -1.8730 hc        1 2M7      0.047700
     26 H11        -8.0610    0.9520   -1.0520 hc        1 2M7      0.047700
     27 H12        -8.0370    2.6430   -0.4120 hc        1 2M7      0.047700
     28 H13        -6.8240    1.9770    2.1320 h1        1 2M7      0.051700
     29 H14        -8.1690   -0.0200    2.1350 ho        1 2M7      0.423000
     30 H15        -4.9560    0.6390    2.6690 h1        1 2M7      0.060700
     31 H16        -5.5730   -1.5580    2.8900 ho        1 2M7      0.416000
@<TRIPOS>BOND
     1    1    2 ar  
     2    1    6 ar  
     3    1   17 1   
     4    2    3 ar  
     5    2   18 1   
     6    3    4 ar  
     7    3   19 1   
     8    4    5 ar  
     9    4   20 1   
    10    5    6 ar  
    11    5   21 1   
    12    6    7 1   
    13    7    8 3   
    14    8    9 1   
    15    9   10 1   
    16    9   15 1   
    17    9   22 1   
    18   10   11 1   
    19   10   23 1   
    20   11   12 1   
    21   11   13 1   
    22   11   24 1   
    23   12   25 1   
    24   12   26 1   
    25   12   27 1   
    26   13   14 1   
    27   13   15 1   
    28   13   28 1   
    29   14   29 1   
    30   15   16 1   
    31   15   30 1   
    32   16   31 1   
@<TRIPOS>SUBSTRUCTURE
     1 2M7         1 TEMP              0 ****  ****    0 ROOT
