@<TRIPOS>MOLECULE
2M8
   33    33     1     0     0
SMALL
bcc


@<TRIPOS>ATOM
      1 C1         -0.0950   -0.4450   -0.6640 c3        1 2M8      0.289900
      2 O3A        -0.8090    0.0490    0.4380 os        1 2M8     -0.431600
      3 C22        -2.0690    0.6590    0.1010 c3        1 2M8     -0.020900
      4 C23        -2.5610    1.3320    1.3810 c3        1 2M8      0.168400
      5 O13        -2.8430    0.4410    2.4360 oh        1 2M8     -0.634800
      6 C21        -3.0720   -0.3770   -0.4710 c         1 2M8      0.900600
      7 O1A        -2.8120   -0.8660   -1.6060 o         1 2M8     -0.829300
      8 O1B        -4.0990   -0.6550    0.2080 o         1 2M8     -0.829300
      9 C2          0.7520   -1.6430   -0.1860 c3        1 2M8      0.092100
     10 O2          1.4170   -2.2640   -1.2730 oh        1 2M8     -0.608800
     11 C3          1.7860   -1.1870    0.8540 c3        1 2M8      0.075100
     12 O3          2.6670   -2.2310    1.2230 oh        1 2M8     -0.612800
     13 C4          2.6050   -0.0050    0.3040 c3        1 2M8      0.090100
     14 O4          3.4860    0.5200    1.2840 oh        1 2M8     -0.604800
     15 C5          1.6530    1.1170   -0.1340 c3        1 2M8      0.102100
     16 C6          2.4160    2.2540   -0.8140 c3        1 2M8      0.144400
     17 O6          1.5670    3.3330   -1.1440 oh        1 2M8     -0.611800
     18 O5          0.7420    0.6170   -1.1130 os        1 2M8     -0.467600
     19 H1         -0.7440   -0.7090   -1.5540 h2        1 2M8      0.166700
     20 H2          0.0850   -2.4360    0.2490 h1        1 2M8      0.112700
     21 H22        -1.8810    1.4460   -0.6810 h1        1 2M8      0.034700
     22 H231       -1.7720    2.0200    1.7890 h1        1 2M8      0.026200
     23 H232       -3.4860    1.9150    1.1200 h1        1 2M8      0.026200
     24 H13        -3.4030   -0.2640    2.0710 ho        1 2M8      0.445000
     25 HA          1.6820   -1.5630   -1.8840 ho        1 2M8      0.409000
     26 H3          1.2600   -0.8840    1.8020 h1        1 2M8      0.110700
     27 HB          2.8700   -2.7290    0.4190 ho        1 2M8      0.413000
     28 H4          3.2200   -0.3550   -0.5740 h1        1 2M8      0.032700
     29 HC          3.7710   -0.2290    1.8260 ho        1 2M8      0.415000
     30 H5          1.0790    1.5010    0.7530 h1        1 2M8      0.086700
     31 H61C        3.1770    2.6710   -0.1020 h1        1 2M8      0.046700
     32 H62C        2.9220    1.8750   -1.7420 h1        1 2M8      0.046700
     33 H6          0.7830    2.9570   -1.5670 ho        1 2M8      0.419000
@<TRIPOS>BOND
     1    1    2 1   
     2    1    9 1   
     3    1   18 1   
     4    1   19 1   
     5    2    3 1   
     6    3    4 1   
     7    3    6 1   
     8    3   21 1   
     9    4    5 1   
    10    4   22 1   
    11    4   23 1   
    12    5   24 1   
    13    6    7 1   
    14    6    8 1   
    15    9   10 1   
    16    9   11 1   
    17    9   20 1   
    18   10   25 1   
    19   11   12 1   
    20   11   13 1   
    21   11   26 1   
    22   12   27 1   
    23   13   14 1   
    24   13   15 1   
    25   13   28 1   
    26   14   29 1   
    27   15   16 1   
    28   15   18 1   
    29   15   30 1   
    30   16   17 1   
    31   16   31 1   
    32   16   32 1   
    33   17   33 1   
@<TRIPOS>SUBSTRUCTURE
     1 2M8         1 TEMP              0 ****  ****    0 ROOT
