@<TRIPOS>MOLECULE
2M8
   33    33     1     0     0
SMALL
bcc


@<TRIPOS>ATOM
      1 C1         -0.1100   -0.0830    0.2350 c3        1 2M8      0.289900
      2 O3A        -0.6920   -1.0680    1.0470 os        1 2M8     -0.431600
      3 C22        -2.0300   -1.4370    0.6630 c3        1 2M8     -0.020900
      4 C23        -2.5580   -2.3210    1.7910 c3        1 2M8      0.168400
      5 O13        -1.8630   -3.5350    1.9530 oh        1 2M8     -0.634800
      6 C21        -2.0560   -2.1320   -0.7240 c         1 2M8      0.900600
      7 O1A        -1.7800   -1.4220   -1.7310 o         1 2M8     -0.829300
      8 O1B        -2.3730   -3.3530   -0.7760 o         1 2M8     -0.829300
      9 C2          1.4160   -0.3060    0.2340 c3        1 2M8      0.092100
     10 O2          2.0620    0.5880   -0.6580 oh        1 2M8     -0.608800
     11 C3          1.9860   -0.1200    1.6470 c3        1 2M8      0.075100
     12 O3          3.4000   -0.1900    1.6650 oh        1 2M8     -0.612800
     13 C4          1.5400    1.2360    2.2240 c3        1 2M8      0.090100
     14 O4          1.9480    1.3870    3.5740 oh        1 2M8     -0.604800
     15 C5          0.0090    1.3350    2.1720 c3        1 2M8      0.102100
     16 C6         -0.4690    2.7200    2.6070 c3        1 2M8      0.144400
     17 O6         -1.8790    2.8000    2.6490 oh        1 2M8     -0.611800
     18 O5         -0.4350    1.1730    0.8250 os        1 2M8     -0.467600
     19 H1         -0.5370   -0.0370   -0.8140 h2        1 2M8      0.166700
     20 H2          1.6530   -1.3360   -0.1510 h1        1 2M8      0.112700
     21 H22        -2.6500   -0.5000    0.6060 h1        1 2M8      0.034700
     22 H231       -2.4550   -1.7960    2.7790 h1        1 2M8      0.026200
     23 H232       -3.6410   -2.5300    1.5750 h1        1 2M8      0.026200
     24 H13        -1.7950   -3.9450    1.0740 ho        1 2M8      0.445000
     25 HA          1.5910    1.4310   -0.6090 ho        1 2M8      0.409000
     26 H3          1.6320   -0.9580    2.3110 h1        1 2M8      0.110700
     27 HB          3.7180    0.2660    0.8740 ho        1 2M8      0.413000
     28 H4          2.0020    2.0680    1.6190 h1        1 2M8      0.032700
     29 HC          2.7960    0.9310    3.6580 ho        1 2M8      0.415000
     30 H5         -0.4490    0.5370    2.8190 h1        1 2M8      0.086700
     31 H61C       -0.1200    2.9240    3.6540 h1        1 2M8      0.046700
     32 H62C       -0.0680    3.5020    1.9070 h1        1 2M8      0.046700
     33 H6         -2.2090    2.4110    1.8280 ho        1 2M8      0.419000
@<TRIPOS>BOND
     1    1    2 1   
     2    1    9 1   
     3    1   18 1   
     4    1   19 1   
     5    2    3 1   
     6    3    4 1   
     7    3    6 1   
     8    3   21 1   
     9    4    5 1   
    10    4   22 1   
    11    4   23 1   
    12    5   24 1   
    13    6    7 1   
    14    6    8 1   
    15    9   10 1   
    16    9   11 1   
    17    9   20 1   
    18   10   25 1   
    19   11   12 1   
    20   11   13 1   
    21   11   26 1   
    22   12   27 1   
    23   13   14 1   
    24   13   15 1   
    25   13   28 1   
    26   14   29 1   
    27   15   16 1   
    28   15   18 1   
    29   15   30 1   
    30   16   17 1   
    31   16   31 1   
    32   16   32 1   
    33   17   33 1   
@<TRIPOS>SUBSTRUCTURE
     1 2M8         1 TEMP              0 ****  ****    0 ROOT
