@<TRIPOS>MOLECULE
2M8
   33    33     1     0     0
SMALL
bcc


@<TRIPOS>ATOM
      1 C1          0.0050    0.2170   -0.9970 c3        1 2M8      0.367900
      2 O3A        -0.4550   -1.0170   -0.5370 os        1 2M8     -0.449600
      3 C22        -1.4570   -1.5930   -1.3390 c3        1 2M8     -0.017900
      4 C23        -2.4250   -2.3480   -0.4660 c3        1 2M8      0.164400
      5 O13        -3.2500   -3.1530   -1.2690 oh        1 2M8     -0.643800
      6 C21        -0.8210   -2.5480   -2.3370 c         1 2M8      0.899600
      7 O1A        -0.1750   -3.5520   -1.9240 o         1 2M8     -0.836300
      8 O1B        -1.0390   -2.4060   -3.5590 o         1 2M8     -0.836300
      9 C2          1.5040    0.2120   -0.9750 c3        1 2M8      0.072100
     10 O2          1.9900    1.4110   -1.6630 oh        1 2M8     -0.590800
     11 C3          2.0490    0.1980    0.4090 c3        1 2M8      0.064100
     12 O3          3.4830    0.3790    0.3480 oh        1 2M8     -0.628800
     13 C4          1.4640    1.2780    1.2580 c3        1 2M8      0.124100
     14 O4          1.8990    1.0870    2.6140 oh        1 2M8     -0.608800
     15 C5         -0.0390    1.2810    1.2260 c3        1 2M8      0.114100
     16 C6         -0.5410    2.5070    1.9580 c3        1 2M8      0.141400
     17 O6         -1.9380    2.6030    1.8100 oh        1 2M8     -0.614800
     18 O5         -0.5730    1.2900   -0.1450 os        1 2M8     -0.447600
     19 H1         -0.2950    0.3430   -1.9110 h2        1 2M8      0.118700
     20 H2          1.8220   -0.5720   -1.4460 h1        1 2M8      0.119700
     21 H22        -1.9330   -0.8910   -1.8200 h1        1 2M8      0.039700
     22 H231       -1.9260   -2.9140    0.1610 h1        1 2M8      0.029200
     23 H232       -2.9720   -1.7160    0.0320 h1        1 2M8      0.029200
     24 H13        -3.8740   -3.5340   -0.7650 ho        1 2M8      0.447000
     25 HA          2.4340    1.1750   -2.3820 ho        1 2M8      0.395000
     26 H3          1.8540   -0.6710    0.8200 h1        1 2M8      0.075700
     27 HB          3.8880   -0.3460    0.6780 ho        1 2M8      0.408000
     28 H4          1.7970    2.1630    0.9310 h1        1 2M8      0.058700
     29 HC          2.5720    1.6310    2.7850 ho        1 2M8      0.412000
     30 H5         -0.3670    0.4800    1.6870 h1        1 2M8      0.077700
     31 H61C       -0.1170    3.3070    1.5850 h1        1 2M8      0.048700
     32 H62C       -0.3180    2.4330    2.9080 h1        1 2M8      0.048700
     33 H6         -2.2470    3.2650    2.3260 ho        1 2M8      0.418000
@<TRIPOS>BOND
     1    1    2 1   
     2    1    9 1   
     3    1   18 1   
     4    1   19 1   
     5    2    3 1   
     6    3    4 1   
     7    3    6 1   
     8    3   21 1   
     9    4    5 1   
    10    4   22 1   
    11    4   23 1   
    12    5   24 1   
    13    6    7 1   
    14    6    8 1   
    15    9   10 1   
    16    9   11 1   
    17    9   20 1   
    18   10   25 1   
    19   11   12 1   
    20   11   13 1   
    21   11   26 1   
    22   12   27 1   
    23   13   14 1   
    24   13   15 1   
    25   13   28 1   
    26   14   29 1   
    27   15   16 1   
    28   15   18 1   
    29   15   30 1   
    30   16   17 1   
    31   16   31 1   
    32   16   32 1   
    33   17   33 1   
@<TRIPOS>SUBSTRUCTURE
     1 2M8         1 TEMP              0 ****  ****    0 ROOT
