@<TRIPOS>MOLECULE
2M9
   39    42     1     0     0
SMALL
bcc


@<TRIPOS>ATOM
      1 OAJ         0.1880    0.0840    0.4690 o         1 2M9     -0.757867
      2 SBD         1.5030   -0.1030   -0.0470 s6        1 2M9      1.449100
      3 OAC         2.4180   -0.4390    0.9920 o         1 2M9     -0.757867
      4 OAD         1.5330   -1.0390   -1.1140 o         1 2M9     -0.757867
      5 CAT         2.0180    1.4480   -0.6960 ca        1 2M9     -0.297500
      6 CAM         2.3630    1.5500   -2.0450 ca        1 2M9      0.019000
      7 CAS         2.7770    2.7410   -2.6480 ca        1 2M9     -0.286500
      8 SBC         3.1750    2.7250   -4.3670 s6        1 2M9      1.449100
      9 OAA         4.5190    3.1750   -4.4820 o         1 2M9     -0.754867
     10 OAB         3.0220    1.3840   -4.8110 o         1 2M9     -0.754867
     11 OAI         2.2630    3.6080   -5.0050 o         1 2M9     -0.754867
     12 CAW         2.8520    3.8960   -1.8550 ca        1 2M9      0.073000
     13 CAO         3.2600    5.1720   -2.3950 ca        1 2M9     -0.110000
     14 CAP         3.3310    6.2890   -1.6310 ca        1 2M9     -0.137000
     15 CAX         2.0970    2.6080    0.0930 ca        1 2M9      0.062000
     16 CBA         2.5140    3.8420   -0.4740 ca        1 2M9     -0.068000
     17 CBB         2.5930    5.0290    0.3360 ca        1 2M9     -0.019000
     18 CAY         3.0080    6.2740   -0.2250 ca        1 2M9      0.047000
     19 CAQ         1.7560    2.5820    1.4950 ca        1 2M9     -0.099000
     20 CAR         1.8270    3.6970    2.2620 ca        1 2M9     -0.148000
     21 CAZ         2.2440    4.9540    1.7090 ca        1 2M9     -0.025000
     22 CAV         2.3260    6.1300    2.4820 ca        1 2M9      0.054100
     23 OBF         2.0120    6.0040    3.8380 os        1 2M9     -0.348900
     24 CAG         1.5000    7.1850    4.4340 c3        1 2M9      0.124700
     25 CAN         2.7440    7.3330    1.9210 ca        1 2M9     -0.127000
     26 CAU         3.0880    7.4260    0.5710 ca        1 2M9     -0.246500
     27 SBE         3.6210    9.0340    0.0520 s6        1 2M9      1.449100
     28 OAK         5.0380    9.0020    0.0290 o         1 2M9     -0.753533
     29 OAE         3.0480    9.3020   -1.2140 o         1 2M9     -0.753533
     30 OAF         3.1340    9.9270    1.0560 o         1 2M9     -0.753533
     31 H1          2.3050    0.6350   -2.6730 ha        1 2M9      0.174000
     32 H2          3.5140    5.2030   -3.4700 ha        1 2M9      0.160000
     33 H3          3.6250    7.2580   -2.0720 ha        1 2M9      0.159000
     34 H4          1.4350    1.6150    1.9220 ha        1 2M9      0.159000
     35 H5          1.5680    3.6750    3.3300 ha        1 2M9      0.117000
     36 H6          1.0140    6.8310    5.3780 h1        1 2M9      0.023367
     37 H7          2.3370    7.8880    4.6740 h1        1 2M9      0.023367
     38 H8          0.7560    7.6920    3.7740 h1        1 2M9      0.023367
     39 H9          2.7970    8.2450    2.5420 ha        1 2M9      0.147000
@<TRIPOS>BOND
     1    1    2 1   
     2    2    3 1   
     3    2    4 1   
     4    2    5 1   
     5    5    6 ar  
     6    5   15 ar  
     7    6    7 ar  
     8    6   31 1   
     9    7    8 1   
    10    7   12 ar  
    11    8    9 1   
    12    8   10 1   
    13    8   11 1   
    14   12   13 ar  
    15   12   16 ar  
    16   13   14 ar  
    17   13   32 1   
    18   14   18 ar  
    19   14   33 1   
    20   15   16 ar  
    21   15   19 ar  
    22   16   17 ar  
    23   17   18 ar  
    24   17   21 ar  
    25   18   26 ar  
    26   19   20 ar  
    27   19   34 1   
    28   20   21 ar  
    29   20   35 1   
    30   21   22 ar  
    31   22   23 1   
    32   22   25 ar  
    33   23   24 1   
    34   24   36 1   
    35   24   37 1   
    36   24   38 1   
    37   25   26 ar  
    38   25   39 1   
    39   26   27 1   
    40   27   28 1   
    41   27   29 1   
    42   27   30 1   
@<TRIPOS>SUBSTRUCTURE
     1 2M9         1 TEMP              0 ****  ****    0 ROOT
