@<TRIPOS>MOLECULE
2M9
   39    42     1     0     0
SMALL
bcc


@<TRIPOS>ATOM
      1 OAJ         0.1930    0.0810    0.4700 o         1 2M9     -0.757867
      2 SBD         1.5080   -0.1040   -0.0470 s6        1 2M9      1.449100
      3 OAC         2.4240   -0.4390    0.9910 o         1 2M9     -0.757867
      4 OAD         1.5380   -1.0400   -1.1140 o         1 2M9     -0.757867
      5 CAT         2.0210    1.4470   -0.6970 ca        1 2M9     -0.297500
      6 CAM         2.3650    1.5500   -2.0450 ca        1 2M9      0.019000
      7 CAS         2.7770    2.7420   -2.6490 ca        1 2M9     -0.286500
      8 SBC         3.1740    2.7260   -4.3680 s6        1 2M9      1.449100
      9 OAA         4.5170    3.1780   -4.4840 o         1 2M9     -0.754867
     10 OAB         3.0220    1.3850   -4.8120 o         1 2M9     -0.754867
     11 OAI         2.2600    3.6090   -5.0060 o         1 2M9     -0.754867
     12 CAW         2.8510    3.8970   -1.8550 ca        1 2M9      0.073000
     13 CAO         3.2570    5.1730   -2.3950 ca        1 2M9     -0.110000
     14 CAP         3.3280    6.2900   -1.6310 ca        1 2M9     -0.137000
     15 CAX         2.0990    2.6070    0.0930 ca        1 2M9      0.062000
     16 CBA         2.5140    3.8420   -0.4740 ca        1 2M9     -0.068000
     17 CBB         2.5920    5.0290    0.3360 ca        1 2M9     -0.019000
     18 CAY         3.0060    6.2740   -0.2260 ca        1 2M9      0.047000
     19 CAQ         1.7600    2.5810    1.4950 ca        1 2M9     -0.099000
     20 CAR         1.8290    3.6960    2.2620 ca        1 2M9     -0.148000
     21 CAZ         2.2440    4.9530    1.7090 ca        1 2M9     -0.025000
     22 CAV         2.3260    6.1290    2.4820 ca        1 2M9      0.054100
     23 OBF         2.0130    6.0030    3.8390 os        1 2M9     -0.348900
     24 CAG         1.5020    7.1840    4.4360 c3        1 2M9      0.124700
     25 CAN         2.7420    7.3330    1.9220 ca        1 2M9     -0.127000
     26 CAU         3.0850    7.4270    0.5710 ca        1 2M9     -0.246500
     27 SBE         3.6160    9.0350    0.0520 s6        1 2M9      1.449100
     28 OAK         5.0330    9.0050    0.0280 o         1 2M9     -0.753533
     29 OAE         3.0420    9.3030   -1.2140 o         1 2M9     -0.753533
     30 OAF         3.1280    9.9280    1.0560 o         1 2M9     -0.753533
     31 H1          2.3080    0.6350   -2.6740 ha        1 2M9      0.174000
     32 H2          3.5100    5.2050   -3.4710 ha        1 2M9      0.160000
     33 H3          3.6200    7.2590   -2.0720 ha        1 2M9      0.159000
     34 H4          1.4390    1.6130    1.9220 ha        1 2M9      0.159000
     35 H5          1.5710    3.6730    3.3310 ha        1 2M9      0.117000
     36 H6          1.0170    6.8290    5.3800 h1        1 2M9      0.023367
     37 H7          2.3390    7.8860    4.6750 h1        1 2M9      0.023367
     38 H8          0.7570    7.6910    3.7770 h1        1 2M9      0.023367
     39 H9          2.7950    8.2450    2.5420 ha        1 2M9      0.147000
@<TRIPOS>BOND
     1    1    2 1   
     2    2    3 1   
     3    2    4 1   
     4    2    5 1   
     5    5    6 ar  
     6    5   15 ar  
     7    6    7 ar  
     8    6   31 1   
     9    7    8 1   
    10    7   12 ar  
    11    8    9 1   
    12    8   10 1   
    13    8   11 1   
    14   12   13 ar  
    15   12   16 ar  
    16   13   14 ar  
    17   13   32 1   
    18   14   18 ar  
    19   14   33 1   
    20   15   16 ar  
    21   15   19 ar  
    22   16   17 ar  
    23   17   18 ar  
    24   17   21 ar  
    25   18   26 ar  
    26   19   20 ar  
    27   19   34 1   
    28   20   21 ar  
    29   20   35 1   
    30   21   22 ar  
    31   22   23 1   
    32   22   25 ar  
    33   23   24 1   
    34   24   36 1   
    35   24   37 1   
    36   24   38 1   
    37   25   26 ar  
    38   25   39 1   
    39   26   27 1   
    40   27   28 1   
    41   27   29 1   
    42   27   30 1   
@<TRIPOS>SUBSTRUCTURE
     1 2M9         1 TEMP              0 ****  ****    0 ROOT
