@<TRIPOS>MOLECULE
2MA
   38    35     1     0     0
SMALL
bcc


@<TRIPOS>ATOM
      1 P          -0.4840    1.1210    4.0640 p3        1 2MA      2.536000
      2 OP1        -0.2400   -0.3220    4.4030 o         1 2MA     -1.234000
      3 OP2         0.7830    1.7300    3.4770 os        1 2MA     -1.264000
      4 OP3        -0.8660    1.8690    5.3060 o         1 2MA     -1.234000
      5 O5'        -1.6630    1.2210    3.0030 os        1 2MA     -0.730000
      6 C5'        -1.6490    0.3560    1.9100 c3        1 2MA      0.073000
      7 C4'        -2.6470    0.8280    0.8850 c3        1 2MA     -0.048000
      8 O4'        -1.9410    1.8010   -0.1560 os        1 2MA     -0.292000
      9 C3'        -3.0900   -0.1790    0.2010 c3        1 2MA     -0.035000
     10 O3'        -4.4790    0.0620   -0.2270 oh        1 2MA     -0.397000
     11 C2'        -2.1500   -0.2690   -1.0330 c3        1 2MA     -0.003000
     12 O2'        -2.8750   -0.3670   -2.1750 oh        1 2MA     -0.350000
     13 C1'        -1.3440    1.0280   -1.0300 c3        1 2MA      0.129000
     14 N9          0.0240    0.7690   -0.6240 n3        1 2MA     -0.147000
     15 C8          0.3620    2.0810   -0.6360 c1        1 2MA     -0.021000
     16 N7          1.7170    2.1670   -0.8020 n2        1 2MA     -0.155000
     17 C5          2.2120    0.9050   -0.8920 c1        1 2MA     -0.202000
     18 C6          3.6090    0.3840   -1.1700 c1        1 2MA      0.209000
     19 N6          4.6200    1.1940   -1.1240 n1        1 2MA     -0.382000
     20 N1          3.8190   -1.0070   -1.3880 n3        1 2MA     -0.306000
     21 C2          2.7210   -1.8990   -1.3430 c2        1 2MA      0.068000
     22 CM2         2.9420   -3.3700   -1.5470 c3        1 2MA     -0.169000
     23 N3          1.3720   -1.3890   -1.0720 n1        1 2MA     -0.145000
     24 C4          1.1700    0.0350   -0.7830 c1        1 2MA     -0.044000
     25 H5'        -1.8810   -0.5260    2.1980 h1        1 2MA      0.040000
     26 H5''       -0.7830    0.3460    1.5250 h1        1 2MA      0.040000
     27 H4'        -3.3810    1.2820    1.3200 h1        1 2MA      0.088000
     28 H3'        -3.0370   -0.9790    0.7160 h1        1 2MA      0.208000
     29 HO3'       -4.9930   -0.6360    0.0190 ho        1 2MA      0.297000
     30 H2'        -1.5620   -1.0240   -0.9460 h1        1 2MA      0.116000
     31 HO2'       -2.8190   -1.1970   -2.4920 ho        1 2MA      0.222000
     32 H1'        -1.3630    1.4330   -1.9000 h2        1 2MA      0.129000
     33 H8         -0.2660    2.8580   -0.4610 DU        1 2MA      0.255000
     34 HN6         4.4830    2.0990   -0.9810 DU        1 2MA      0.255000
     35 HN1         4.6880   -1.3400   -1.4700 hn        1 2MA      0.229000
     36 HM21        3.2940   -3.5260   -2.4500 hc        1 2MA      0.088333
     37 HM22        3.5910   -3.7020   -0.8780 hc        1 2MA      0.088333
     38 HM23        2.1080   -3.8370   -1.4440 hc        1 2MA      0.088333
@<TRIPOS>BOND
     1    1    2 1   
     2    1    4 1   
     3    1    5 1   
     4    5    6 1   
     5    6    7 1   
     6    6   25 1   
     7    6   26 1   
     8    7    8 1   
     9    7    9 1   
    10    7   27 1   
    11    8   13 1   
    12    9   10 1   
    13    9   11 1   
    14    9   28 1   
    15   10   29 1   
    16   11   12 1   
    17   11   13 1   
    18   11   30 1   
    19   12   31 1   
    20   13   14 1   
    21   13   32 1   
    22   14   15 1   
    23   14   24 1   
    24   15   16 1   
    25   16   17 1   
    26   17   24 1   
    27   18   19 1   
    28   18   20 1   
    29   20   21 1   
    30   20   35 1   
    31   21   22 1   
    32   21   23 1   
    33   22   36 1   
    34   22   37 1   
    35   22   38 1   
@<TRIPOS>SUBSTRUCTURE
     1 2MA         1 TEMP              0 ****  ****    0 ROOT
