@<TRIPOS>MOLECULE
2MA
   38    40     1     0     0
SMALL
bcc


@<TRIPOS>ATOM
      1 P          -0.0310    1.1340    4.6330 p5        1 2MA      1.335900
      2 OP1        -1.1830    1.9880    4.1950 o         1 2MA     -0.930167
      3 OP2         0.0530    0.7180    6.0670 o         1 2MA     -0.930167
      4 OP3         1.2780    1.4640    3.9380 o         1 2MA     -0.930167
      5 O5'        -0.3680   -0.3600    3.7910 os        1 2MA     -0.554200
      6 C5'        -0.4940   -0.2130    2.4380 c3        1 2MA      0.229400
      7 C4'         0.8040   -0.6650    1.7230 c3        1 2MA      0.052100
      8 O4'         0.4810   -1.3690    0.4960 os        1 2MA     -0.432600
      9 C3'         1.7540    0.4950    1.3770 c3        1 2MA      0.131100
     10 O3'         2.9590    0.3920    2.0990 oh        1 2MA     -0.686800
     11 C2'         2.0640    0.3500   -0.1300 c3        1 2MA      0.103100
     12 O2'         3.3660   -0.1010   -0.4350 oh        1 2MA     -0.617800
     13 C1'         1.0460   -0.7300   -0.6330 c3        1 2MA      0.214800
     14 N9         -0.0210   -0.1850   -1.4680 na        1 2MA     -0.171900
     15 C8         -1.2240    0.4100   -1.0500 cc        1 2MA      0.440400
     16 N7         -2.0280    0.7700   -2.0820 nd        1 2MA     -0.633000
     17 C5         -1.3330    0.3940   -3.2250 cd        1 2MA      0.209000
     18 C6         -1.6920    0.5330   -4.6390 cd        1 2MA      0.623200
     19 N6         -2.8110    1.0700   -5.0280 n2        1 2MA     -0.839100
     20 N1         -0.6830    0.0110   -5.5110 na        1 2MA     -0.865200
     21 C2          0.5100   -0.5650   -5.0480 cd        1 2MA      0.590200
     22 CM2         1.4540   -1.0590   -6.1220 c3        1 2MA     -0.129400
     23 N3          0.8550   -0.7050   -3.7780 nc        1 2MA     -0.563100
     24 C4         -0.0740   -0.2140   -2.8650 cc        1 2MA      0.011800
     25 H5'        -0.7290    0.8560    2.1660 h1        1 2MA     -0.001800
     26 H5''       -1.3250   -0.8790    2.0570 h1        1 2MA     -0.001800
     27 H4'         1.3300   -1.4250    2.3630 h1        1 2MA      0.081700
     28 H3'         1.2700    1.4890    1.5900 h1        1 2MA      0.116700
     29 HO3'        2.7470    0.7260    3.0060 ho        1 2MA      0.517000
     30 H2'         1.9490    1.3250   -0.6700 h1        1 2MA      0.068700
     31 HO2'        3.7430   -0.4830    0.3700 ho        1 2MA      0.430000
     32 H1'         1.5720   -1.5260   -1.2380 h2        1 2MA      0.086700
     33 H8         -1.4460    0.5380    0.0250 h5        1 2MA      0.112100
     34 HN6        -2.9550    1.1180   -6.0150 hn        1 2MA      0.356400
     35 HN1        -0.8130    0.0760   -6.4920 hn        1 2MA      0.417800
     36 HM21        2.3760   -1.4990   -5.6680 hc        1 2MA      0.052367
     37 HM22        0.9500   -1.8430   -6.7380 hc        1 2MA      0.052367
     38 HM23        1.7540   -0.2090   -6.7830 hc        1 2MA      0.052367
@<TRIPOS>BOND
     1    1    2 1   
     2    1    3 1   
     3    1    4 1   
     4    1    5 1   
     5    5    6 1   
     6    6    7 1   
     7    6   25 1   
     8    6   26 1   
     9    7    8 1   
    10    7    9 1   
    11    7   27 1   
    12    8   13 1   
    13    9   10 1   
    14    9   11 1   
    15    9   28 1   
    16   10   29 1   
    17   11   12 1   
    18   11   13 1   
    19   11   30 1   
    20   12   31 1   
    21   13   14 1   
    22   13   32 1   
    23   14   15 1   
    24   14   24 1   
    25   15   16 2   
    26   15   33 1   
    27   16   17 1   
    28   17   18 1   
    29   17   24 2   
    30   18   19 2   
    31   18   20 1   
    32   19   34 1   
    33   20   21 1   
    34   20   35 1   
    35   21   22 1   
    36   21   23 2   
    37   22   36 1   
    38   22   37 1   
    39   22   38 1   
    40   23   24 1   
@<TRIPOS>SUBSTRUCTURE
     1 2MA         1 TEMP              0 ****  ****    0 ROOT
