@<TRIPOS>MOLECULE
2MB
   15    14     1     0     0
SMALL
bcc


@<TRIPOS>ATOM
      1 C4         -0.0180   -0.0110   -0.0770 c3        1 2MB     -0.060900
      2 C3          1.4550    0.0080   -0.0030 c2        1 2MB     -0.178200
      3 C2          2.1520    0.0040    1.1450 c2        1 2MB     -0.122400
      4 C1          1.4960   -0.0080    2.4740 c3        1 2MB     -0.057900
      5 C2'         3.6350    0.0170    1.1580 c3        1 2MB     -0.057900
      6 H4C1       -0.3970   -1.0580    0.0420 hc        1 2MB      0.039367
      7 H4C2       -0.3700    0.3780   -1.0640 hc        1 2MB      0.039367
      8 H4C3       -0.4730    0.6150    0.7310 hc        1 2MB      0.039367
      9 H3          1.9810    0.0160   -0.9720 ha        1 2MB      0.119000
     10 H1C1        0.6770   -0.7700    2.5030 hc        1 2MB      0.040367
     11 H1C2        1.0440    0.9930    2.6890 hc        1 2MB      0.040367
     12 H1C3        2.2280   -0.2440    3.2850 hc        1 2MB      0.040367
     13 H2'1        4.0220   -0.9160    1.6390 hc        1 2MB      0.040367
     14 H2'2        4.0050    0.8930    1.7480 hc        1 2MB      0.040367
     15 H2'3        4.0570    0.0830    0.1250 hc        1 2MB      0.040367
@<TRIPOS>BOND
     1    1    2 1   
     2    1    6 1   
     3    1    7 1   
     4    1    8 1   
     5    2    3 2   
     6    2    9 1   
     7    3    4 1   
     8    3    5 1   
     9    4   10 1   
    10    4   11 1   
    11    4   12 1   
    12    5   13 1   
    13    5   14 1   
    14    5   15 1   
@<TRIPOS>SUBSTRUCTURE
     1 2MB         1 TEMP              0 ****  ****    0 ROOT
