@<TRIPOS>MOLECULE
2MB
   15    14     1     0     0
SMALL
bcc


@<TRIPOS>ATOM
      1 C4         -0.0240   -0.0260   -0.0680 c3        1 2MB     -0.060900
      2 C3          1.4500    0.0000   -0.0020 c2        1 2MB     -0.178200
      3 C2          2.1530    0.0070    1.1420 c2        1 2MB     -0.122400
      4 C1          1.5030   -0.0010    2.4750 c3        1 2MB     -0.057900
      5 C2'         3.6350    0.0280    1.1480 c3        1 2MB     -0.057900
      6 H4C1       -0.3970   -1.0730    0.0680 hc        1 2MB      0.039367
      7 H4C2       -0.3830    0.3470   -1.0580 hc        1 2MB      0.039367
      8 H4C3       -0.4770    0.6080    0.7340 hc        1 2MB      0.039367
      9 H3          1.9700    0.0060   -0.9730 ha        1 2MB      0.119000
     10 H1C1        0.6870   -0.7650    2.5120 hc        1 2MB      0.040367
     11 H1C2        1.0490    1.0000    2.6870 hc        1 2MB      0.040367
     12 H1C3        2.2400   -0.2310    3.2830 hc        1 2MB      0.040367
     13 H2'1        4.0300   -0.9000    1.6310 hc        1 2MB      0.040367
     14 H2'2        4.0040    0.9090    1.7310 hc        1 2MB      0.040367
     15 H2'3        4.0520    0.0910    0.1130 hc        1 2MB      0.040367
@<TRIPOS>BOND
     1    1    2 1   
     2    1    6 1   
     3    1    7 1   
     4    1    8 1   
     5    2    3 2   
     6    2    9 1   
     7    3    4 1   
     8    3    5 1   
     9    4   10 1   
    10    4   11 1   
    11    4   12 1   
    12    5   13 1   
    13    5   14 1   
    14    5   15 1   
@<TRIPOS>SUBSTRUCTURE
     1 2MB         1 TEMP              0 ****  ****    0 ROOT
