@<TRIPOS>MOLECULE
2MB
   15    14     1     0     0
SMALL
bcc


@<TRIPOS>ATOM
      1 C4          2.0260    0.2310    0.0640 c3        1 2MB     -0.060900
      2 C3          0.6510    0.7630    0.0360 c2        1 2MB     -0.178200
      3 C2         -0.4530   -0.0010   -0.0120 c2        1 2MB     -0.122400
      4 C1         -0.3940   -1.4820   -0.0320 c3        1 2MB     -0.057900
      5 C2'        -1.8110    0.5920   -0.0430 c3        1 2MB     -0.057900
      6 H4C1        2.7360    0.9860    0.4830 hc        1 2MB      0.039367
      7 H4C2        2.0910   -0.6970    0.6860 hc        1 2MB      0.039367
      8 H4C3        2.3610   -0.0260   -0.9740 hc        1 2MB      0.039367
      9 H3          0.5650    1.8620    0.0490 ha        1 2MB      0.119000
     10 H1C1       -0.1050   -1.8700    0.9780 hc        1 2MB      0.040367
     11 H1C2       -1.3840   -1.9230   -0.3070 hc        1 2MB      0.040367
     12 H1C3        0.3690   -1.8370   -0.7700 hc        1 2MB      0.040367
     13 H2'1       -2.3280    0.3170   -0.9970 hc        1 2MB      0.040367
     14 H2'2       -2.4210    0.1980    0.8080 hc        1 2MB      0.040367
     15 H2'3       -1.7790    1.7060    0.0320 hc        1 2MB      0.040367
@<TRIPOS>BOND
     1    1    2 1   
     2    1    6 1   
     3    1    7 1   
     4    1    8 1   
     5    2    3 2   
     6    2    9 1   
     7    3    4 1   
     8    3    5 1   
     9    4   10 1   
    10    4   11 1   
    11    4   12 1   
    12    5   13 1   
    13    5   14 1   
    14    5   15 1   
@<TRIPOS>SUBSTRUCTURE
     1 2MB         1 TEMP              0 ****  ****    0 ROOT
