@<TRIPOS>MOLECULE
2MB
   15    13     1     0     0
SMALL
bcc


@<TRIPOS>ATOM
      1 C4         -1.7150    0.0000   -1.0500 c3        1 2MB     -0.183000
      2 C3         -0.2030    0.0000   -1.0500 c2        1 2MB     -0.174000
      3 C2          0.4710    0.0000    0.1170 c1        1 2MB     -0.114000
      4 C1         -0.2850    0.0000    1.4280 c2        1 2MB     -0.181000
      5 C2'         1.9840    0.0000    0.1170 c3        1 2MB     -0.179000
      6 H4C1       -2.0410   -0.7970   -0.5900 hc        1 2MB      0.078667
      7 H4C2       -2.0410    0.0000   -1.9700 hc        1 2MB      0.078667
      8 H4C3       -2.0410    0.7970   -0.5890 hc        1 2MB      0.078667
      9 H3          0.2860   -0.0000   -1.8950 ha        1 2MB      0.119000
     10 H1C1       -0.8470   -0.7970    1.4790 ha        1 2MB      0.080000
     11 H1C2        0.3490   -0.0000    2.1700 ha        1 2MB      0.080000
     12 H1C3       -0.8460    0.7970    1.4800 ha        1 2MB      0.080000
     13 H2'1        2.3100    0.0060   -0.8030 hc        1 2MB      0.079333
     14 H2'2        2.3100   -0.8000    0.5720 hc        1 2MB      0.079333
     15 H2'3        2.3100    0.7940    0.5830 hc        1 2MB      0.079333
@<TRIPOS>BOND
     1    1    2 1   
     2    1    6 1   
     3    1    7 1   
     4    1    8 1   
     5    2    3 1   
     6    2    9 1   
     7    3    5 1   
     8    4   10 1   
     9    4   11 1   
    10    4   12 1   
    11    5   13 1   
    12    5   14 1   
    13    5   15 1   
@<TRIPOS>SUBSTRUCTURE
     1 2MB         1 TEMP              0 ****  ****    0 ROOT
