@<TRIPOS>MOLECULE
2ME
   12    11     1     0     0
SMALL
bcc


@<TRIPOS>ATOM
      1 CA'        -1.7270    0.0000   -0.5190 c3        1 2ME     -0.097100
      2 CB'        -0.2140    0.0000   -0.5190 c3        1 2ME      0.127400
      3 OC'         0.2550    0.0000    0.8090 os        1 2ME     -0.423600
      4 CD'         1.6620    0.0000    0.9180 c3        1 2ME      0.116700
      5 HA'1       -2.0520    0.7970   -0.0590 hc        1 2ME      0.044700
      6 HA'2       -2.0520    0.0000   -1.4390 hc        1 2ME      0.044700
      7 HA'3       -2.0520   -0.7970   -0.0590 hc        1 2ME      0.044700
      8 HB'1        0.1110    0.7970   -0.9790 h1        1 2ME      0.023700
      9 HB'2        0.1110   -0.7970   -0.9790 h1        1 2ME      0.023700
     10 HD'1        2.0210   -0.7970    0.4840 h1        1 2ME      0.031367
     11 HD'2        1.9150    0.0000    1.8600 h1        1 2ME      0.031367
     12 HD'3        2.0210    0.7970    0.4840 h1        1 2ME      0.031367
@<TRIPOS>BOND
     1    1    2 1   
     2    1    5 1   
     3    1    6 1   
     4    1    7 1   
     5    2    3 1   
     6    2    8 1   
     7    2    9 1   
     8    3    4 1   
     9    4   10 1   
    10    4   11 1   
    11    4   12 1   
@<TRIPOS>SUBSTRUCTURE
     1 2ME         1 TEMP              0 ****  ****    0 ROOT
