@<TRIPOS>MOLECULE
2ME
   12    11     1     0     0
SMALL
bcc


@<TRIPOS>ATOM
      1 CA'         0.0110   -0.0020    0.0260 c3        1 2ME     -0.097100
      2 CB'         1.5180    0.0020   -0.0790 c3        1 2ME      0.127400
      3 OC'         2.0270   -0.0030    1.2540 os        1 2ME     -0.423600
      4 CD'         3.4420   -0.0000    1.2960 c3        1 2ME      0.116700
      5 HA'1       -0.3430    0.9000    0.5800 hc        1 2ME      0.044700
      6 HA'2       -0.4320    0.0010   -0.9990 hc        1 2ME      0.044700
      7 HA'3       -0.3390   -0.9090    0.5740 hc        1 2ME      0.044700
      8 HB'1        1.8870   -0.9080   -0.6230 h1        1 2ME      0.023700
      9 HB'2        1.8840    0.9180   -0.6150 h1        1 2ME      0.023700
     10 HD'1        3.6920   -0.0050    2.3860 h1        1 2ME      0.031367
     11 HD'2        3.8550   -0.9110    0.7960 h1        1 2ME      0.031367
     12 HD'3        3.8500    0.9180    0.8050 h1        1 2ME      0.031367
@<TRIPOS>BOND
     1    1    2 1   
     2    1    5 1   
     3    1    6 1   
     4    1    7 1   
     5    2    3 1   
     6    2    8 1   
     7    2    9 1   
     8    3    4 1   
     9    4   10 1   
    10    4   11 1   
    11    4   12 1   
@<TRIPOS>SUBSTRUCTURE
     1 2ME         1 TEMP              0 ****  ****    0 ROOT
