@<TRIPOS>MOLECULE
2ME
   12    11     1     0     0
SMALL
bcc


@<TRIPOS>ATOM
      1 CA'         1.8570    0.1490   -0.0000 c3        1 2ME     -0.097100
      2 CB'         0.5300   -0.5720    0.0000 c3        1 2ME      0.127400
      3 OC'        -0.4870    0.4290   -0.0000 os        1 2ME     -0.423600
      4 CD'        -1.7920   -0.1220    0.0000 c3        1 2ME      0.116700
      5 HA'1        1.9480    0.7970    0.9040 hc        1 2ME      0.044700
      6 HA'2        2.6850   -0.5990    0.0000 hc        1 2ME      0.044700
      7 HA'3        1.9480    0.7960   -0.9050 hc        1 2ME      0.044700
      8 HB'1        0.4200   -1.2170   -0.9130 h1        1 2ME      0.023700
      9 HB'2        0.4190   -1.2170    0.9130 h1        1 2ME      0.023700
     10 HD'1       -1.9590   -0.7430   -0.9150 h1        1 2ME      0.031367
     11 HD'2       -1.9590   -0.7430    0.9150 h1        1 2ME      0.031367
     12 HD'3       -2.4720    0.7660   -0.0000 h1        1 2ME      0.031367
@<TRIPOS>BOND
     1    1    2 1   
     2    1    5 1   
     3    1    6 1   
     4    1    7 1   
     5    2    3 1   
     6    2    8 1   
     7    2    9 1   
     8    3    4 1   
     9    4   10 1   
    10    4   11 1   
    11    4   12 1   
@<TRIPOS>SUBSTRUCTURE
     1 2ME         1 TEMP              0 ****  ****    0 ROOT
