@<TRIPOS>MOLECULE
2MG
   39    37     1     0     0
SMALL
bcc


@<TRIPOS>ATOM
      1 P           0.7780    5.8090    1.2460 p3        1 2MG      2.528000
      2 OP1         2.1260    6.2910    1.6400 o         1 2MG     -1.252000
      3 OP2        -0.1180    5.7650    2.4580 os        1 2MG     -1.243000
      4 OP3         0.1800    6.7590    0.2090 o         1 2MG     -1.252000
      5 O5'         0.8950    4.3690    0.6330 os        1 2MG     -0.715000
      6 C5'        -0.3100    3.6360    0.3830 c3        1 2MG      0.079000
      7 C4'        -0.1370    2.7790   -0.8780 c3        1 2MG     -0.060000
      8 O4'         0.5680    1.4320   -0.5230 os        1 2MG     -0.288000
      9 C3'        -1.2720    2.4450   -1.3430 c3        1 2MG      0.020000
     10 O3'        -1.2030    2.3150   -2.7940 oh        1 2MG     -0.413000
     11 C2'        -1.6390    0.9880   -0.6590 c3        1 2MG     -0.008000
     12 O2'        -2.6240    0.2610   -1.5110 oh        1 2MG     -0.346000
     13 C1'        -0.5540    0.3420   -0.5990 c3        1 2MG      0.123000
     14 N9         -0.5320   -0.5030    0.6180 n3        1 2MG     -0.134000
     15 C8         -1.1040   -0.3130    1.8330 c1        1 2MG     -0.040000
     16 N7         -0.8860   -1.4330    2.5820 n2        1 2MG     -0.104000
     17 C5         -0.1940   -2.2930    1.8400 c1        1 2MG     -0.221000
     18 C6          0.4690   -3.6130    2.1800 c1        1 2MG      0.391000
     19 O6          0.1830   -4.2000    3.2650 o         1 2MG     -0.369000
     20 N1          1.2430   -4.2840    1.1980 n3        1 2MG     -0.332000
     21 C2          1.3980   -3.7120   -0.1110 c2        1 2MG      0.148000
     22 N2          2.2270   -4.3330   -1.0470 n3        1 2MG     -0.260000
     23 CM2         1.9660   -5.7040   -1.4400 c3        1 2MG     -0.127000
     24 N3          0.7620   -2.4500   -0.4320 n1        1 2MG     -0.181000
     25 C4          0.0280   -1.7110    0.6100 c1        1 2MG      0.004000
     26 H5'        -1.0760    4.2830    0.2470 h1        1 2MG      0.037500
     27 H5''       -0.5120    3.0310    1.1800 h1        1 2MG      0.037500
     28 H4'         0.4020    3.2880   -1.5860 h1        1 2MG      0.122000
     29 H3'        -1.9280    3.0930   -1.1020 h1        1 2MG      0.158000
     30 HO3'       -1.8860    2.7760   -3.1700 ho        1 2MG      0.316000
     31 H2'        -2.0040    1.1200    0.2480 h1        1 2MG      0.107000
     32 HO2'       -3.4650    0.4490   -1.2260 ho        1 2MG      0.231000
     33 H1'        -0.4410   -0.2000   -1.3860 h2        1 2MG      0.125000
     34 H8         -1.5630    0.4780    2.1210 DU        1 2MG      0.253000
     35 HN1         1.6390   -5.0880    1.3960 hn        1 2MG      0.237000
     36 HN2         2.8570   -3.8430   -1.4940 hn        1 2MG      0.193000
     37 HM21        1.3770   -5.7110   -2.2100 h1        1 2MG      0.077667
     38 HM22        2.8050   -6.1440   -1.6700 h1        1 2MG      0.077667
     39 HM23        1.5450   -6.1740   -0.7080 h1        1 2MG      0.077667
@<TRIPOS>BOND
     1    1    2 1   
     2    1    4 1   
     3    1    5 1   
     4    5    6 1   
     5    6    7 1   
     6    6   26 1   
     7    6   27 1   
     8    7    8 1   
     9    7    9 1   
    10    7   28 1   
    11    8   13 1   
    12    9   10 1   
    13    9   11 1   
    14    9   29 1   
    15   10   30 1   
    16   11   12 1   
    17   11   13 1   
    18   11   31 1   
    19   12   32 1   
    20   13   14 1   
    21   13   33 1   
    22   14   15 1   
    23   14   25 1   
    24   15   16 1   
    25   16   17 1   
    26   17   25 1   
    27   18   19 1   
    28   18   20 1   
    29   20   21 1   
    30   20   35 1   
    31   21   22 1   
    32   21   24 1   
    33   22   23 1   
    34   22   36 1   
    35   23   37 1   
    36   23   38 1   
    37   23   39 1   
@<TRIPOS>SUBSTRUCTURE
     1 2MG         1 TEMP              0 ****  ****    0 ROOT
