@<TRIPOS>MOLECULE
2MG
   39    41     1     0     0
SMALL
bcc


@<TRIPOS>ATOM
      1 P          -0.1190   -1.4350   -4.8880 p5        1 2MG      1.335900
      2 OP1        -1.2210   -2.3120   -4.3720 o         1 2MG     -0.929500
      3 OP2        -0.0720   -1.1190   -6.3490 o         1 2MG     -0.929500
      4 OP3         1.2120   -1.6480   -4.1890 o         1 2MG     -0.929500
      5 O5'        -0.5240    0.0950   -4.1460 os        1 2MG     -0.553200
      6 C5'        -0.6380    0.0340   -2.7870 c3        1 2MG      0.229400
      7 C4'         0.6410    0.5920   -2.1130 c3        1 2MG      0.051100
      8 O4'         0.2910    1.3480   -0.9230 os        1 2MG     -0.431600
      9 C3'         1.6520   -0.4980   -1.7090 c3        1 2MG      0.131100
     10 O3'         2.8470   -0.3730   -2.4430 oh        1 2MG     -0.685800
     11 C2'         1.9590   -0.2540   -0.2150 c3        1 2MG      0.103100
     12 O2'         3.2360    0.2800    0.0590 oh        1 2MG     -0.618800
     13 C1'         0.8890    0.7990    0.2340 c3        1 2MG      0.214800
     14 N9         -0.1500    0.2450    1.1010 na        1 2MG     -0.178900
     15 C8         -1.3450   -0.3980    0.7160 cc        1 2MG      0.448400
     16 N7         -2.1210   -0.7560    1.7640 nd        1 2MG     -0.630000
     17 C5         -1.4180   -0.3330    2.8900 cd        1 2MG      0.196800
     18 C6         -1.7380   -0.4340    4.2980 c         1 2MG      0.644000
     19 O6         -2.7430   -0.9330    4.8370 o         1 2MG     -0.644500
     20 N1         -0.7530    0.1150    5.1580 n         1 2MG     -0.492400
     21 C2          0.4170    0.7310    4.6730 cd        1 2MG      0.594800
     22 N2          1.2860    1.3130    5.6810 nh        1 2MG     -0.775200
     23 CM2         2.0770    0.3340    6.3870 c3        1 2MG      0.149100
     24 N3          0.7480    0.8340    3.3780 nc        1 2MG     -0.608100
     25 C4         -0.1810    0.3050    2.4940 cc        1 2MG      0.053800
     26 H5'        -0.8220   -1.0240   -2.4420 h1        1 2MG     -0.001800
     27 H5''       -1.4960    0.6860   -2.4450 h1        1 2MG     -0.001800
     28 H4'         1.1230    1.3390   -2.7990 h1        1 2MG      0.082700
     29 H3'         1.2190   -1.5260   -1.8640 h1        1 2MG      0.118700
     30 HO3'        2.6500   -0.7750   -3.3260 ho        1 2MG      0.517000
     31 H2'         1.8950   -1.2030    0.3790 h1        1 2MG      0.067700
     32 HO2'        3.5970    0.6250   -0.7700 ho        1 2MG      0.432000
     33 H1'         1.3730    1.6500    0.7970 h2        1 2MG      0.085700
     34 H8         -1.5720   -0.5630   -0.3540 h5        1 2MG      0.116100
     35 HN1        -0.9350    0.1100    6.1360 hn        1 2MG      0.323500
     36 HN2         1.8750    2.0100    5.2580 hn        1 2MG      0.397800
     37 HM21        2.6750    0.8770    7.1660 h1        1 2MG      0.038367
     38 HM22        1.4010   -0.3990    6.8990 h1        1 2MG      0.038367
     39 HM23        2.7830   -0.2390    5.7270 h1        1 2MG      0.038367
@<TRIPOS>BOND
     1    1    2 1   
     2    1    3 1   
     3    1    4 1   
     4    1    5 1   
     5    5    6 1   
     6    6    7 1   
     7    6   26 1   
     8    6   27 1   
     9    7    8 1   
    10    7    9 1   
    11    7   28 1   
    12    8   13 1   
    13    9   10 1   
    14    9   11 1   
    15    9   29 1   
    16   10   30 1   
    17   11   12 1   
    18   11   13 1   
    19   11   31 1   
    20   12   32 1   
    21   13   14 1   
    22   13   33 1   
    23   14   15 1   
    24   14   25 1   
    25   15   16 2   
    26   15   34 1   
    27   16   17 1   
    28   17   18 1   
    29   17   25 2   
    30   18   19 2   
    31   18   20 1   
    32   20   21 1   
    33   20   35 1   
    34   21   22 1   
    35   21   24 2   
    36   22   23 1   
    37   22   36 1   
    38   23   37 1   
    39   23   38 1   
    40   23   39 1   
    41   24   25 1   
@<TRIPOS>SUBSTRUCTURE
     1 2MG         1 TEMP              0 ****  ****    0 ROOT
