@<TRIPOS>MOLECULE
2MH
   24    24     1     0     0
SMALL
bcc


@<TRIPOS>ATOM
      1 N1         -0.0380   -0.1990    0.0020 n4        1 2MH     -0.843600
      2 C5          1.4580    0.0050    0.0120 c3        1 2MH      0.128500
      3 C6          1.9930    0.0450    1.4450 c3        1 2MH     -0.108400
      4 C4          1.8390    1.2840   -0.7360 c3        1 2MH     -0.108400
      5 C3          1.4250    2.5350    0.0070 c3        1 2MH     -0.092400
      6 C2          1.9740    2.5570    1.4260 c3        1 2MH     -0.072700
      7 C1          1.4930    3.7890    2.1600 c3        1 2MH     -0.097100
      8 C7          1.5780    1.2980    2.1840 c3        1 2MH     -0.092400
      9 HN11       -0.3770   -0.2410   -0.9620 hn        1 2MH      0.458133
     10 HN12       -0.4890    0.5890    0.4810 hn        1 2MH      0.458133
     11 H5          1.8930   -0.8910   -0.5270 hx        1 2MH      0.106700
     12 H61         1.6720   -0.8670    2.0150 hc        1 2MH      0.085200
     13 H62         3.1150    0.0080    1.3700 hc        1 2MH      0.085200
     14 H41         1.4050    1.2840   -1.7700 hc        1 2MH      0.085200
     15 H42         2.9590    1.2680   -0.8480 hc        1 2MH      0.085200
     16 H31         1.8130    3.4310   -0.5490 hc        1 2MH      0.059700
     17 H32         0.3070    2.6300    0.0300 hc        1 2MH      0.059700
     18 H2          3.1000    2.5920    1.3660 hc        1 2MH      0.071700
     19 H11         0.3790    3.7960    2.2420 hc        1 2MH      0.051033
     20 H12         1.8130    4.7120    1.6170 hc        1 2MH      0.051033
     21 H13         1.9240    3.8180    3.1900 hc        1 2MH      0.051033
     22 H71         0.4730    1.2990    2.3720 hc        1 2MH      0.059700
     23 H72         2.0770    1.3060    3.1910 hc        1 2MH      0.059700
     24 H131       -0.2750   -1.0670    0.4900 hn        1 2MH      0.458133
@<TRIPOS>BOND
     1    1    2 1   
     2    1    9 1   
     3    1   10 1   
     4    1   24 1   
     5    2    3 1   
     6    2    4 1   
     7    2   11 1   
     8    3    8 1   
     9    3   12 1   
    10    3   13 1   
    11    4    5 1   
    12    4   14 1   
    13    4   15 1   
    14    5    6 1   
    15    5   16 1   
    16    5   17 1   
    17    6    7 1   
    18    6    8 1   
    19    6   18 1   
    20    7   19 1   
    21    7   20 1   
    22    7   21 1   
    23    8   22 1   
    24    8   23 1   
@<TRIPOS>SUBSTRUCTURE
     1 2MH         1 TEMP              0 ****  ****    0 ROOT
