@<TRIPOS>MOLECULE
2MH
   23    23     1     0     0
SMALL
bcc


@<TRIPOS>ATOM
      1 N1         -1.5370   -1.4990   -0.8130 n3        1 2MH     -0.912800
      2 C5         -0.1050   -1.4990   -0.8130 c3        1 2MH      0.173500
      3 C6          0.3860   -1.4990    0.6230 c3        1 2MH     -0.069400
      4 C4          0.3870   -0.2890   -1.5960 c3        1 2MH     -0.069400
      5 C3          0.0980    1.0150   -0.8870 c3        1 2MH     -0.068400
      6 C2          0.5880    1.0150    0.5500 c3        1 2MH     -0.062700
      7 C1          0.0940    2.2820    1.2390 c3        1 2MH     -0.089100
      8 C7          0.0960   -0.1950    1.3330 c3        1 2MH     -0.068400
      9 HN11       -1.8410   -1.5200   -1.6730 hn        1 2MH      0.347800
     10 HN12       -1.8410   -2.2330   -0.3650 hn        1 2MH      0.347800
     11 H5          0.2110   -2.3110   -1.2550 h1        1 2MH      0.000700
     12 H61         1.3500   -1.6540    0.6280 hc        1 2MH      0.037700
     13 H62        -0.0530   -2.2260    1.1060 hc        1 2MH      0.037700
     14 H41         1.3510   -0.3700   -1.7280 hc        1 2MH      0.037700
     15 H42        -0.0510   -0.2780   -2.4680 hc        1 2MH      0.037700
     16 H31        -0.8660    1.1700   -0.8910 hc        1 2MH      0.045200
     17 H32         0.5370    1.7410   -1.3700 hc        1 2MH      0.045200
     18 H2          1.5650    1.0160    0.5500 hc        1 2MH      0.040700
     19 H11         0.4230    2.3030    2.1580 hc        1 2MH      0.032367
     20 H12         0.4230    3.0650    0.7580 hc        1 2MH      0.032367
     21 H13        -0.8830    2.2900    1.2440 hc        1 2MH      0.032367
     22 H71        -0.8670   -0.1150    1.4650 hc        1 2MH      0.045200
     23 H72         0.5350   -0.2060    2.2050 hc        1 2MH      0.045200
@<TRIPOS>BOND
     1    1    2 1   
     2    1    9 1   
     3    1   10 1   
     4    2    3 1   
     5    2    4 1   
     6    2   11 1   
     7    3    8 1   
     8    3   12 1   
     9    3   13 1   
    10    4    5 1   
    11    4   14 1   
    12    4   15 1   
    13    5    6 1   
    14    5   16 1   
    15    5   17 1   
    16    6    7 1   
    17    6    8 1   
    18    6   18 1   
    19    7   19 1   
    20    7   20 1   
    21    7   21 1   
    22    8   22 1   
    23    8   23 1   
@<TRIPOS>SUBSTRUCTURE
     1 2MH         1 TEMP              0 ****  ****    0 ROOT
