@<TRIPOS>MOLECULE
2MH
   23    23     1     0     0
SMALL
bcc


@<TRIPOS>ATOM
      1 N1         -2.0250   -0.0050    1.1560 n3        1 2MH     -0.912800
      2 C5         -1.5980   -0.0020   -0.2330 c3        1 2MH      0.173500
      3 C6         -0.7760   -1.2510   -0.5920 c3        1 2MH     -0.069400
      4 C4         -0.7790    1.2490   -0.5880 c3        1 2MH     -0.069400
      5 C3          0.5830    1.2480    0.0710 c3        1 2MH     -0.068400
      6 C2          1.3740    0.0010   -0.2970 c3        1 2MH     -0.062700
      7 C1          2.7190    0.0010    0.3940 c3        1 2MH     -0.089100
      8 C7          0.5850   -1.2490    0.0660 c3        1 2MH     -0.068400
      9 HN11       -2.5690    0.8110    1.3520 hn        1 2MH      0.347800
     10 HN12       -2.5670   -0.8230    1.3490 hn        1 2MH      0.347800
     11 H5         -2.5020   -0.0020   -0.9240 h1        1 2MH      0.000700
     12 H61        -1.3340   -2.1780   -0.2980 hc        1 2MH      0.037700
     13 H62        -0.6550   -1.2690   -1.7070 hc        1 2MH      0.037700
     14 H41        -0.6580    1.2710   -1.7030 hc        1 2MH      0.037700
     15 H42        -1.3390    2.1740   -0.2900 hc        1 2MH      0.037700
     16 H31         1.1530    2.1580   -0.2510 hc        1 2MH      0.045200
     17 H32         0.4640    1.2970    1.1850 hc        1 2MH      0.045200
     18 H2          1.5420    0.0030   -1.4120 hc        1 2MH      0.040700
     19 H11         2.5910   -0.0010    1.5040 hc        1 2MH      0.032367
     20 H12         3.3050   -0.9050    0.1040 hc        1 2MH      0.032367
     21 H13         3.3030    0.9090    0.1070 hc        1 2MH      0.032367
     22 H71         0.4670   -1.3020    1.1800 hc        1 2MH      0.045200
     23 H72         1.1580   -2.1570   -0.2590 hc        1 2MH      0.045200
@<TRIPOS>BOND
     1    1    2 1   
     2    1    9 1   
     3    1   10 1   
     4    2    3 1   
     5    2    4 1   
     6    2   11 1   
     7    3    8 1   
     8    3   12 1   
     9    3   13 1   
    10    4    5 1   
    11    4   14 1   
    12    4   15 1   
    13    5    6 1   
    14    5   16 1   
    15    5   17 1   
    16    6    7 1   
    17    6    8 1   
    18    6   18 1   
    19    7   19 1   
    20    7   20 1   
    21    7   21 1   
    22    8   22 1   
    23    8   23 1   
@<TRIPOS>SUBSTRUCTURE
     1 2MH         1 TEMP              0 ****  ****    0 ROOT
