@<TRIPOS>MOLECULE
2MH
   24    24     1     0     0
SMALL
bcc


@<TRIPOS>ATOM
      1 N1         -0.0490   -0.1410   -0.0860 n4        1 2MH     -0.843600
      2 C5          1.4500    0.0120    0.0000 c3        1 2MH      0.128500
      3 C6          1.9150    0.0200    1.4580 c3        1 2MH     -0.108400
      4 C4          1.9110    1.2840   -0.7140 c3        1 2MH     -0.108400
      5 C3          1.5020    2.5410    0.0220 c3        1 2MH     -0.092400
      6 C2          1.9810    2.5310    1.4660 c3        1 2MH     -0.072700
      7 C1          1.5050    3.7720    2.1890 c3        1 2MH     -0.097100
      8 C7          1.5070    1.2790    2.1890 c3        1 2MH     -0.092400
      9 HN11       -0.3410   -0.1630   -1.0660 hn        1 2MH      0.458133
     10 HN12       -0.4960    0.6560    0.3800 hn        1 2MH      0.458133
     11 H5          1.8820   -0.8930   -0.5270 hx        1 2MH      0.106700
     12 H61         1.5360   -0.8860    2.0020 hc        1 2MH      0.085200
     13 H62         3.0380   -0.0540    1.4370 hc        1 2MH      0.085200
     14 H41         1.5280    1.3090   -1.7690 hc        1 2MH      0.085200
     15 H42         3.0330    1.2320   -0.7720 hc        1 2MH      0.085200
     16 H31         1.9470    3.4290   -0.5050 hc        1 2MH      0.059700
     17 H32         0.3890    2.6730   -0.0100 hc        1 2MH      0.059700
     18 H2          3.1090    2.5280    1.4620 hc        1 2MH      0.071700
     19 H11         1.8850    3.7760    3.2400 hc        1 2MH      0.051033
     20 H12         0.3890    3.8150    2.2170 hc        1 2MH      0.051033
     21 H13         1.8820    4.6880    1.6730 hc        1 2MH      0.051033
     22 H71         1.9540    1.2600    3.2200 hc        1 2MH      0.059700
     23 H72         0.3940    1.3150    2.3230 hc        1 2MH      0.059700
     24 H131       -0.3380   -1.0060    0.3800 hn        1 2MH      0.458133
@<TRIPOS>BOND
     1    1    2 1   
     2    1    9 1   
     3    1   10 1   
     4    1   24 1   
     5    2    3 1   
     6    2    4 1   
     7    2   11 1   
     8    3    8 1   
     9    3   12 1   
    10    3   13 1   
    11    4    5 1   
    12    4   14 1   
    13    4   15 1   
    14    5    6 1   
    15    5   16 1   
    16    5   17 1   
    17    6    7 1   
    18    6    8 1   
    19    6   18 1   
    20    7   19 1   
    21    7   20 1   
    22    7   21 1   
    23    8   22 1   
    24    8   23 1   
@<TRIPOS>SUBSTRUCTURE
     1 2MH         1 TEMP              0 ****  ****    0 ROOT
