@<TRIPOS>MOLECULE
2MH
   24    24     1     0     0
SMALL
bcc


@<TRIPOS>ATOM
      1 N1         -0.0400   -0.1450   -0.0930 nz        1 2MH     -0.843600
      2 C5          1.4580    0.0130   -0.0020 c3        1 2MH      0.128500
      3 C6          1.9180    0.0200    1.4580 c3        1 2MH     -0.108400
      4 C4          1.9170    1.2880   -0.7130 c3        1 2MH     -0.108400
      5 C3          1.5010    2.5430    0.0240 c3        1 2MH     -0.092400
      6 C2          1.9750    2.5320    1.4690 c3        1 2MH     -0.072700
      7 C1          1.4930    3.7700    2.1930 c3        1 2MH     -0.097100
      8 C7          1.5030    1.2780    2.1890 c3        1 2MH     -0.092400
      9 HN11       -0.3290   -0.1660   -1.0740 hn        1 2MH      0.458133
     10 HN12       -0.3280   -1.0100    0.3700 hn        1 2MH      0.458133
     11 H5          1.8940   -0.8890   -0.5290 hx        1 2MH      0.106700
     12 H61         3.0410   -0.0500    1.4410 hc        1 2MH      0.085200
     13 H62         1.5400   -0.8870    1.9980 hc        1 2MH      0.085200
     14 H41         1.5380    1.3130   -1.7680 hc        1 2MH      0.085200
     15 H42         3.0400    1.2400   -0.7660 hc        1 2MH      0.085200
     16 H31         0.3870    2.6710   -0.0110 hc        1 2MH      0.059700
     17 H32         1.9450    3.4330   -0.5000 hc        1 2MH      0.059700
     18 H2          3.1030    2.5330    1.4690 hc        1 2MH      0.071700
     19 H11         1.8680    4.6880    1.6800 hc        1 2MH      0.051033
     20 H12         1.8690    3.7740    3.2450 hc        1 2MH      0.051033
     21 H13         0.3770    3.8090    2.2170 hc        1 2MH      0.051033
     22 H71         0.3890    1.3100    2.3200 hc        1 2MH      0.059700
     23 H72         1.9470    1.2580    3.2210 hc        1 2MH      0.059700
     24 H131       -0.4920    0.6500    0.3720 hn        1 2MH      0.458133
@<TRIPOS>BOND
     1    1    2 1   
     2    1    9 1   
     3    1   10 1   
     4    1   24 1   
     5    2    3 1   
     6    2    4 1   
     7    2   11 1   
     8    3    8 1   
     9    3   12 1   
    10    3   13 1   
    11    4    5 1   
    12    4   14 1   
    13    4   15 1   
    14    5    6 1   
    15    5   16 1   
    16    5   17 1   
    17    6    7 1   
    18    6    8 1   
    19    6   18 1   
    20    7   19 1   
    21    7   20 1   
    22    7   21 1   
    23    8   22 1   
    24    8   23 1   
@<TRIPOS>SUBSTRUCTURE
     1 2MH         1 TEMP              0 ****  ****    0 ROOT
