@<TRIPOS>MOLECULE
2MI
   19    14     1     0     0
SMALL
bcc


@<TRIPOS>ATOM
      1 CAJ        -3.2520    0.0010   -0.0330 c3        1 2MI     -0.166000
      2 CAG        -1.7400    0.0010   -0.0330 c2        1 2MI     -0.028000
      3 CAC        -0.9430    0.0010    1.0940 c1        1 2MI     -0.197000
      4 CAA         0.3730    0.0010    0.6850 c1        1 2MI     -0.082000
      5 CAD         1.5820    0.0010    1.4020 c1        1 2MI     -0.126000
      6 CAH         2.7910    0.0010    0.7220 c1        1 2MI     -0.126000
      7 CAI         2.8070    0.0010   -0.6670 c1        1 2MI     -0.126000
      8 CAF         1.6140    0.0010   -1.3740 c1        1 2MI     -0.126000
      9 CAB         0.3880    0.0010   -0.6860 c1        1 2MI      0.003000
     10 NAE        -0.9220    0.0010   -1.1290 n1        1 2MI     -0.217000
     11 HAJ1       -3.5780    0.7430    0.5120 hc        1 2MI      0.090667
     12 HAJ2       -3.5780   -0.8410    0.3370 hc        1 2MI      0.090667
     13 HAJ3       -3.5780    0.1020   -0.9480 hc        1 2MI      0.090667
     14 HAC        -1.2570   -0.0230    2.0180 DU        1 2MI      0.200500
     15 HAD         1.5710    0.0010    2.3780 ha        1 2MI      0.129750
     16 HAH         3.6310    0.0010    1.2190 ha        1 2MI      0.129750
     17 HAI         3.6580    0.0010   -1.1450 ha        1 2MI      0.129750
     18 HAF         1.6260    0.0010   -2.3510 ha        1 2MI      0.129750
     19 HAE        -1.1940    0.0010   -2.0000 DU        1 2MI      0.200500
@<TRIPOS>BOND
     1    1    2 1   
     2    1   11 1   
     3    1   12 1   
     4    1   13 1   
     5    2    3 1   
     6    2   10 1   
     7    3    4 1   
     8    4    9 1   
     9    5    6 1   
    10    5   15 1   
    11    6   16 1   
    12    7    8 1   
    13    7   17 1   
    14    8   18 1   
@<TRIPOS>SUBSTRUCTURE
     1 2MI         1 TEMP              0 ****  ****    0 ROOT
