@<TRIPOS>MOLECULE
2MI
   19    20     1     0     0
SMALL
bcc


@<TRIPOS>ATOM
      1 CAJ         0.0100    0.0160   -0.0310 c3        1 2MI     -0.043900
      2 CAG         1.4840    0.0110    0.0200 cc        1 2MI     -0.059300
      3 CAC         2.3000   -0.0360    1.1510 cd        1 2MI     -0.185200
      4 CAA         3.6700   -0.0210    0.6970 ca        1 2MI     -0.093800
      5 CAD         4.9090   -0.0490    1.3400 ca        1 2MI     -0.083000
      6 CAH         6.0640   -0.0210    0.5730 ca        1 2MI     -0.160000
      7 CAI         6.0080    0.0360   -0.8320 ca        1 2MI     -0.113000
      8 CAF         4.8010    0.0660   -1.5120 ca        1 2MI     -0.148000
      9 CAB         3.6220    0.0370   -0.7490 ca        1 2MI     -0.042200
     10 NAE         2.2820    0.0560   -1.1370 na        1 2MI     -0.194400
     11 HAJ1       -0.3970   -0.0250    1.0090 hc        1 2MI      0.051367
     12 HAJ2       -0.3740   -0.8690   -0.5990 hc        1 2MI      0.051367
     13 HAJ3       -0.3700    0.9450   -0.5260 hc        1 2MI      0.051367
     14 HAC         1.9720   -0.0770    2.1840 ha        1 2MI      0.155000
     15 HAD         4.9590   -0.0930    2.4370 ha        1 2MI      0.133000
     16 HAH         7.0470   -0.0430    1.0650 ha        1 2MI      0.128000
     17 HAI         6.9490    0.0570   -1.4020 ha        1 2MI      0.128000
     18 HAF         4.7660    0.1100   -2.6080 ha        1 2MI      0.130000
     19 HAE         1.9500    0.0940   -2.0610 hn        1 2MI      0.295700
@<TRIPOS>BOND
     1    1    2 1   
     2    1   11 1   
     3    1   12 1   
     4    1   13 1   
     5    2    3 2   
     6    2   10 1   
     7    3    4 1   
     8    3   14 1   
     9    4    5 ar  
    10    4    9 ar  
    11    5    6 ar  
    12    5   15 1   
    13    6    7 ar  
    14    6   16 1   
    15    7    8 ar  
    16    7   17 1   
    17    8    9 ar  
    18    8   18 1   
    19    9   10 1   
    20   10   19 1   
@<TRIPOS>SUBSTRUCTURE
     1 2MI         1 TEMP              0 ****  ****    0 ROOT
