@<TRIPOS>MOLECULE
2MI
   19    20     1     0     0
SMALL
bcc


@<TRIPOS>ATOM
      1 CAJ         3.4480    0.0200   -0.0000 c3        1 2MI     -0.043900
      2 CAG         1.9750   -0.0570   -0.0030 cc        1 2MI     -0.059300
      3 CAC         1.1790   -1.2020   -0.0590 cd        1 2MI     -0.185200
      4 CAA        -0.1990   -0.7730   -0.0370 ca        1 2MI     -0.093800
      5 CAD        -1.4260   -1.4380   -0.0700 ca        1 2MI     -0.083000
      6 CAH        -2.5940   -0.6920   -0.0320 ca        1 2MI     -0.160000
      7 CAI        -2.5640    0.7130    0.0370 ca        1 2MI     -0.113000
      8 CAF        -1.3690    1.4140    0.0710 ca        1 2MI     -0.148000
      9 CAB        -0.1770    0.6730    0.0340 ca        1 2MI     -0.042200
     10 NAE         1.1560    1.0840    0.0530 na        1 2MI     -0.194400
     11 HAJ1        3.8210    0.5130    0.9330 hc        1 2MI      0.051367
     12 HAJ2        3.8730   -1.0120   -0.0510 hc        1 2MI      0.051367
     13 HAJ3        3.8200    0.6030   -0.8800 hc        1 2MI      0.051367
     14 HAC         1.5260   -2.2290   -0.1100 ha        1 2MI      0.155000
     15 HAD        -1.4560   -2.5350   -0.1240 ha        1 2MI      0.133000
     16 HAH        -3.5680   -1.2020   -0.0570 ha        1 2MI      0.128000
     17 HAI        -3.5150    1.2650    0.0650 ha        1 2MI      0.128000
     18 HAF        -1.3530    2.5100    0.1250 ha        1 2MI      0.130000
     19 HAE         1.4720    2.0150    0.0990 hn        1 2MI      0.295700
@<TRIPOS>BOND
     1    1    2 1   
     2    1   11 1   
     3    1   12 1   
     4    1   13 1   
     5    2    3 2   
     6    2   10 1   
     7    3    4 1   
     8    3   14 1   
     9    4    5 ar  
    10    4    9 ar  
    11    5    6 ar  
    12    5   15 1   
    13    6    7 ar  
    14    6   16 1   
    15    7    8 ar  
    16    7   17 1   
    17    8    9 ar  
    18    8   18 1   
    19    9   10 1   
    20   10   19 1   
@<TRIPOS>SUBSTRUCTURE
     1 2MI         1 TEMP              0 ****  ****    0 ROOT
