@<TRIPOS>MOLECULE
2MJ
   28    26     1     0     0
SMALL
bcc


@<TRIPOS>ATOM
      1 C13        -0.3540   -0.2820    0.5650 c3        1 2MJ     -0.085700
      2 C9          5.1300    0.5740   -3.4820 c3        1 2MJ      0.137600
      3 C1          3.7750    0.1020   -3.0380 c2        1 2MJ      0.033900
      4 O10         3.7510   -0.9920   -2.1860 oh        1 2MJ     -0.606100
      5 C11         2.6160    0.6790   -3.3750 c2        1 2MJ     -0.276000
      6 C12         1.0230   -0.9290    0.7470 c3        1 2MJ      0.096800
      7 C47        -0.8900    0.0670    1.9410 c3        1 2MJ     -0.109600
      8 C19        -0.2770    0.9520   -0.3070 c3        1 2MJ     -0.109600
      9 N20         1.6110   -1.4170   -0.5290 n4        1 2MJ     -0.833600
     10 H1         -1.0540   -1.0270    0.0900 hc        1 2MJ      0.070700
     11 H4          2.5900    1.5550   -4.0360 ha        1 2MJ      0.129000
     12 H5          5.0720    1.0280   -4.5050 h1        1 2MJ      0.085200
     13 H6          4.6470   -1.3750   -2.1590 ho        1 2MJ      0.466000
     14 H7          1.7400   -0.1790    1.1900 hx        1 2MJ      0.108700
     15 H8          1.6400    0.3140   -3.0370 ha        1 2MJ      0.129000
     16 H9          0.9390   -1.8100    1.4470 hx        1 2MJ      0.108700
     17 H10        -0.2350    0.8190    2.4430 hc        1 2MJ      0.058867
     18 H11        -1.9150    0.5020    1.8430 hc        1 2MJ      0.058867
     19 H12        -0.9540   -0.8440    2.5840 hc        1 2MJ      0.058867
     20 H13        -1.2660    1.4740   -0.3070 hc        1 2MJ      0.058867
     21 H14         0.4900    1.6670    0.0780 hc        1 2MJ      0.058867
     22 H15        -0.0320    0.6920   -1.3660 hc        1 2MJ      0.058867
     23 H16         0.9950   -2.1050   -0.9690 hn        1 2MJ      0.463800
     24 H45         6.0470   -0.9400   -4.2820 ho        1 2MJ      0.423000
     25 H2          2.5310   -1.8450   -0.3690 hn        1 2MJ      0.463800
     26 O1          6.0540   -0.4940   -3.4250 oh        1 2MJ     -0.598800
     27 H203        1.7490   -0.6340   -1.1880 hn        1 2MJ      0.463800
     28 H3          5.5200    1.3390   -2.7520 h1        1 2MJ      0.085200
@<TRIPOS>BOND
     1    1    6 1   
     2    1    7 1   
     3    1    8 1   
     4    1   10 1   
     5    2    3 1   
     6    2   12 1   
     7    2   26 1   
     8    2   28 1   
     9    3    4 1   
    10    3    5 2   
    11    4   13 1   
    12    5   11 1   
    13    5   15 1   
    14    6    9 1   
    15    6   14 1   
    16    6   16 1   
    17    7   17 1   
    18    7   18 1   
    19    7   19 1   
    20    8   20 1   
    21    8   21 1   
    22    8   22 1   
    23    9   23 1   
    24    9   25 1   
    25    9   27 1   
    26   24   26 1   
@<TRIPOS>SUBSTRUCTURE
     1 2MJ         1 TEMP              0 ****  ****    0 ROOT
