@<TRIPOS>MOLECULE
2MJ
   28    26     1     0     0
SMALL
bcc


@<TRIPOS>ATOM
      1 C13        -0.1290    0.0650    0.6620 c2        1 2MJ     -0.087400
      2 C9          4.4970   -0.8700   -2.8100 c3        1 2MJ      0.101400
      3 C1          3.4950    0.2250   -2.4150 c3        1 2MJ      0.080100
      4 O10         3.5370    0.4350   -1.0100 oh        1 2MJ     -0.638800
      5 C11         2.0470   -0.1390   -2.7780 c3        1 2MJ      0.100800
      6 C12         1.1020   -0.0170    1.4880 c3        1 2MJ     -0.093400
      7 C47        -0.7090   -1.0220    0.1340 c2        1 2MJ     -0.326000
      8 C19        -0.6810    1.4280    0.4780 c3        1 2MJ     -0.093400
      9 N20         1.4320   -1.1140   -1.8380 n4        1 2MJ     -0.839600
     10 H1          1.9500    0.5140    0.9840 hc        1 2MJ      0.061700
     11 H4          2.0250   -0.5710   -3.8190 hx        1 2MJ      0.116200
     12 H5          4.6850   -0.8380   -3.9180 h1        1 2MJ      0.060700
     13 H6          3.7510    1.1790   -2.9610 h1        1 2MJ      0.104700
     14 H7          4.3540    0.9200   -0.8180 ho        1 2MJ      0.461000
     15 H8          1.4170    0.7980   -2.7500 hx        1 2MJ      0.116200
     16 H9          1.4030   -1.0750    1.6860 hc        1 2MJ      0.061700
     17 H10         0.9270    0.4820    2.4760 hc        1 2MJ      0.061700
     18 H11        -1.6450   -0.9650   -0.4390 ha        1 2MJ      0.124000
     19 H12        -0.3540   -2.0390    0.3460 ha        1 2MJ      0.124000
     20 H13        -1.1390    1.7730    1.4410 hc        1 2MJ      0.061700
     21 H14        -1.4750    1.4530   -0.3090 hc        1 2MJ      0.061700
     22 H15         0.1260    2.1520    0.2040 hc        1 2MJ      0.061700
     23 H16         0.4210   -1.1980   -2.0070 hn        1 2MJ      0.469467
     24 H45         5.7270   -0.9460   -1.3150 ho        1 2MJ      0.415000
     25 H2          1.8740   -2.0310   -1.9340 hn        1 2MJ      0.469467
     26 O1          5.7400   -0.5870   -2.2120 oh        1 2MJ     -0.565800
     27 H203        1.5660   -0.7810   -0.8640 hn        1 2MJ      0.469467
     28 H3          4.1210   -1.8840   -2.5180 h1        1 2MJ      0.060700
@<TRIPOS>BOND
     1    1    6 1   
     2    1    7 2   
     3    1    8 1   
     4    2    3 1   
     5    2   12 1   
     6    2   26 1   
     7    2   28 1   
     8    3    4 1   
     9    3    5 1   
    10    3   13 1   
    11    4   14 1   
    12    5    9 1   
    13    5   11 1   
    14    5   15 1   
    15    6   10 1   
    16    6   16 1   
    17    6   17 1   
    18    7   18 1   
    19    7   19 1   
    20    8   20 1   
    21    8   21 1   
    22    8   22 1   
    23    9   23 1   
    24    9   25 1   
    25    9   27 1   
    26   24   26 1   
@<TRIPOS>SUBSTRUCTURE
     1 2MJ         1 TEMP              0 ****  ****    0 ROOT
