@<TRIPOS>MOLECULE
2MJ
   28    25     1     0     0
SMALL
bcc


@<TRIPOS>ATOM
      1 C13        -0.0950    0.3570    0.4930 c2        1 2MJ     -0.138400
      2 C9          5.1740    0.7200   -2.5990 c3        1 2MJ      0.134400
      3 C1          3.5110   -1.1250   -2.6340 c         1 2MJ      0.648900
      4 O10         2.4410   -1.4920   -2.1260 o         1 2MJ     -0.672100
      5 C11         3.7770    0.2920   -3.0230 c3        1 2MJ     -0.212400
      6 C12         1.3030    0.8180    0.3020 c3        1 2MJ     -0.090900
      7 C47        -0.4870   -0.3090    1.5870 c2        1 2MJ     -0.273000
      8 C19        -1.0420    0.7310   -0.5870 c3        1 2MJ     -0.090900
      9 N20         0.3940   -2.3630   -0.5830 n+        1 2MJ     -0.919200
     10 H1          1.7420    0.3810   -0.6330 hc        1 2MJ      0.058367
     11 H4          3.6930    0.3800   -4.1400 hc        1 2MJ      0.091700
     12 H5          5.3330    1.8010   -2.8560 h1        1 2MJ      0.047200
     13 H6          4.3350   -1.8510   -2.8180 h4        1 2MJ      0.025200
     14 H7          0.3850   -1.4860   -1.1280 hn        1 2MJ      0.472800
     15 H8          3.0150    0.9740   -2.5590 hc        1 2MJ      0.091700
     16 H9          1.9540    0.5410    1.1670 hc        1 2MJ      0.058367
     17 H10         1.3190    1.9330    0.2000 hc        1 2MJ      0.058367
     18 H11        -1.5330   -0.6020    1.7540 ha        1 2MJ      0.132000
     19 H12         0.1970   -0.5270    2.4190 ha        1 2MJ      0.132000
     20 H13        -1.2800    1.8240   -0.5060 hc        1 2MJ      0.058367
     21 H14        -2.0030    0.1670   -0.5140 hc        1 2MJ      0.058367
     22 H15        -0.5910    0.5580   -1.5960 hc        1 2MJ      0.058367
     23 H16         0.2090   -2.1330    0.4030 hn        1 2MJ      0.472800
     24 H45         6.0860    0.9220   -0.9030 ho        1 2MJ      0.425000
     25 H2         -0.3120   -3.0050   -0.9400 hn        1 2MJ      0.472800
     26 O1          5.2580    0.5210   -1.1970 oh        1 2MJ     -0.621800
     27 H203        1.3280   -2.7780   -0.6850 hn        1 2MJ      0.472800
     28 H3          5.9550    0.0980   -3.1160 h1        1 2MJ      0.047200
@<TRIPOS>BOND
     1    1    6 1   
     2    1    7 2   
     3    1    8 1   
     4    2    5 1   
     5    2   12 1   
     6    2   26 1   
     7    2   28 1   
     8    3    4 2   
     9    3    5 1   
    10    3   13 1   
    11    5   11 1   
    12    5   15 1   
    13    6   10 1   
    14    6   16 1   
    15    6   17 1   
    16    7   18 1   
    17    7   19 1   
    18    8   20 1   
    19    8   21 1   
    20    8   22 1   
    21    9   14 1   
    22    9   23 1   
    23    9   25 1   
    24    9   27 1   
    25   24   26 1   
@<TRIPOS>SUBSTRUCTURE
     1 2MJ         1 TEMP              0 ****  ****    0 ROOT
