@<TRIPOS>MOLECULE
2ML
   24    23     1     0     0
SMALL
bcc


@<TRIPOS>ATOM
      1 N           1.6380    0.7820   -0.6770 n3        1 2ML     -0.883800
      2 CA          0.6610   -0.3140   -0.6400 c3        1 2ML      0.025200
      3 CB1         0.4340   -0.8250    0.7960 c3        1 2ML     -0.044400
      4 CB2         1.1510   -1.5010   -1.4780 c3        1 2ML     -0.064100
      5 CG         -0.1200    0.2280    1.7480 c3        1 2ML     -0.077700
      6 CD1        -1.2220   -0.3620    2.6080 c3        1 2ML     -0.082600
      7 CD2         0.9630    0.8060    2.6350 c3        1 2ML     -0.082600
      8 C          -0.7510    0.1110   -1.2050 c         1 2ML      0.891600
      9 O          -1.5860   -0.8000   -1.4580 o         1 2ML     -0.842800
     10 OXT        -0.9730    1.3470   -1.3620 o         1 2ML     -0.842800
     11 H2          1.2350    1.5550   -0.1720 hn        1 2ML      0.330800
     12 H           1.7110    1.0810   -1.6340 hn        1 2ML      0.330800
     13 HB11        1.3920   -1.2400    1.2060 hc        1 2ML      0.031700
     14 HB12       -0.2990   -1.6720    0.7120 hc        1 2ML      0.031700
     15 HB21        0.3430   -2.2720   -1.5030 hc        1 2ML      0.021700
     16 HB22        1.3630   -1.1820   -2.5260 hc        1 2ML      0.021700
     17 HB23        2.0770   -1.9460   -1.0440 hc        1 2ML      0.021700
     18 HG         -0.5730    1.0600    1.1320 hc        1 2ML      0.089700
     19 HD11       -1.6160    0.4060    3.3170 hc        1 2ML      0.020700
     20 HD12       -2.0620   -0.7150    1.9620 hc        1 2ML      0.020700
     21 HD13       -0.8400   -1.2260    3.2030 hc        1 2ML      0.020700
     22 HD21        1.3880    0.0170    3.3020 hc        1 2ML      0.020700
     23 HD22        1.7930    1.2290    2.0210 hc        1 2ML      0.020700
     24 HD23        0.5460    1.6190    3.2770 hc        1 2ML      0.020700
@<TRIPOS>BOND
     1    1    2 1   
     2    1   11 1   
     3    1   12 1   
     4    2    3 1   
     5    2    4 1   
     6    2    8 1   
     7    3    5 1   
     8    3   13 1   
     9    3   14 1   
    10    4   15 1   
    11    4   16 1   
    12    4   17 1   
    13    5    6 1   
    14    5    7 1   
    15    5   18 1   
    16    6   19 1   
    17    6   20 1   
    18    6   21 1   
    19    7   22 1   
    20    7   23 1   
    21    7   24 1   
    22    8    9 1   
    23    8   10 1   
@<TRIPOS>SUBSTRUCTURE
     1 2ML         1 TEMP              0 ****  ****    0 ROOT
