@<TRIPOS>MOLECULE
2ML
   24    23     1     0     0
SMALL
bcc


@<TRIPOS>ATOM
      1 N           1.1260    0.8070   -1.3910 n3        1 2ML     -0.882800
      2 CA         -0.2400    0.4360   -1.2310 c3        1 2ML      0.023200
      3 CB1        -0.5980    0.4540    0.2380 c3        1 2ML     -0.054400
      4 CB2        -0.4520   -0.9570   -1.7840 c3        1 2ML     -0.062100
      5 CG          0.4170   -0.3490    1.0140 c3        1 2ML     -0.065700
      6 CD1        -0.2810   -1.4730    1.7440 c3        1 2ML     -0.082600
      7 CD2         1.1110    0.5450    2.0120 c3        1 2ML     -0.082600
      8 C          -1.1190    1.4140   -1.9770 c         1 2ML      0.891600
      9 O          -0.6070    2.2310   -2.7870 o         1 2ML     -0.841300
     10 OXT        -2.3600    1.4300   -1.7690 o         1 2ML     -0.841300
     11 H2          1.3670    1.3860   -0.7200 hn        1 2ML      0.330300
     12 H           1.6540    0.0560   -1.3520 hn        1 2ML      0.330300
     13 HB11       -0.5990    1.3780    0.5620 hc        1 2ML      0.046700
     14 HB12       -1.4860    0.0650    0.3620 hc        1 2ML      0.046700
     15 HB21       -0.3650   -0.9370   -2.7600 hc        1 2ML      0.021033
     16 HB22        0.2190   -1.5630   -1.4080 hc        1 2ML      0.021033
     17 HB23       -1.3480   -1.2710   -1.5420 hc        1 2ML      0.021033
     18 HG          1.0760   -0.7220    0.3980 hc        1 2ML      0.057700
     19 HD11       -0.7020   -2.0740    1.0940 hc        1 2ML      0.020200
     20 HD12       -0.9680   -1.1000    2.3370 hc        1 2ML      0.020200
     21 HD13        0.3740   -1.9730    2.2760 hc        1 2ML      0.020200
     22 HD21        1.5440    1.2870    1.5400 hc        1 2ML      0.020200
     23 HD22        0.4520    0.9010    2.6450 hc        1 2ML      0.020200
     24 HD23        1.7850    0.0290    2.4990 hc        1 2ML      0.020200
@<TRIPOS>BOND
     1    1    2 1   
     2    1   11 1   
     3    1   12 1   
     4    2    3 1   
     5    2    4 1   
     6    2    8 1   
     7    3    5 1   
     8    3   13 1   
     9    3   14 1   
    10    4   15 1   
    11    4   16 1   
    12    4   17 1   
    13    5    6 1   
    14    5    7 1   
    15    5   18 1   
    16    6   19 1   
    17    6   20 1   
    18    6   21 1   
    19    7   22 1   
    20    7   23 1   
    21    7   24 1   
    22    8    9 1   
    23    8   10 1   
@<TRIPOS>SUBSTRUCTURE
     1 2ML         1 TEMP              0 ****  ****    0 ROOT
