@<TRIPOS>MOLECULE
2MM
   26    25     1     0     0
SMALL
bcc


@<TRIPOS>ATOM
      1 CE         -0.0010    0.3810    1.1910 c3        1 2MM     -0.030000
      2 SD          1.6990    0.8100    1.0800 ss        1 2MM     -0.359200
      3 CG          2.5270   -0.7240    1.4490 c3        1 2MM     -0.010300
      4 CB          3.9350   -0.4380    1.8980 c3        1 2MM     -0.094400
      5 CA          4.0380    0.0710    3.3290 c3        1 2MM     -0.046500
      6 C           5.5010   -0.2060    3.9130 c         1 2MM      0.937600
      7 O           6.0290   -1.2610    3.5100 o         1 2MM     -0.772300
      8 N           3.5950    1.5060    3.4650 n4        1 2MM     -0.659400
      9 CN2         3.2910    1.8210    4.8820 c3        1 2MM      0.083600
     10 CN1         4.6040    2.4560    2.9380 c3        1 2MM      0.083600
     11 OXT         5.9470    0.6280    4.7390 o         1 2MM     -0.772300
     12 HE         -0.2700    0.0110    2.2050 h1        1 2MM      0.070367
     13 HEA        -0.2720   -0.3960    0.4430 h1        1 2MM      0.070367
     14 HEB        -0.5740    1.3120    0.9730 h1        1 2MM      0.070367
     15 HG          2.5450   -1.3530    0.5250 h1        1 2MM      0.073700
     16 HGA         1.9590   -1.2830    2.2320 h1        1 2MM      0.073700
     17 HB          4.5270   -1.4040    1.8770 hc        1 2MM      0.100200
     18 HBA         4.4390    0.2570    1.1770 hc        1 2MM      0.100200
     19 HA          3.3480   -0.5350    3.9850 hx        1 2MM      0.075700
     20 HN2         2.9920    2.8970    4.9660 hx        1 2MM      0.094867
     21 HN2A        2.4540    1.1650    5.2360 hx        1 2MM      0.094867
     22 HN2B        4.2160    1.6240    5.5020 hx        1 2MM      0.094867
     23 HN1         4.8210    2.2090    1.8670 hx        1 2MM      0.094867
     24 HN1A        4.1990    3.4980    3.0130 hx        1 2MM      0.094867
     25 HN1B        5.5530    2.3610    3.5420 hx        1 2MM      0.094867
     26 H           2.7250    1.6130    2.9000 hn        1 2MM      0.434800
@<TRIPOS>BOND
     1    1    2 1   
     2    1   12 1   
     3    1   13 1   
     4    1   14 1   
     5    2    3 1   
     6    3    4 1   
     7    3   15 1   
     8    3   16 1   
     9    4    5 1   
    10    4   17 1   
    11    4   18 1   
    12    5    6 1   
    13    5    8 1   
    14    5   19 1   
    15    6    7 1   
    16    6   11 1   
    17    8    9 1   
    18    8   10 1   
    19    8   26 1   
    20    9   20 1   
    21    9   21 1   
    22    9   22 1   
    23   10   23 1   
    24   10   24 1   
    25   10   25 1   
@<TRIPOS>SUBSTRUCTURE
     1 2MM         1 TEMP              0 ****  ****    0 ROOT
