@<TRIPOS>MOLECULE
2MM
   26    25     1     0     0
SMALL
bcc


@<TRIPOS>ATOM
      1 CE         -0.0110    0.3930    1.2080 c3        1 2MM     -0.030000
      2 SD          1.6990    0.7740    1.0770 ss        1 2MM     -0.359200
      3 CG          2.4890   -0.7630    1.5110 c3        1 2MM     -0.010300
      4 CB          3.9050   -0.4940    1.9450 c3        1 2MM     -0.094400
      5 CA          4.0240    0.0740    3.3520 c3        1 2MM     -0.046500
      6 C           5.4820   -0.2140    3.9450 c         1 2MM      0.937600
      7 O           5.9820   -1.2990    3.5880 o         1 2MM     -0.772300
      8 N           3.6180    1.5240    3.4280 n4        1 2MM     -0.659400
      9 CN2         3.3260    1.9070    4.8300 c3        1 2MM      0.083600
     10 CN1         4.6490    2.4250    2.8580 c3        1 2MM      0.083600
     11 OXT         5.9520    0.6430    4.7330 o         1 2MM     -0.772300
     12 HE         -0.3020   -0.4090    0.4940 h1        1 2MM      0.070367
     13 HEA        -0.5610    1.3270    0.9500 h1        1 2MM      0.070367
     14 HEB        -0.2870    0.0740    2.2370 h1        1 2MM      0.070367
     15 HG          1.9090   -1.2720    2.3180 h1        1 2MM      0.073700
     16 HGA         2.4890   -1.4320    0.6150 h1        1 2MM      0.073700
     17 HB          4.4730   -1.4740    1.9640 hc        1 2MM      0.100200
     18 HBA         4.4250    0.1570    1.1940 hc        1 2MM      0.100200
     19 HA          3.3220   -0.4860    4.0360 hx        1 2MM      0.075700
     20 HN2         3.0540    2.9930    4.8680 hx        1 2MM      0.094867
     21 HN2A        4.2470    1.7140    5.4560 hx        1 2MM      0.094867
     22 HN2B        2.4740    1.2880    5.2130 hx        1 2MM      0.094867
     23 HN1         4.2700    3.4790    2.8890 hx        1 2MM      0.094867
     24 HN1A        5.5970    2.3320    3.4630 hx        1 2MM      0.094867
     25 HN1B        4.8560    2.1270    1.7980 hx        1 2MM      0.094867
     26 H           2.7490    1.6280    2.8600 hn        1 2MM      0.434800
@<TRIPOS>BOND
     1    1    2 1   
     2    1   12 1   
     3    1   13 1   
     4    1   14 1   
     5    2    3 1   
     6    3    4 1   
     7    3   15 1   
     8    3   16 1   
     9    4    5 1   
    10    4   17 1   
    11    4   18 1   
    12    5    6 1   
    13    5    8 1   
    14    5   19 1   
    15    6    7 1   
    16    6   11 1   
    17    8    9 1   
    18    8   10 1   
    19    8   26 1   
    20    9   20 1   
    21    9   21 1   
    22    9   22 1   
    23   10   23 1   
    24   10   24 1   
    25   10   25 1   
@<TRIPOS>SUBSTRUCTURE
     1 2MM         1 TEMP              0 ****  ****    0 ROOT
