@<TRIPOS>MOLECULE
2MM
   25    24     1     0     0
SMALL
bcc


@<TRIPOS>ATOM
      1 CE         -3.8000   -0.1390   -2.4890 c3        1 2MM     -0.035000
      2 SD         -2.0270   -0.1390   -2.4890 ss        1 2MM     -0.402200
      3 CG         -1.4360   -0.1390   -0.8180 c3        1 2MM      0.013700
      4 CB          0.0680    0.0180   -0.8150 c3        1 2MM     -0.064400
      5 CA          0.5950   -0.1990    0.5860 c3        1 2MM      0.044500
      6 C           0.7140   -1.6820    0.8560 c         1 2MM      0.884600
      7 O           1.3900   -2.4110    0.0830 o         1 2MM     -0.840800
      8 N           1.8720    0.4090    0.7110 n3        1 2MM     -0.720600
      9 CN2         2.5990   -0.2230    1.7600 c3        1 2MM      0.150600
     10 CN1         1.7120    1.7920    1.0110 c3        1 2MM      0.150600
     11 OXT         0.1380   -2.1880    1.8550 o         1 2MM     -0.840800
     12 HE         -4.1260    0.6640   -2.0400 h1        1 2MM      0.073700
     13 HEA        -4.1260   -0.9300   -2.0190 h1        1 2MM      0.073700
     14 HEB        -4.1260   -0.1510   -3.4100 h1        1 2MM      0.073700
     15 HG         -1.8420    0.6030   -0.3290 h1        1 2MM      0.076700
     16 HGA        -1.6760   -0.9820   -0.3880 h1        1 2MM      0.076700
     17 HB          0.4650   -0.6400   -1.4170 hc        1 2MM      0.043200
     18 HBA         0.3020    0.9170   -1.1150 hc        1 2MM      0.043200
     19 HA         -0.0200    0.2010    1.2300 h1        1 2MM      0.045700
     20 HN2         3.3670    0.3280    2.0020 h1        1 2MM      0.025367
     21 HN2A        2.0190   -0.3330    2.5370 h1        1 2MM      0.025367
     22 HN2B        2.9080   -1.0990    1.4590 h1        1 2MM      0.025367
     23 HN1         1.4760    2.2760    0.1970 h1        1 2MM      0.025367
     24 HN1A        1.0030    1.9010    1.6720 h1        1 2MM      0.025367
     25 HN1B        2.5490    2.1460    1.3690 h1        1 2MM      0.025367
@<TRIPOS>BOND
     1    1    2 1   
     2    1   12 1   
     3    1   13 1   
     4    1   14 1   
     5    2    3 1   
     6    3    4 1   
     7    3   15 1   
     8    3   16 1   
     9    4    5 1   
    10    4   17 1   
    11    4   18 1   
    12    5    6 1   
    13    5    8 1   
    14    5   19 1   
    15    6    7 1   
    16    6   11 1   
    17    8    9 1   
    18    8   10 1   
    19    9   20 1   
    20    9   21 1   
    21    9   22 1   
    22   10   23 1   
    23   10   24 1   
    24   10   25 1   
@<TRIPOS>SUBSTRUCTURE
     1 2MM         1 TEMP              0 ****  ****    0 ROOT
