@<TRIPOS>MOLECULE
2MM
   26    25     1     0     0
SMALL
bcc


@<TRIPOS>ATOM
      1 CE         -0.1010    0.4140    1.4010 c3        1 2MM     -0.030000
      2 SD          1.5990    0.7950    1.1730 ss        1 2MM     -0.359200
      3 CG          2.4110   -0.7480    1.5410 c3        1 2MM     -0.010300
      4 CB          3.8500   -0.4850    1.8940 c3        1 2MM     -0.094400
      5 CA          4.0550    0.0670    3.2970 c3        1 2MM     -0.046500
      6 C           5.5450   -0.2290    3.7980 c         1 2MM      0.937600
      7 O           6.0210   -1.3100    3.4000 o         1 2MM     -0.772300
      8 N           3.6560    1.5160    3.4130 nx        1 2MM     -0.659400
      9 CN2         3.4490    1.8840    4.8350 c3        1 2MM      0.083600
     10 CN1         4.6520    2.4230    2.7920 c3        1 2MM      0.083600
     11 OXT         6.0620    0.6190    4.5670 o         1 2MM     -0.772300
     12 HE         -0.4360   -0.3790    0.6960 h1        1 2MM      0.070367
     13 HEA        -0.3150    0.0830    2.4410 h1        1 2MM      0.070367
     14 HEB        -0.6640    1.3520    1.1880 h1        1 2MM      0.070367
     15 HG          2.3570   -1.4070    0.6400 h1        1 2MM      0.073700
     16 HGA         1.8790   -1.2660    2.3760 h1        1 2MM      0.073700
     17 HB          4.4170   -1.4650    1.8680 hc        1 2MM      0.100200
     18 HBA         4.3260    0.1740    1.1200 hc        1 2MM      0.100200
     19 HA          3.3940   -0.5000    4.0150 hx        1 2MM      0.075700
     20 HN2         2.6210    1.2620    5.2610 hx        1 2MM      0.094867
     21 HN2A        3.1810    2.9700    4.9010 hx        1 2MM      0.094867
     22 HN2B        4.4060    1.6830    5.4020 hx        1 2MM      0.094867
     23 HN1         4.7950    2.1370    1.7180 hx        1 2MM      0.094867
     24 HN1A        4.2780    3.4770    2.8580 hx        1 2MM      0.094867
     25 HN1B        5.6350    2.3220    3.3390 hx        1 2MM      0.094867
     26 H           2.7550    1.6280    2.9000 hn        1 2MM      0.434800
@<TRIPOS>BOND
     1    1    2 1   
     2    1   12 1   
     3    1   13 1   
     4    1   14 1   
     5    2    3 1   
     6    3    4 1   
     7    3   15 1   
     8    3   16 1   
     9    4    5 1   
    10    4   17 1   
    11    4   18 1   
    12    5    6 1   
    13    5    8 1   
    14    5   19 1   
    15    6    7 1   
    16    6   11 1   
    17    8    9 1   
    18    8   10 1   
    19    8   26 1   
    20    9   20 1   
    21    9   21 1   
    22    9   22 1   
    23   10   23 1   
    24   10   24 1   
    25   10   25 1   
@<TRIPOS>SUBSTRUCTURE
     1 2MM         1 TEMP              0 ****  ****    0 ROOT
