@<TRIPOS>MOLECULE
2MM
   25    24     1     0     0
SMALL
bcc


@<TRIPOS>ATOM
      1 CE          4.3130    0.3080   -0.5170 c3        1 2MM     -0.036000
      2 SD          3.0570   -0.6950    0.1810 ss        1 2MM     -0.340200
      3 CG          1.5840    0.1030   -0.4240 c3        1 2MM      0.020700
      4 CB          0.3890   -0.5940    0.1700 c3        1 2MM     -0.058400
      5 CA         -0.9290   -0.0870   -0.4280 c3        1 2MM      0.045500
      6 C          -2.0610   -1.0360    0.0960 c         1 2MM      0.896600
      7 O          -2.9110   -0.6010    0.9220 o         1 2MM     -0.839300
      8 N          -1.1400    1.3570   -0.2580 n3        1 2MM     -0.725600
      9 CN2        -2.3570    1.7840   -0.9240 c3        1 2MM      0.151100
     10 CN1        -1.1170    1.7810    1.1290 c3        1 2MM      0.151100
     11 OXT        -2.0530   -2.2120   -0.3640 o         1 2MM     -0.839300
     12 HE          4.2800    0.2960   -1.6290 h1        1 2MM      0.048367
     13 HEA         4.2340    1.3640   -0.1770 h1        1 2MM      0.048367
     14 HEB         5.2870   -0.1120   -0.1780 h1        1 2MM      0.048367
     15 HG          1.6010    1.1810   -0.1370 h1        1 2MM      0.055700
     16 HGA         1.5580    0.0420   -1.5390 h1        1 2MM      0.055700
     17 HB          0.4330   -1.6960   -0.0480 hc        1 2MM      0.062700
     18 HBA         0.3800   -0.4690    1.2830 hc        1 2MM      0.062700
     19 HA         -0.8760   -0.2520   -1.5460 h1        1 2MM      0.041700
     20 HN2        -3.2810    1.3090   -0.4950 h1        1 2MM      0.025033
     21 HN2A       -2.4440    2.8990   -0.8390 h1        1 2MM      0.025033
     22 HN2B       -2.2870    1.5150   -2.0100 h1        1 2MM      0.025033
     23 HN1        -0.0750    1.6470    1.5220 h1        1 2MM      0.025033
     24 HN1A       -1.3750    2.8720    1.1870 h1        1 2MM      0.025033
     25 HN1B       -1.8310    1.2030    1.7770 h1        1 2MM      0.025033
@<TRIPOS>BOND
     1    1    2 1   
     2    1   12 1   
     3    1   13 1   
     4    1   14 1   
     5    2    3 1   
     6    3    4 1   
     7    3   15 1   
     8    3   16 1   
     9    4    5 1   
    10    4   17 1   
    11    4   18 1   
    12    5    6 1   
    13    5    8 1   
    14    5   19 1   
    15    6    7 1   
    16    6   11 1   
    17    8    9 1   
    18    8   10 1   
    19    9   20 1   
    20    9   21 1   
    21    9   22 1   
    22   10   23 1   
    23   10   24 1   
    24   10   25 1   
@<TRIPOS>SUBSTRUCTURE
     1 2MM         1 TEMP              0 ****  ****    0 ROOT
