@<TRIPOS>MOLECULE
2MN
   21    21     1     0     0
SMALL
bcc


@<TRIPOS>ATOM
      1 OHD         0.0380   -0.0600   -0.2260 oh        1 2MN     -0.587800
      2 CB6         1.4460    0.0290   -0.2070 c3        1 2MN      0.116400
      3 CB5         1.9340   -0.1280    1.2470 c3        1 2MN     -0.014700
      4 NC1         3.3580   -0.0590    1.4020 na        1 2MN     -0.156900
      5 CC3         4.2500   -1.1320    1.5300 cc        1 2MN      0.461800
      6 CA5         3.8150   -2.5520    1.5600 c3        1 2MN     -0.138400
      7 NC4         5.5460   -0.6930    1.6390 nd        1 2MN     -0.673000
      8 CC5         5.5030    0.6790    1.5710 cd        1 2MN      0.427200
      9 CC2         4.1540    1.1080    1.4160 cc        1 2MN     -0.363800
     10 NO          3.6740    2.4770    1.3020 no        1 2MN      0.361200
     11 OB          4.4790    3.3650    1.3770 o         1 2MN     -0.213500
     12 OA          2.4990    2.6900    1.1330 o         1 2MN     -0.213500
     13 HHD        -0.3090    0.7640    0.1380 ho        1 2MN      0.410000
     14 HB6         1.8010   -0.8210   -0.8480 h1        1 2MN      0.064200
     15 H6          1.7960    1.0060   -0.6340 h1        1 2MN      0.064200
     16 HB5         1.5830   -1.1250    1.6410 h1        1 2MN      0.083700
     17 H5          1.4640    0.6880    1.8710 h1        1 2MN      0.083700
     18 HA51        3.1970   -2.7880    0.6580 hc        1 2MN      0.071033
     19 HA52        4.7080   -3.2260    1.5740 hc        1 2MN      0.071033
     20 HA53        3.2050   -2.7450    2.4790 hc        1 2MN      0.071033
     21 HC5         6.3940    1.3110    1.6310 h4        1 2MN      0.072100
@<TRIPOS>BOND
     1    1    2 1   
     2    1   13 1   
     3    2    3 1   
     4    2   14 1   
     5    2   15 1   
     6    3    4 1   
     7    3   16 1   
     8    3   17 1   
     9    4    5 1   
    10    4    9 1   
    11    5    6 1   
    12    5    7 2   
    13    6   18 1   
    14    6   19 1   
    15    6   20 1   
    16    7    8 1   
    17    8    9 2   
    18    8   21 1   
    19    9   10 1   
    20   10   11 1   
    21   10   12 1   
@<TRIPOS>SUBSTRUCTURE
     1 2MN         1 TEMP              0 ****  ****    0 ROOT
