@<TRIPOS>MOLECULE
2MN
   21    18     1     0     0
SMALL
bcc


@<TRIPOS>ATOM
      1 OHD        -1.8780    2.3810    0.8480 oh        1 2MN     -0.315000
      2 CB6        -1.2390    1.1210    1.0610 c3        1 2MN     -0.034000
      3 CB5        -1.0580    0.3790   -0.3260 c3        1 2MN     -0.074000
      4 NC1         0.1460   -0.3590   -0.3100 n3        1 2MN     -0.112000
      5 CC3         1.3900    0.0970   -0.7030 c1        1 2MN      0.016000
      6 CA5         1.6780    1.4200   -1.4100 c2        1 2MN     -0.162000
      7 NC4         2.2780   -0.9160   -0.5310 n2        1 2MN     -0.147000
      8 CC5         1.6170   -1.9660   -0.0500 c1        1 2MN     -0.038000
      9 CC2         0.2780   -1.6100    0.0870 c1        1 2MN     -0.229000
     10 NO         -0.7690   -2.4340    0.7150 n2        1 2MN      0.507400
     11 OB         -1.7610   -1.8820    1.2730 o         1 2MN     -0.309200
     12 OA         -0.7140   -3.8110    0.6100 o         1 2MN     -0.309200
     13 HHD        -2.2190    2.6780    1.6180 ho        1 2MN      0.209000
     14 HB6        -1.8120    0.5520    1.6810 h1        1 2MN      0.103500
     15 H6         -0.3580    1.2650    1.4680 h1        1 2MN      0.103500
     16 HB5        -1.8020   -0.2230   -0.4690 h1        1 2MN      0.123000
     17 H5         -1.0270    1.0660   -1.0820 h1        1 2MN      0.123000
     18 HA51        1.2930    2.1290   -0.9220 ha        1 2MN      0.110333
     19 HA52        1.3180    1.4000   -2.2620 ha        1 2MN      0.110333
     20 HA53        2.6330    1.5510   -1.4690 ha        1 2MN      0.110333
     21 HC5         2.0050   -2.8390    0.1720 DU        1 2MN      0.209000
@<TRIPOS>BOND
     1    1    2 1   
     2    1   13 1   
     3    2    3 1   
     4    2   14 1   
     5    2   15 1   
     6    3    4 1   
     7    3   16 1   
     8    3   17 1   
     9    4    5 1   
    10    4    9 1   
    11    5    7 1   
    12    6   18 1   
    13    6   19 1   
    14    6   20 1   
    15    7    8 1   
    16    8    9 1   
    17   10   11 2   
    18   10   12 2   
@<TRIPOS>SUBSTRUCTURE
     1 2MN         1 TEMP              0 ****  ****    0 ROOT
