@<TRIPOS>MOLECULE
2MN
   21    21     1     0     0
SMALL
bcc


@<TRIPOS>ATOM
      1 OHD         0.0290   -0.0540   -0.2020 oh        1 2MN     -0.587800
      2 CB6         1.4370    0.0170   -0.1970 c3        1 2MN      0.116400
      3 CB5         1.9350   -0.1070    1.2570 c3        1 2MN     -0.014700
      4 NC1         3.3610   -0.0540    1.4000 na        1 2MN     -0.156900
      5 CC3         4.2390   -1.1340    1.5510 cc        1 2MN      0.461800
      6 CA5         3.7850   -2.5470    1.6240 c3        1 2MN     -0.138400
      7 NC4         5.5410   -0.7110    1.6370 nd        1 2MN     -0.673000
      8 CC5         5.5180    0.6590    1.5310 cd        1 2MN      0.427200
      9 CC2         4.1730    1.1020    1.3750 cc        1 2MN     -0.363800
     10 NO          3.7100    2.4740    1.2260 no        1 2MN      0.361200
     11 OB          4.5290    3.3530    1.2700 o         1 2MN     -0.213500
     12 OA          2.5370    2.6990    1.0610 o         1 2MN     -0.213500
     13 HHD        -0.3040    0.7850    0.1410 ho        1 2MN      0.410000
     14 HB6         1.7970    0.9760   -0.6540 h1        1 2MN      0.064200
     15 H6          1.7750   -0.8560   -0.8160 h1        1 2MN      0.064200
     16 HB5         1.5740   -1.0870    1.6820 h1        1 2MN      0.083700
     17 H5          1.4810    0.7330    1.8620 h1        1 2MN      0.083700
     18 HA51        3.1800   -2.7050    2.5530 hc        1 2MN      0.071033
     19 HA52        3.1560   -2.8000    0.7340 hc        1 2MN      0.071033
     20 HA53        4.6680   -3.2330    1.6500 hc        1 2MN      0.071033
     21 HC5         6.4170    1.2800    1.5670 h4        1 2MN      0.072100
@<TRIPOS>BOND
     1    1    2 1   
     2    1   13 1   
     3    2    3 1   
     4    2   14 1   
     5    2   15 1   
     6    3    4 1   
     7    3   16 1   
     8    3   17 1   
     9    4    5 1   
    10    4    9 1   
    11    5    6 1   
    12    5    7 2   
    13    6   18 1   
    14    6   19 1   
    15    6   20 1   
    16    7    8 1   
    17    8    9 2   
    18    8   21 1   
    19    9   10 1   
    20   10   11 1   
    21   10   12 1   
@<TRIPOS>SUBSTRUCTURE
     1 2MN         1 TEMP              0 ****  ****    0 ROOT
