@<TRIPOS>MOLECULE
2MN
   21    21     1     0     0
SMALL
bcc


@<TRIPOS>ATOM
      1 OHD         2.9210   -2.1060   -0.3820 oh        1 2MN     -0.587800
      2 CB6         1.9210   -1.1920   -0.7740 c3        1 2MN      0.116400
      3 CB5         1.3900   -0.4680    0.4800 c3        1 2MN     -0.014700
      4 NC1         0.3640    0.4980    0.2140 na        1 2MN     -0.156900
      5 CC3         0.5140    1.8860    0.1060 cc        1 2MN      0.461800
      6 CA5         1.8130    2.5820    0.2990 c3        1 2MN     -0.138400
      7 NC4        -0.6820    2.4970   -0.1770 nd        1 2MN     -0.673000
      8 CC5        -1.6220    1.4990   -0.2660 cd        1 2MN      0.427200
      9 CC2        -1.0030    0.2370   -0.0350 cc        1 2MN     -0.363800
     10 NO         -1.6400   -1.0710   -0.0400 no        1 2MN      0.361200
     11 OB         -2.8270   -1.1190   -0.2260 o         1 2MN     -0.213500
     12 OA         -0.9780   -2.0640    0.1340 o         1 2MN     -0.213500
     13 HHD         2.4790   -2.8520    0.0450 ho        1 2MN      0.410000
     14 HB6         2.4360   -0.4760   -1.4670 h1        1 2MN      0.064200
     15 H6          1.0830   -1.7120   -1.3100 h1        1 2MN      0.064200
     16 HB5         0.9780   -1.2430    1.1910 h1        1 2MN      0.083700
     17 H5          2.2490    0.0590    0.9850 h1        1 2MN      0.083700
     18 HA51        2.1520    2.4690    1.3600 hc        1 2MN      0.071033
     19 HA52        2.5890    2.1470   -0.3790 hc        1 2MN      0.071033
     20 HA53        1.7020    3.6710    0.0710 hc        1 2MN      0.071033
     21 HC5        -2.6780    1.6850   -0.4820 h4        1 2MN      0.072100
@<TRIPOS>BOND
     1    1    2 1   
     2    1   13 1   
     3    2    3 1   
     4    2   14 1   
     5    2   15 1   
     6    3    4 1   
     7    3   16 1   
     8    3   17 1   
     9    4    5 1   
    10    4    9 1   
    11    5    6 1   
    12    5    7 2   
    13    6   18 1   
    14    6   19 1   
    15    6   20 1   
    16    7    8 1   
    17    8    9 2   
    18    8   21 1   
    19    9   10 1   
    20   10   11 1   
    21   10   12 1   
@<TRIPOS>SUBSTRUCTURE
     1 2MN         1 TEMP              0 ****  ****    0 ROOT
