@<TRIPOS>MOLECULE
2MN
   21    21     1     0     0
SMALL
bcc


@<TRIPOS>ATOM
      1 OHD         0.0320   -0.0710   -0.2110 oh        1 2MN     -0.587800
      2 CB6         1.4400    0.0130   -0.2010 c3        1 2MN      0.116400
      3 CB5         1.9350   -0.1200    1.2540 c3        1 2MN     -0.014700
      4 NC1         3.3600   -0.0540    1.4010 na        1 2MN     -0.156900
      5 CC3         4.2480   -1.1280    1.5430 cc        1 2MN      0.461800
      6 CA5         3.8080   -2.5460    1.6010 c3        1 2MN     -0.138400
      7 NC4         5.5460   -0.6920    1.6380 nd        1 2MN     -0.673000
      8 CC5         5.5090    0.6780    1.5460 cd        1 2MN      0.427200
      9 CC2         4.1600    1.1100    1.3900 cc        1 2MN     -0.363800
     10 NO          3.6840    2.4790    1.2540 no        1 2MN      0.361200
     11 OB          4.4940    3.3650    1.3090 o         1 2MN     -0.213500
     12 OA          2.5100    2.6930    1.0870 o         1 2MN     -0.213500
     13 HHD        -0.3100    0.7610    0.1400 ho        1 2MN      0.410000
     14 HB6         1.7880   -0.8500   -0.8280 h1        1 2MN      0.064200
     15 H6          1.7920    0.9810   -0.6470 h1        1 2MN      0.064200
     16 HB5         1.5820   -1.1090    1.6670 h1        1 2MN      0.083700
     17 H5          1.4710    0.7090    1.8650 h1        1 2MN      0.083700
     18 HA51        3.1850   -2.7950    0.7060 hc        1 2MN      0.071033
     19 HA52        4.6980   -3.2230    1.6220 hc        1 2MN      0.071033
     20 HA53        3.2010   -2.7200    2.5260 hc        1 2MN      0.071033
     21 HC5         6.4020    1.3080    1.5910 h4        1 2MN      0.072100
@<TRIPOS>BOND
     1    1    2 1   
     2    1   13 1   
     3    2    3 1   
     4    2   14 1   
     5    2   15 1   
     6    3    4 1   
     7    3   16 1   
     8    3   17 1   
     9    4    5 1   
    10    4    9 1   
    11    5    6 1   
    12    5    7 2   
    13    6   18 1   
    14    6   19 1   
    15    6   20 1   
    16    7    8 1   
    17    8    9 2   
    18    8   21 1   
    19    9   10 1   
    20   10   11 1   
    21   10   12 1   
@<TRIPOS>SUBSTRUCTURE
     1 2MN         1 TEMP              0 ****  ****    0 ROOT
