@<TRIPOS>MOLECULE
2MP
   19    19     1     0     0
SMALL
bcc


@<TRIPOS>ATOM
      1 O1         -0.0030   -0.1890    0.1930 oh        1 2MP     -0.499100
      2 C1          1.3680   -0.1260    0.0890 ca        1 2MP      0.122100
      3 C2          2.0860   -0.0600    1.2940 ca        1 2MP     -0.158000
      4 C3          3.4730    0.0040    1.2440 ca        1 2MP     -0.094000
      5 C4          4.1560    0.0040    0.0220 ca        1 2MP     -0.113300
      6 C5          3.4280   -0.0620   -1.1790 ca        1 2MP     -0.039300
      7 C6          2.0320   -0.1270   -1.1430 ca        1 2MP     -0.210000
      8 C7          5.6350    0.0740   -0.0040 c3        1 2MP     -0.046800
      9 C8          4.1340   -0.0630   -2.4810 c3        1 2MP     -0.054800
     10 HO1        -0.3680   -0.2290   -0.7030 ho        1 2MP      0.417000
     11 H2          1.5460   -0.0610    2.2510 ha        1 2MP      0.149000
     12 H3          4.0440    0.0560    2.1840 ha        1 2MP      0.133000
     13 H6          1.4580   -0.1790   -2.0790 ha        1 2MP      0.132000
     14 H71         6.0590    0.1210    1.0290 hc        1 2MP      0.042033
     15 H72         6.0570   -0.8270   -0.5180 hc        1 2MP      0.042033
     16 H73         5.9710    0.9820   -0.5660 hc        1 2MP      0.042033
     17 H81         3.4170   -0.1190   -3.3360 hc        1 2MP      0.045367
     18 H82         4.8290   -0.9390   -2.5420 hc        1 2MP      0.045367
     19 H83         4.7430    0.8700   -2.5900 hc        1 2MP      0.045367
@<TRIPOS>BOND
     1    1    2 1   
     2    1   10 1   
     3    2    3 ar  
     4    2    7 ar  
     5    3    4 ar  
     6    3   11 1   
     7    4    5 ar  
     8    4   12 1   
     9    5    6 ar  
    10    5    8 1   
    11    6    7 ar  
    12    6    9 1   
    13    7   13 1   
    14    8   14 1   
    15    8   15 1   
    16    8   16 1   
    17    9   17 1   
    18    9   18 1   
    19    9   19 1   
@<TRIPOS>SUBSTRUCTURE
     1 2MP         1 TEMP              0 ****  ****    0 ROOT
