@<TRIPOS>MOLECULE
2MP
   19    17     1     0     0
SMALL
bcc


@<TRIPOS>ATOM
      1 O1         -3.4140    0.0440    0.4670 oh        1 2MP     -0.253000
      2 C1         -2.0070    0.0440    0.4670 c2        1 2MP      0.077000
      3 C2         -1.3140    0.0440    1.6680 c2        1 2MP     -0.158000
      4 C3          0.0720    0.0440    1.6680 c1        1 2MP     -0.094000
      5 C4          0.7650    0.0440    0.4680 c1        1 2MP     -0.069000
      6 C5          0.0730    0.0440   -0.7330 c1        1 2MP     -0.069000
      7 C6         -1.3140    0.0440   -0.7330 c1        1 2MP     -0.210000
      8 C7          2.2780    0.0810    0.4680 c3        1 2MP     -0.176000
      9 C8          0.8290    0.0060   -2.0430 c3        1 2MP     -0.176000
     10 HO1        -3.7100   -0.7920    0.4260 ho        1 2MP      0.216000
     11 H2         -1.8020    0.0440    2.5130 ha        1 2MP      0.149000
     12 H3          0.5600    0.0440    2.5130 ha        1 2MP      0.133000
     13 H6         -1.8020    0.0440   -1.5790 ha        1 2MP      0.132000
     14 H71         2.6230   -0.7160    0.0220 hc        1 2MP      0.083000
     15 H72         2.5840    0.8770   -0.0060 hc        1 2MP      0.083000
     16 H73         2.6030    0.1050    1.3880 hc        1 2MP      0.083000
     17 H81         1.3880    0.8030   -2.1180 hc        1 2MP      0.083000
     18 H82         0.1950   -0.0170   -2.7840 hc        1 2MP      0.083000
     19 H83         1.3920   -0.7910   -2.0700 hc        1 2MP      0.083000
@<TRIPOS>BOND
     1    1    2 1   
     2    1   10 1   
     3    2    3 1   
     4    2    7 1   
     5    3    4 1   
     6    3   11 1   
     7    4   12 1   
     8    5    6 1   
     9    5    8 1   
    10    6    9 1   
    11    7   13 1   
    12    8   14 1   
    13    8   15 1   
    14    8   16 1   
    15    9   17 1   
    16    9   18 1   
    17    9   19 1   
@<TRIPOS>SUBSTRUCTURE
     1 2MP         1 TEMP              0 ****  ****    0 ROOT
