@<TRIPOS>MOLECULE
2MP
   19    19     1     0     0
SMALL
bcc


@<TRIPOS>ATOM
      1 O1         -0.5730   -0.0910   -2.8670 oh        1 2MP     -0.499100
      2 C1         -0.1510   -0.0900   -1.5560 ca        1 2MP      0.122100
      3 C2          1.1990   -0.1870   -1.1950 ca        1 2MP     -0.215000
      4 C3          1.5390   -0.1790    0.1550 ca        1 2MP     -0.089000
      5 C4          0.5570   -0.0760    1.1440 ca        1 2MP     -0.113300
      6 C5         -0.7980    0.0210    0.7710 ca        1 2MP     -0.043300
      7 C6         -1.1530    0.0140   -0.5790 ca        1 2MP     -0.155000
      8 C7          0.9380   -0.0700    2.5750 c3        1 2MP     -0.046800
      9 C8         -1.8500    0.1310    1.8090 c3        1 2MP     -0.054800
     10 HO1         0.2110   -0.1670   -3.4300 ho        1 2MP      0.418000
     11 H2          1.9770   -0.2680   -1.9660 ha        1 2MP      0.132000
     12 H3          2.5980   -0.2550    0.4450 ha        1 2MP      0.132000
     13 H6         -2.2040    0.0890   -0.8890 ha        1 2MP      0.149000
     14 H71         0.5970    0.8780    3.0630 hc        1 2MP      0.041700
     15 H72         0.4550   -0.9260    3.1100 hc        1 2MP      0.041700
     16 H73         2.0450   -0.1530    2.7020 hc        1 2MP      0.041700
     17 H81        -1.8210   -0.7630    2.4820 hc        1 2MP      0.045700
     18 H82        -1.6790    1.0420    2.4360 hc        1 2MP      0.045700
     19 H83        -2.8680    0.1990    1.3530 hc        1 2MP      0.045700
@<TRIPOS>BOND
     1    1    2 1   
     2    1   10 1   
     3    2    3 ar  
     4    2    7 ar  
     5    3    4 ar  
     6    3   11 1   
     7    4    5 ar  
     8    4   12 1   
     9    5    6 ar  
    10    5    8 1   
    11    6    7 ar  
    12    6    9 1   
    13    7   13 1   
    14    8   14 1   
    15    8   15 1   
    16    8   16 1   
    17    9   17 1   
    18    9   18 1   
    19    9   19 1   
@<TRIPOS>SUBSTRUCTURE
     1 2MP         1 TEMP              0 ****  ****    0 ROOT
