@<TRIPOS>MOLECULE
2MP
   19    19     1     0     0
SMALL
bcc


@<TRIPOS>ATOM
      1 O1         -0.0110   -0.1430    0.1600 oh        1 2MP     -0.499100
      2 C1          1.3620   -0.0960    0.0690 ca        1 2MP      0.122100
      3 C2          2.0670   -0.0130    1.2800 ca        1 2MP     -0.158000
      4 C3          3.4560    0.0380    1.2440 ca        1 2MP     -0.094000
      5 C4          4.1520    0.0070    0.0290 ca        1 2MP     -0.113300
      6 C5          3.4350   -0.0770   -1.1780 ca        1 2MP     -0.039300
      7 C6          2.0390   -0.1280   -1.1560 ca        1 2MP     -0.210000
      8 C7          5.6310    0.0620    0.0180 c3        1 2MP     -0.046800
      9 C8          4.1550   -0.1110   -2.4720 c3        1 2MP     -0.054800
     10 HO1        -0.3660   -0.1990   -0.7390 ho        1 2MP      0.417000
     11 H2          1.5180    0.0110    2.2310 ha        1 2MP      0.149000
     12 H3          4.0170    0.1030    2.1890 ha        1 2MP      0.133000
     13 H6          1.4740   -0.1940   -2.0970 ha        1 2MP      0.132000
     14 H71         6.0450    0.1180    1.0540 hc        1 2MP      0.042033
     15 H72         6.0500   -0.8480   -0.4810 hc        1 2MP      0.042033
     16 H73         5.9820    0.9600   -0.5520 hc        1 2MP      0.042033
     17 H81         3.4470   -0.1700   -3.3340 hc        1 2MP      0.045367
     18 H82         4.8360   -0.9990   -2.5110 hc        1 2MP      0.045367
     19 H83         4.7810    0.8090   -2.5900 hc        1 2MP      0.045367
@<TRIPOS>BOND
     1    1    2 1   
     2    1   10 1   
     3    2    3 ar  
     4    2    7 ar  
     5    3    4 ar  
     6    3   11 1   
     7    4    5 ar  
     8    4   12 1   
     9    5    6 ar  
    10    5    8 1   
    11    6    7 ar  
    12    6    9 1   
    13    7   13 1   
    14    8   14 1   
    15    8   15 1   
    16    8   16 1   
    17    9   17 1   
    18    9   18 1   
    19    9   19 1   
@<TRIPOS>SUBSTRUCTURE
     1 2MP         1 TEMP              0 ****  ****    0 ROOT
