@<TRIPOS>MOLECULE
2MQ
   35    37     1     0     0
SMALL
bcc


@<TRIPOS>ATOM
      1 C2          2.5580   -1.8940   -0.1070 c         1 2MQ      0.720100
      2 O19         2.7410   -3.1100   -0.2950 o         1 2MQ     -0.623500
      3 N3          3.6890   -1.0810    0.0720 n         1 2MQ     -0.508400
      4 C4          3.5450    0.3130    0.2520 cc        1 2MQ      0.661800
      5 N20         4.7380    1.0830    0.2830 nh        1 2MQ     -0.883800
      6 N5          2.3610    0.9300    0.3370 nd        1 2MQ     -0.686100
      7 C6          1.1940    0.1810    0.1760 ca        1 2MQ      0.219400
      8 C10        -0.0600    0.8400    0.2410 ca        1 2MQ     -0.090300
      9 C16        -0.2000    2.3000    0.4870 c3        1 2MQ     -0.027100
     10 C17        -0.3490    3.0520   -0.8410 c3        1 2MQ      0.155800
     11 N18        -0.6960    4.4440   -0.6660 n3        1 2MQ     -0.919800
     12 C9         -1.1980    0.0490    0.0600 ca        1 2MQ     -0.029200
     13 N11        -2.5560    0.3830    0.0900 na        1 2MQ     -0.293300
     14 C12        -3.2700   -0.8290   -0.1910 cc        1 2MQ      0.589700
     15 N14        -4.6710   -0.8370   -0.3840 nh        1 2MQ     -0.764200
     16 C15        -5.4580   -0.0550    0.5330 c3        1 2MQ      0.159100
     17 N13        -2.4420   -1.9060   -0.3080 nd        1 2MQ     -0.598100
     18 C8         -1.1380   -1.3870   -0.1700 ca        1 2MQ      0.060400
     19 C7          0.1010   -2.0170   -0.2160 ca        1 2MQ     -0.003000
     20 C1          1.2430   -1.2320   -0.0450 ca        1 2MQ     -0.215600
     21 HN3         4.5890   -1.4920   -0.0380 hn        1 2MQ      0.335500
     22 HN20        5.4770    0.6730    0.8130 hn        1 2MQ      0.410800
     23 HN2A        4.5880    2.0460    0.5020 hn        1 2MQ      0.410800
     24 H16        -1.0990    2.4870    1.1350 hc        1 2MQ      0.058700
     25 H16A        0.6850    2.7000    1.0470 hc        1 2MQ      0.058700
     26 H17         0.6070    2.9100   -1.4260 h1        1 2MQ      0.031200
     27 H17A       -1.1770    2.5760   -1.4400 h1        1 2MQ      0.031200
     28 HN18       -0.0780    4.8880   -0.0170 hn        1 2MQ      0.348300
     29 HN1A       -0.6470    4.9230   -1.5430 hn        1 2MQ      0.348300
     30 HN11       -2.9160    1.2970   -0.0070 hn        1 2MQ      0.311700
     31 HN14       -5.0130   -1.7770   -0.4860 hn        1 2MQ      0.418800
     32 H15        -5.2380    1.0350    0.3840 h1        1 2MQ      0.045033
     33 H15A       -6.5410   -0.2330    0.2960 h1        1 2MQ      0.045033
     34 H15B       -5.2780   -0.3110    1.6120 h1        1 2MQ      0.045033
     35 H7          0.1930   -3.1020   -0.3830 ha        1 2MQ      0.174000
@<TRIPOS>BOND
     1    1    2 2   
     2    1    3 1   
     3    1   20 1   
     4    3    4 1   
     5    3   21 1   
     6    4    5 1   
     7    4    6 2   
     8    5   22 1   
     9    5   23 1   
    10    6    7 1   
    11    7    8 ar  
    12    7   20 ar  
    13    8    9 1   
    14    8   12 ar  
    15    9   10 1   
    16    9   24 1   
    17    9   25 1   
    18   10   11 1   
    19   10   26 1   
    20   10   27 1   
    21   11   28 1   
    22   11   29 1   
    23   12   13 1   
    24   12   18 ar  
    25   13   14 1   
    26   13   30 1   
    27   14   15 1   
    28   14   17 2   
    29   15   16 1   
    30   15   31 1   
    31   16   32 1   
    32   16   33 1   
    33   16   34 1   
    34   17   18 1   
    35   18   19 ar  
    36   19   20 ar  
    37   19   35 1   
@<TRIPOS>SUBSTRUCTURE
     1 2MQ         1 TEMP              0 ****  ****    0 ROOT
