@<TRIPOS>MOLECULE
2MQ
   37    39     1     0     0
SMALL
bcc


@<TRIPOS>ATOM
      1 C2         -0.0910    0.1240   -0.0730 c         1 2MQ      0.719100
      2 O19        -0.7030    0.2230   -1.1360 o         1 2MQ     -0.507500
      3 N3          1.3240   -0.0180   -0.1520 n         1 2MQ     -0.504400
      4 C4          2.0510   -0.1080    1.0340 cc        1 2MQ      0.528800
      5 N20         3.5380   -0.2890    0.8970 n4        1 2MQ     -0.802600
      6 N5          1.5720   -0.0510    2.2660 nd        1 2MQ     -0.589100
      7 C6          0.1830    0.0530    2.4260 ca        1 2MQ      0.125400
      8 C10        -0.3800    0.0520    3.7330 ca        1 2MQ     -0.052300
      9 C16         0.4420    0.0490    4.9750 c3        1 2MQ     -0.040100
     10 C17         0.4850    1.4730    5.5370 c3        1 2MQ      0.094800
     11 N18         1.1250    1.5560    6.8830 n4        1 2MQ     -0.838600
     12 C9         -1.7700    0.0580    3.8250 ca        1 2MQ     -0.105200
     13 N11        -2.6180    0.0720    4.9600 na        1 2MQ     -0.294300
     14 C12        -3.9700    0.0810    4.4040 cc        1 2MQ      0.682700
     15 N14        -5.0870    0.0300    5.1900 nh        1 2MQ     -0.796200
     16 C15        -5.0360   -0.0730    6.6150 c3        1 2MQ      0.190100
     17 N13        -3.9770    0.1860    3.0270 nd        1 2MQ     -0.601100
     18 C8         -2.6370    0.1600    2.6540 ca        1 2MQ      0.172400
     19 C7         -2.0620    0.2060    1.3800 ca        1 2MQ     -0.024000
     20 C1         -0.6750    0.1320    1.2850 ca        1 2MQ     -0.138600
     21 HN3         1.7460   -0.0640   -1.0560 hn        1 2MQ      0.361500
     22 HN20        3.9360    0.5050    0.3790 hn        1 2MQ      0.483467
     23 HN2A        3.9760   -0.3410    1.8260 hn        1 2MQ      0.483467
     24 H16        -0.0180   -0.6530    5.7250 hc        1 2MQ      0.076700
     25 H16A        1.4840   -0.3210    4.7820 hc        1 2MQ      0.076700
     26 H17         1.0680    2.1420    4.8380 hx        1 2MQ      0.123200
     27 H17A       -0.5650    1.8830    5.6310 hx        1 2MQ      0.123200
     28 HN18        1.1310    2.5310    7.2060 hn        1 2MQ      0.465467
     29 HN1A        2.0900    1.2140    6.8440 hn        1 2MQ      0.465467
     30 HN11       -2.4200   -0.5270    5.7300 hn        1 2MQ      0.283700
     31 HN14       -5.9710    0.1620    4.7410 hn        1 2MQ      0.494800
     32 H15        -6.0880   -0.1200    7.0070 h1        1 2MQ      0.061367
     33 H15A       -4.4950   -1.0080    6.9270 h1        1 2MQ      0.061367
     34 H15B       -4.5200    0.8170    7.0680 h1        1 2MQ      0.061367
     35 H7         -2.6900    0.2860    0.4720 ha        1 2MQ      0.211000
     36 H203        3.7270   -1.1640    0.3890 hn        1 2MQ      0.483467
     37 H183        0.6060    0.9880    7.5610 hn        1 2MQ      0.465467
@<TRIPOS>BOND
     1    1    2 2   
     2    1    3 1   
     3    1   20 1   
     4    3    4 1   
     5    3   21 1   
     6    4    5 1   
     7    4    6 2   
     8    5   22 1   
     9    5   23 1   
    10    5   36 1   
    11    6    7 1   
    12    7    8 ar  
    13    7   20 ar  
    14    8    9 1   
    15    8   12 ar  
    16    9   10 1   
    17    9   24 1   
    18    9   25 1   
    19   10   11 1   
    20   10   26 1   
    21   10   27 1   
    22   11   28 1   
    23   11   29 1   
    24   11   37 1   
    25   12   13 1   
    26   12   18 ar  
    27   13   14 1   
    28   13   30 1   
    29   14   15 1   
    30   14   17 2   
    31   15   16 1   
    32   15   31 1   
    33   16   32 1   
    34   16   33 1   
    35   16   34 1   
    36   17   18 1   
    37   18   19 ar  
    38   19   20 ar  
    39   19   35 1   
@<TRIPOS>SUBSTRUCTURE
     1 2MQ         1 TEMP              0 ****  ****    0 ROOT
