@<TRIPOS>MOLECULE
2MQ
   38    40     1     0     0
SMALL
bcc


@<TRIPOS>ATOM
      1 C2         -0.2040   -0.2320    0.1710 c         1 2MQ      0.717100
      2 O19        -0.8590   -0.3180   -0.8630 o         1 2MQ     -0.463500
      3 N3          1.2190   -0.3220    0.0630 n         1 2MQ     -0.490400
      4 C4          1.9840   -0.1920    1.2100 cc        1 2MQ      0.609800
      5 N20         3.4760   -0.3240    1.0410 n4        1 2MQ     -0.813600
      6 N5          1.5440    0.0400    2.4420 nd        1 2MQ     -0.641100
      7 C6          0.1510    0.0910    2.6470 ca        1 2MQ      0.233400
      8 C10        -0.3560    0.2590    3.9620 ca        1 2MQ     -0.090300
      9 C16         0.5320    0.4360    5.1450 c3        1 2MQ     -0.042100
     10 C17         0.9420    1.9050    5.2910 c3        1 2MQ      0.100800
     11 N18         1.8130    2.1630    6.4750 n4        1 2MQ     -0.839600
     12 C9         -1.7550    0.2050    4.1080 ca        1 2MQ     -0.000200
     13 N11        -2.5840    0.2970    5.2380 na        1 2MQ     -0.265300
     14 C12        -3.9210    0.1440    4.7400 cc        1 2MQ      0.441700
     15 N14        -5.1130    0.1720    5.6000 n4        1 2MQ     -0.681000
     16 C15        -5.9390   -1.0650    5.4450 c3        1 2MQ      0.085100
     17 N13        -3.9850    0.0390    3.3920 nd        1 2MQ     -0.426100
     18 C8         -2.6450    0.0620    2.9660 ca        1 2MQ      0.057400
     19 C7         -2.1280   -0.0530    1.6720 ca        1 2MQ      0.077000
     20 C1         -0.7430   -0.0530    1.5370 ca        1 2MQ     -0.189600
     21 HN3         1.6070   -0.4860   -0.8480 hn        1 2MQ      0.382500
     22 HN20        3.9520   -0.2210    1.9490 hn        1 2MQ      0.497133
     23 HN2A        3.6960   -1.2570    0.6570 hn        1 2MQ      0.497133
     24 H16         0.0080    0.0930    6.0790 hc        1 2MQ      0.082700
     25 H16A        1.4460   -0.2130    5.0400 hc        1 2MQ      0.082700
     26 H17         1.5100    2.2340    4.3720 hx        1 2MQ      0.118700
     27 H17A        0.0260    2.5570    5.3940 hx        1 2MQ      0.118700
     28 HN18        1.3270    1.9190    7.3450 hn        1 2MQ      0.473467
     29 HN1A        2.0660    3.1610    6.5100 hn        1 2MQ      0.473467
     30 HN11       -2.3010    0.1140    6.1690 hn        1 2MQ      0.325700
     31 HN14       -4.8390    0.2830    6.5850 hn        1 2MQ      0.484800
     32 H15        -5.3240   -1.9680    5.7020 hx        1 2MQ      0.133033
     33 H15A       -6.8170   -0.9820    6.1460 hx        1 2MQ      0.133033
     34 H15B       -6.3080   -1.1460    4.3840 hx        1 2MQ      0.133033
     35 H7         -2.7910   -0.1520    0.7870 ha        1 2MQ      0.229000
     36 H203        3.8210    0.4030    0.3950 hn        1 2MQ      0.497133
     37 H183        2.6750    1.6070    6.4200 hn        1 2MQ      0.473467
     38 H142       -5.6820    0.9940    5.3220 hn        1 2MQ      0.484800
@<TRIPOS>BOND
     1    1    2 2   
     2    1    3 1   
     3    1   20 1   
     4    3    4 1   
     5    3   21 1   
     6    4    5 1   
     7    4    6 2   
     8    5   22 1   
     9    5   23 1   
    10    5   36 1   
    11    6    7 1   
    12    7    8 ar  
    13    7   20 ar  
    14    8    9 1   
    15    8   12 ar  
    16    9   10 1   
    17    9   24 1   
    18    9   25 1   
    19   10   11 1   
    20   10   26 1   
    21   10   27 1   
    22   11   28 1   
    23   11   29 1   
    24   11   37 1   
    25   12   13 1   
    26   12   18 ar  
    27   13   14 1   
    28   13   30 1   
    29   14   15 1   
    30   14   17 2   
    31   15   16 1   
    32   15   31 1   
    33   15   38 1   
    34   16   32 1   
    35   16   33 1   
    36   16   34 1   
    37   17   18 1   
    38   18   19 ar  
    39   19   20 ar  
    40   19   35 1   
@<TRIPOS>SUBSTRUCTURE
     1 2MQ         1 TEMP              0 ****  ****    0 ROOT
