@<TRIPOS>MOLECULE
2MQ
   35    30     1     0     0
SMALL
bcc


@<TRIPOS>ATOM
      1 C2          1.1880    0.0870   -3.4510 c1        1 2MQ      0.357000
      2 O19         0.5950    0.1860   -4.5080 o         1 2MQ     -0.347000
      3 N3          2.5920    0.0320   -3.4370 n2        1 2MQ     -0.347000
      4 C4          3.2930   -0.0210   -2.1970 c2        1 2MQ      0.218000
      5 N20         4.7030   -0.1190   -2.1950 n3        1 2MQ     -0.324000
      6 N5          2.5570   -0.0160   -0.9380 n1        1 2MQ     -0.261000
      7 C6          1.1110    0.0430   -0.9450 c1        1 2MQ      0.081000
      8 C10         0.4000   -0.0060    0.2670 c2        1 2MQ     -0.078000
      9 C16         1.2270   -0.1940    1.5530 c3        1 2MQ     -0.150000
     10 C17         1.5900    1.1570    2.1200 c3        1 2MQ     -0.084000
     11 N18         2.3590    0.9830    3.3210 n3        1 2MQ     -0.337000
     12 C9         -1.0340   -0.0090    0.2590 c1        1 2MQ      0.014000
     13 N11        -1.9370   -0.1220    1.2480 n1        1 2MQ     -0.249000
     14 C12        -3.1670   -0.1460    0.6900 c1        1 2MQ      0.109000
     15 N14        -4.5580   -0.0790    0.9750 n2        1 2MQ     -0.249000
     16 C15        -5.2000   -1.1510    1.7220 c3        1 2MQ     -0.116000
     17 N13        -3.0220   -0.0490   -0.6490 n2        1 2MQ     -0.168000
     18 C8         -1.7100    0.0360   -0.9210 c1        1 2MQ     -0.078000
     19 C7         -0.9870    0.0860   -2.1610 c1        1 2MQ     -0.004000
     20 C1          0.4230    0.0890   -2.1540 c1        1 2MQ     -0.194000
     21 HN3         3.0600    0.1030   -4.2210 hn        1 2MQ      0.250000
     22 HN20        5.1540   -0.2110   -2.9850 hn        1 2MQ      0.207500
     23 HN2A        5.1610   -0.0950   -1.4110 hn        1 2MQ      0.207500
     24 H16         0.6910   -0.7020    2.2210 hc        1 2MQ      0.089500
     25 H16A        2.0170   -0.6740    1.3530 hc        1 2MQ      0.089500
     26 H17         0.7810    1.6500    2.3230 h1        1 2MQ      0.096000
     27 H17A        2.1280    1.6620    1.4540 h1        1 2MQ      0.096000
     28 HN18        1.8210    0.6350    3.9820 hn        1 2MQ      0.139000
     29 HN1A        3.0560    0.4080    3.1590 hn        1 2MQ      0.139000
     30 HN11       -1.7510   -0.1890    2.1430 DU        1 2MQ      0.254000
     31 HN14       -5.0320    0.6450    0.7330 hn        1 2MQ      0.214000
     32 H15        -5.1440   -1.9810    1.2140 h1        1 2MQ      0.084000
     33 H15A       -4.7490   -1.2640    2.5800 h1        1 2MQ      0.084000
     34 H15B       -6.1350   -0.9270    1.8750 h1        1 2MQ      0.084000
     35 H7         -1.4790    0.1530   -3.0190 ha        1 2MQ      0.175000
@<TRIPOS>BOND
     1    1    2 1   
     2    1   20 1   
     3    3    4 1   
     4    3   21 1   
     5    4    5 1   
     6    4    6 1   
     7    5   22 1   
     8    5   23 1   
     9    7    8 1   
    10    7   20 1   
    11    8    9 1   
    12    8   12 1   
    13    9   10 1   
    14    9   24 1   
    15    9   25 1   
    16   10   11 1   
    17   10   26 1   
    18   10   27 1   
    19   11   28 1   
    20   11   29 1   
    21   13   14 1   
    22   14   17 1   
    23   15   16 1   
    24   15   31 1   
    25   16   32 1   
    26   16   33 1   
    27   16   34 1   
    28   17   18 1   
    29   18   19 1   
    30   19   35 1   
@<TRIPOS>SUBSTRUCTURE
     1 2MQ         1 TEMP              0 ****  ****    0 ROOT
