@<TRIPOS>MOLECULE
2MQ
   37    39     1     0     0
SMALL
bcc


@<TRIPOS>ATOM
      1 C2         -0.0910    0.0590   -0.0710 c         1 2MQ      0.719100
      2 O19        -0.7060    0.1330   -1.1360 o         1 2MQ     -0.507500
      3 N3          1.3250   -0.0690   -0.1500 ns        1 2MQ     -0.504400
      4 C4          2.0540   -0.1300    1.0370 cc        1 2MQ      0.528800
      5 N20         3.5430   -0.2970    0.9010 nz        1 2MQ     -0.802600
      6 N5          1.5760   -0.0570    2.2690 nd        1 2MQ     -0.589100
      7 C6          0.1850    0.0340    2.4280 ca        1 2MQ      0.125400
      8 C10        -0.3760    0.0500    3.7350 ca        1 2MQ     -0.052300
      9 C16         0.4470    0.0770    4.9760 c3        1 2MQ     -0.040100
     10 C17         0.4750    1.5120    5.5130 c3        1 2MQ      0.094800
     11 N18         1.1140    1.6260    6.8570 nz        1 2MQ     -0.838600
     12 C9         -1.7660    0.0430    3.8290 ca        1 2MQ     -0.105200
     13 N11        -2.6130    0.0670    4.9650 na        1 2MQ     -0.294300
     14 C12        -3.9660    0.0510    4.4100 cc        1 2MQ      0.682700
     15 N14        -5.0810    0.0010    5.1970 nu        1 2MQ     -0.796200
     16 C15        -5.0280   -0.0760    6.6240 c3        1 2MQ      0.190100
     17 N13        -3.9750    0.1320    3.0310 nd        1 2MQ     -0.601100
     18 C8         -2.6350    0.1150    2.6570 ca        1 2MQ      0.172400
     19 C7         -2.0620    0.1440    1.3820 ca        1 2MQ     -0.024000
     20 C1         -0.6750    0.0840    1.2860 ca        1 2MQ     -0.138600
     21 HN3         1.7470   -0.1260   -1.0530 hn        1 2MQ      0.361500
     22 HN20        3.9820   -0.3290    1.8310 hn        1 2MQ      0.483467
     23 HN2A        3.7410   -1.1780    0.4080 hn        1 2MQ      0.483467
     24 H16        -0.0050   -0.6160    5.7390 hc        1 2MQ      0.076700
     25 H16A        1.4920   -0.2840    4.7890 hc        1 2MQ      0.076700
     26 H17         1.0500    2.1740    4.8020 hx        1 2MQ      0.123200
     27 H17A       -0.5790    1.9120    5.6010 hx        1 2MQ      0.123200
     28 HN18        0.6020    1.0630    7.5450 hn        1 2MQ      0.465467
     29 HN1A        2.0830    1.2930    6.8230 hn        1 2MQ      0.465467
     30 HN11       -2.4080   -0.5160    5.7440 hn        1 2MQ      0.283700
     31 HN14       -5.9670    0.1150    4.7470 hn        1 2MQ      0.494800
     32 H15        -4.5220    0.8270    7.0610 h1        1 2MQ      0.061367
     33 H15A       -4.4760   -0.9990    6.9510 h1        1 2MQ      0.061367
     34 H15B       -6.0800   -0.1280    7.0180 h1        1 2MQ      0.061367
     35 H7         -2.6910    0.2020    0.4730 ha        1 2MQ      0.211000
     36 H203        3.9320    0.4920    0.3700 hn        1 2MQ      0.483467
     37 H183        1.1100    2.6060    7.1630 hn        1 2MQ      0.465467
@<TRIPOS>BOND
     1    1    2 2   
     2    1    3 1   
     3    1   20 1   
     4    3    4 1   
     5    3   21 1   
     6    4    5 1   
     7    4    6 2   
     8    5   22 1   
     9    5   23 1   
    10    5   36 1   
    11    6    7 1   
    12    7    8 ar  
    13    7   20 ar  
    14    8    9 1   
    15    8   12 ar  
    16    9   10 1   
    17    9   24 1   
    18    9   25 1   
    19   10   11 1   
    20   10   26 1   
    21   10   27 1   
    22   11   28 1   
    23   11   29 1   
    24   11   37 1   
    25   12   13 1   
    26   12   18 ar  
    27   13   14 1   
    28   13   30 1   
    29   14   15 1   
    30   14   17 2   
    31   15   16 1   
    32   15   31 1   
    33   16   32 1   
    34   16   33 1   
    35   16   34 1   
    36   17   18 1   
    37   18   19 ar  
    38   19   20 ar  
    39   19   35 1   
@<TRIPOS>SUBSTRUCTURE
     1 2MQ         1 TEMP              0 ****  ****    0 ROOT
