@<TRIPOS>MOLECULE
2MR
   31    30     1     0     0
SMALL
bcc


@<TRIPOS>ATOM
      1 N           1.5750    0.9210   -3.2080 n3        1 2MR     -0.892800
      2 CA          0.5590   -0.0930   -2.9520 c3        1 2MR      0.017500
      3 CB         -0.2230    0.1450   -1.6600 c3        1 2MR     -0.063400
      4 CG          0.6580    0.0630   -0.4320 c3        1 2MR     -0.084400
      5 CD         -0.2020    0.1590    0.8300 c3        1 2MR      0.176800
      6 NE          0.5810    0.1810    2.0470 nh        1 2MR     -0.844200
      7 CZ         -0.0360   -0.0520    3.3140 c2        1 2MR      0.769100
      8 NH1         0.6250   -0.3360    4.4260 n2        1 2MR     -0.746900
      9 CQ1         2.0240   -0.5900    4.4040 c3        1 2MR      0.128100
     10 NH2        -1.4660    0.0640    3.3680 nh        1 2MR     -0.794200
     11 CQ2        -2.0900    0.1640    4.6570 c3        1 2MR      0.186100
     12 C          -0.4740   -0.2830   -4.1140 c         1 2MR      0.888600
     13 O          -0.3170    0.4010   -5.1650 o         1 2MR     -0.842300
     14 OXT        -1.3960   -1.1260   -3.9390 o         1 2MR     -0.842300
     15 H           1.8710    0.8080   -4.1640 hn        1 2MR      0.331800
     16 H2          1.1400    1.8260   -3.1560 hn        1 2MR      0.331800
     17 HA          1.1090   -1.0750   -2.8550 h1        1 2MR      0.040700
     18 HB2        -1.0280   -0.6380   -1.6160 hc        1 2MR      0.049200
     19 HB3        -0.7280    1.1450   -1.6960 hc        1 2MR      0.049200
     20 HG2         1.4150    0.8900   -0.4500 hc        1 2MR      0.044700
     21 HG3         1.2200   -0.9080   -0.4380 hc        1 2MR      0.044700
     22 HD2        -0.9370   -0.6980    0.8210 h1        1 2MR      0.039200
     23 HD3        -0.7950    1.1180    0.7860 h1        1 2MR      0.039200
     24 HE          1.4590   -0.2880    1.9490 hn        1 2MR      0.402800
     25 HQ11        2.3150   -0.8510    5.4570 h1        1 2MR      0.022367
     26 HQ12        2.3140   -1.4520    3.7400 h1        1 2MR      0.022367
     27 HQ13        2.6300    0.3020    4.0850 h1        1 2MR      0.022367
     28 HH2        -1.8150    0.7450    2.7210 hn        1 2MR      0.397800
     29 HQ21       -3.1980    0.2550    4.4950 h1        1 2MR      0.035700
     30 HQ22       -1.8850   -0.7670    5.2480 h1        1 2MR      0.035700
     31 HQ23       -1.7390    1.0460    5.2590 h1        1 2MR      0.035700
@<TRIPOS>BOND
     1    1    2 1   
     2    1   15 1   
     3    1   16 1   
     4    2    3 1   
     5    2   12 1   
     6    2   17 1   
     7    3    4 1   
     8    3   18 1   
     9    3   19 1   
    10    4    5 1   
    11    4   20 1   
    12    4   21 1   
    13    5    6 1   
    14    5   22 1   
    15    5   23 1   
    16    6    7 1   
    17    6   24 1   
    18    7    8 2   
    19    7   10 1   
    20    8    9 1   
    21    9   25 1   
    22    9   26 1   
    23    9   27 1   
    24   10   11 1   
    25   10   28 1   
    26   11   29 1   
    27   11   30 1   
    28   11   31 1   
    29   12   13 1   
    30   12   14 1   
@<TRIPOS>SUBSTRUCTURE
     1 2MR         1 TEMP              0 ****  ****    0 ROOT
