@<TRIPOS>MOLECULE
2MT
   20    20     1     0     0
SMALL
bcc


@<TRIPOS>ATOM
      1 N           1.5000   -0.3950   -2.4510 n3        1 2MT     -0.789200
      2 CA          1.9210   -0.1880   -1.0660 c3        1 2MT      0.030500
      3 C           0.7870   -0.5940   -0.0580 c         1 2MT      0.940600
      4 O           0.4410   -1.8060   -0.0770 o         1 2MT     -0.827300
      5 CB          2.3720    1.2560   -0.8950 c3        1 2MT      0.062700
      6 SG          3.0850    1.7270   -2.4750 ss        1 2MT     -0.472200
      7 CD1         2.4270    0.2550   -3.3760 c3        1 2MT      0.313300
      8 CD2         1.7210    0.7690   -4.6240 c3        1 2MT     -0.089600
      9 CD3         3.6320   -0.5810   -3.7980 c3        1 2MT     -0.089600
     10 OXT         0.3460    0.2890    0.7220 o         1 2MT     -0.827300
     11 H           1.4030   -1.3740   -2.6400 hn        1 2MT      0.378800
     12 HA          2.8000   -0.8590   -0.8140 h1        1 2MT      0.008700
     13 HB2         1.5050    1.9110   -0.6430 h1        1 2MT      0.077200
     14 HB3         3.1440    1.3480   -0.1010 h1        1 2MT      0.077200
     15 HD21        0.8580    1.4220   -4.3500 hc        1 2MT      0.034367
     16 HD22        2.4400    1.3580   -5.2420 hc        1 2MT      0.034367
     17 HD23        1.3400   -0.0860   -5.2350 hc        1 2MT      0.034367
     18 HD31        4.1820   -0.9600   -2.9030 hc        1 2MT      0.034367
     19 HD32        3.3030   -1.4550   -4.4110 hc        1 2MT      0.034367
     20 HD33        4.3310    0.0390   -4.4090 hc        1 2MT      0.034367
@<TRIPOS>BOND
     1    1    2 1   
     2    1    7 1   
     3    1   11 1   
     4    2    3 1   
     5    2    5 1   
     6    2   12 1   
     7    3    4 1   
     8    3   10 1   
     9    5    6 1   
    10    5   13 1   
    11    5   14 1   
    12    6    7 1   
    13    7    8 1   
    14    7    9 1   
    15    8   15 1   
    16    8   16 1   
    17    8   17 1   
    18    9   18 1   
    19    9   19 1   
    20    9   20 1   
@<TRIPOS>SUBSTRUCTURE
     1 2MT         1 TEMP              0 ****  ****    0 ROOT
