@<TRIPOS>MOLECULE
2MU
   38    39     1     0     0
SMALL
bcc


@<TRIPOS>ATOM
      1 N1          0.7490    0.0020   -2.5080 n         1 2MU     -0.370000
      2 C2          0.8760    0.0120   -3.9130 c         1 2MU      0.797500
      3 N3         -0.2930    0.0350   -4.6920 n         1 2MU     -0.599500
      4 C4         -1.5910   -0.0030   -4.1390 c         1 2MU      0.716700
      5 C5         -1.6620   -0.0500   -2.6820 cc        1 2MU     -0.290400
      6 C5M        -2.9810   -0.1100   -2.0200 c3        1 2MU     -0.044900
      7 C6         -0.5140   -0.0610   -1.9350 cd        1 2MU      0.053600
      8 O2          1.9870    0.0420   -4.5030 o         1 2MU     -0.705500
      9 O4         -2.5480    0.0090   -4.9430 o         1 2MU     -0.687500
     10 C1'         1.9700   -0.1270   -1.6960 c3        1 2MU      0.301500
     11 C2'         2.0310    0.9330   -0.5480 c3        1 2MU      0.104100
     12 O2'         3.3760    1.4110   -0.5690 os        1 2MU     -0.421600
     13 C3'         1.6210    0.1360    0.7010 c3        1 2MU      0.087100
     14 C4'         1.7900   -1.3490    0.3270 c3        1 2MU      0.066100
     15 O3'         2.3770    0.4760    1.8370 oh        1 2MU     -0.647800
     16 O4'         2.0590   -1.4130   -1.0960 os        1 2MU     -0.432600
     17 C5'         0.5450   -2.2210    0.6270 c3        1 2MU      0.221400
     18 O5'         0.1130   -2.1110    1.9190 os        1 2MU     -0.569200
     19 C6'         3.5640    2.5730    0.2200 c3        1 2MU      0.123700
     20 P          -1.1400   -0.9670    2.2750 p5        1 2MU      1.342900
     21 OP1        -1.5390   -0.5220    0.8790 o         1 2MU     -0.924833
     22 OP2        -2.1480   -1.7190    3.0780 o         1 2MU     -0.924833
     23 OP3        -0.2620    0.0690    2.9350 o         1 2MU     -0.924833
     24 HN3        -0.1760    0.0420   -5.6790 hn        1 2MU      0.319500
     25 HM51       -3.5380    0.8470   -2.1790 hc        1 2MU      0.058700
     26 HM52       -3.5910   -0.9410   -2.4510 hc        1 2MU      0.058700
     27 HM53       -2.8440   -0.2820   -0.9110 hc        1 2MU      0.058700
     28 H6         -0.5860   -0.1220   -0.8000 h4        1 2MU      0.300000
     29 H1'         2.8580   -0.0410   -2.3890 h2        1 2MU      0.107700
     30 H2'         1.3310    1.7940   -0.7120 h1        1 2MU      0.053700
     31 H3'         0.5150    0.3290    0.9220 h1        1 2MU      0.151700
     32 H4'         2.7000   -1.7780    0.8220 h1        1 2MU      0.052700
     33 HO3'        1.7500    0.3750    2.5890 ho        1 2MU      0.483000
     34 H5'        -0.2700   -1.9600   -0.1040 h1        1 2MU     -0.000300
     35 H5''        0.8600   -3.2910    0.4380 h1        1 2MU     -0.000300
     36 H6'1        4.6670    2.7550    0.1850 h1        1 2MU      0.027700
     37 H6'2        3.0160    3.4380   -0.2340 h1        1 2MU      0.027700
     38 H6'3        3.2220    2.4080    1.2710 h1        1 2MU      0.027700
@<TRIPOS>BOND
     1    1    2 1   
     2    1    7 1   
     3    1   10 1   
     4    2    3 1   
     5    2    8 2   
     6    3    4 1   
     7    3   24 1   
     8    4    5 1   
     9    4    9 2   
    10    5    6 1   
    11    5    7 2   
    12    6   25 1   
    13    6   26 1   
    14    6   27 1   
    15    7   28 1   
    16   10   11 1   
    17   10   16 1   
    18   10   29 1   
    19   11   12 1   
    20   11   13 1   
    21   11   30 1   
    22   12   19 1   
    23   13   14 1   
    24   13   15 1   
    25   13   31 1   
    26   14   16 1   
    27   14   17 1   
    28   14   32 1   
    29   15   33 1   
    30   17   18 1   
    31   17   34 1   
    32   17   35 1   
    33   18   20 1   
    34   19   36 1   
    35   19   37 1   
    36   19   38 1   
    37   20   21 1   
    38   20   22 1   
    39   20   23 1   
@<TRIPOS>SUBSTRUCTURE
     1 2MU         1 TEMP              0 ****  ****    0 ROOT
