@<TRIPOS>MOLECULE
2MU
   38    39     1     0     0
SMALL
bcc


@<TRIPOS>ATOM
      1 N1          0.3260    0.9330    1.0880 n         1 2MU     -0.363000
      2 C2          1.5880    0.3870    0.7620 c         1 2MU      0.789500
      3 N3          2.4380   -0.1920    1.9320 n         1 2MU     -0.596500
      4 C4          2.2260    0.2890    2.9850 c         1 2MU      0.715700
      5 C5          0.5500    0.5780    3.2770 cc        1 2MU     -0.302400
      6 C5M        -0.2770   -0.6880    3.3190 c3        1 2MU     -0.040900
      7 C6          0.0900    1.2840    2.5470 cd        1 2MU      0.082600
      8 O2          2.1220    0.6770   -0.2900 o         1 2MU     -0.728500
      9 O4          2.9130    1.2830    3.1070 o         1 2MU     -0.696500
     10 C1'        -0.4860    1.5340    0.0620 c3        1 2MU      0.275500
     11 C2'         0.1360    1.2560   -1.3600 c3        1 2MU      0.098100
     12 O2'         0.1510    2.3900   -2.0930 os        1 2MU     -0.392600
     13 C3'        -0.7630    0.2320   -2.0010 c3        1 2MU      0.119100
     14 C4'        -1.5430   -0.2020   -1.0170 c3        1 2MU      0.070100
     15 O3'        -1.5840    0.8640   -3.0690 oh        1 2MU     -0.627800
     16 O4'        -1.6390    0.9890    0.0350 os        1 2MU     -0.415600
     17 C5'        -0.9350   -1.4100   -0.3730 c3        1 2MU      0.224400
     18 O5'        -1.0060   -2.4970   -1.2580 os        1 2MU     -0.574200
     19 C6'         1.3690    2.6200   -2.7620 c3        1 2MU      0.108700
     20 P          -1.5490   -3.8750   -0.7140 p5        1 2MU      1.326900
     21 OP1        -1.6480   -4.8620   -1.8520 o         1 2MU     -0.917500
     22 OP2        -2.9130   -3.6720   -0.1040 o         1 2MU     -0.917500
     23 OP3        -0.6030   -4.4090    0.3350 o         1 2MU     -0.917500
     24 HN3         3.2810   -0.4670    1.7140 hn        1 2MU      0.316500
     25 HM51       -0.3130   -1.0250    4.2400 hc        1 2MU      0.056033
     26 HM52        0.1320   -1.3640    2.7400 hc        1 2MU      0.056033
     27 HM53       -1.1850   -0.4950    3.0050 hc        1 2MU      0.056033
     28 H6         -0.6940    1.8110    2.8030 h4        1 2MU      0.319000
     29 H1'        -0.5690    2.4940    0.2140 h2        1 2MU      0.088700
     30 H2'         1.0400    0.9010   -1.2690 h1        1 2MU      0.063700
     31 H3'        -0.2350   -0.5040   -2.3670 h1        1 2MU      0.149700
     32 H4'        -2.4330   -0.4170   -1.3630 h1        1 2MU      0.027700
     33 HO3'       -1.5180    0.3850   -3.8170 ho        1 2MU      0.469000
     34 H5'        -1.4260   -1.6240    0.4490 h1        1 2MU      0.004700
     35 H5''        0.0030   -1.2270   -0.1550 h1        1 2MU      0.004700
     36 H6'1        1.2240    3.2570   -3.4940 h1        1 2MU      0.022367
     37 H6'2        2.0240    2.9910   -2.1310 h1        1 2MU      0.022367
     38 H6'3        1.7080    1.7740   -3.1260 h1        1 2MU      0.022367
@<TRIPOS>BOND
     1    1    2 1   
     2    1    7 1   
     3    1   10 1   
     4    2    3 1   
     5    2    8 2   
     6    3    4 1   
     7    3   24 1   
     8    4    5 1   
     9    4    9 2   
    10    5    6 1   
    11    5    7 2   
    12    6   25 1   
    13    6   26 1   
    14    6   27 1   
    15    7   28 1   
    16   10   11 1   
    17   10   16 1   
    18   10   29 1   
    19   11   12 1   
    20   11   13 1   
    21   11   30 1   
    22   12   19 1   
    23   13   14 1   
    24   13   15 1   
    25   13   31 1   
    26   14   16 1   
    27   14   17 1   
    28   14   32 1   
    29   15   33 1   
    30   17   18 1   
    31   17   34 1   
    32   17   35 1   
    33   18   20 1   
    34   19   36 1   
    35   19   37 1   
    36   19   38 1   
    37   20   21 1   
    38   20   22 1   
    39   20   23 1   
@<TRIPOS>SUBSTRUCTURE
     1 2MU         1 TEMP              0 ****  ****    0 ROOT
