@<TRIPOS>MOLECULE
2MV
   79    82     1     0     0
SMALL
bcc


@<TRIPOS>ATOM
      1 O26         0.5320   -0.1770    0.3310 oh        1 2MV     -0.600800
      2 C26         1.8790   -0.1180   -0.1420 c3        1 2MV      0.149800
      3 C27         2.8470   -0.3240    1.0160 c3        1 2MV     -0.124100
      4 C28         2.0950   -1.2060   -1.1930 c3        1 2MV     -0.124100
      5 C25         2.0390    1.2560   -0.8040 c3        1 2MV     -0.060400
      6 C23         2.1250    2.4240    0.1550 c3        1 2MV     -0.086700
      7 C22         2.3730    3.7390   -0.5860 c3        1 2MV     -0.105400
      8 C24         0.8330    2.6600    0.9390 c3        1 2MV      0.129400
      9 O20         0.5170    4.0540    0.9100 os        1 2MV     -0.421600
     10 C20         1.4430    4.7790    0.0760 c3        1 2MV      0.164800
     11 C21         2.2590    5.6940    0.9820 c3        1 2MV     -0.102100
     12 C17         0.6800    5.5690   -0.9950 c3        1 2MV     -0.054700
     13 C13        -0.2700    6.7010   -0.5410 c3        1 2MV     -0.032000
     14 C18        -1.1060    6.2680    0.6490 c3        1 2MV     -0.080100
     15 C12         0.3940    8.0440   -0.2760 c3        1 2MV     -0.068400
     16 C11        -0.6490    9.1300   -0.0810 c3        1 2MV     -0.072400
     17 C9         -1.6940    9.1970   -1.1820 c3        1 2MV     -0.044200
     18 C16        -0.2050    4.6590   -1.8700 c3        1 2MV     -0.077400
     19 C15        -1.4620    5.4490   -2.2380 c3        1 2MV     -0.071400
     20 C14        -1.1510    6.8760   -1.8120 c3        1 2MV     -0.038500
     21 C8         -2.2380    7.8620   -1.5760 c2        1 2MV     -0.071400
     22 C7         -3.5380    7.5860   -1.7770 ce        1 2MV     -0.154000
     23 C6         -4.6380    8.4980   -1.5660 ce        1 2MV     -0.114000
     24 C5         -5.8690    8.3630   -2.1040 cf        1 2MV     -0.071200
     25 C10        -6.2570    7.2900   -3.0180 cf        1 2MV     -0.121200
     26 C19        -5.5060    6.9030   -4.0560 c2        1 2MV     -0.193000
     27 C1         -7.5930    6.6460   -2.7460 c3        1 2MV      0.182300
     28 O1         -7.5670    5.8460   -1.5670 oh        1 2MV     -0.595800
     29 C4         -6.9390    9.3550   -1.7990 c3        1 2MV     -0.074200
     30 C3         -8.2710    8.6830   -1.4640 c3        1 2MV      0.146100
     31 O3         -9.2950    9.6680   -1.3700 oh        1 2MV     -0.600800
     32 C2         -8.6880    7.7060   -2.5670 c3        1 2MV     -0.049700
     33 C29       -10.0180    7.0600   -2.2520 c3        1 2MV     -0.086100
     34 HO26        0.4190   -1.0410    0.7440 ho        1 2MV      0.399000
     35 H27         2.8370   -1.3920    1.3420 hc        1 2MV      0.043700
     36 H27A        3.8830   -0.0540    0.7030 hc        1 2MV      0.043700
     37 H27B        2.5470    0.3120    1.8830 hc        1 2MV      0.043700
     38 H28         1.8960   -2.2120   -0.7520 hc        1 2MV      0.043700
     39 H28A        1.3990   -1.0500   -2.0510 hc        1 2MV      0.043700
     40 H28B        3.1460   -1.1780   -1.5640 hc        1 2MV      0.043700
     41 H25         2.9740    1.2300   -1.4230 hc        1 2MV      0.053200
     42 H25A        1.1670    1.4090   -1.4950 hc        1 2MV      0.053200
     43 H23         2.9680    2.2470    0.8770 hc        1 2MV      0.054700
     44 H22         3.4420    4.0520   -0.5010 hc        1 2MV      0.053200
     45 H22A        2.1390    3.6310   -1.6740 hc        1 2MV      0.053200
     46 H24        -0.0370    2.1100    0.4920 h1        1 2MV      0.055700
     47 H24A        0.9420    2.3760    2.0170 h1        1 2MV      0.055700
     48 H21         2.8220    6.4360    0.3700 hc        1 2MV      0.042367
     49 H21A        1.5870    6.2330    1.6920 hc        1 2MV      0.042367
     50 H21B        2.9810    5.0900    1.5830 hc        1 2MV      0.042367
     51 H17         1.4720    6.0380   -1.6460 hc        1 2MV      0.043700
     52 H18        -1.4930    5.2310    0.4900 hc        1 2MV      0.043033
     53 H18A       -1.9750    6.9540    0.7920 hc        1 2MV      0.043033
     54 H18B       -0.4880    6.2650    1.5790 hc        1 2MV      0.043033
     55 H12         1.0350    7.9860    0.6420 hc        1 2MV      0.040700
     56 H12A        1.0610    8.3100   -1.1370 hc        1 2MV      0.040700
     57 H11        -0.1310   10.1240   -0.0210 hc        1 2MV      0.041200
     58 H11A       -1.1650    8.9670    0.9020 hc        1 2MV      0.041200
     59 H9         -2.5160    9.8850   -0.8500 hc        1 2MV      0.046700
     60 H9A        -1.2320    9.6580   -2.0990 hc        1 2MV      0.046700
     61 H16        -0.4760    3.7310   -1.3050 hc        1 2MV      0.046700
     62 H16A        0.3490    4.3530   -2.7920 hc        1 2MV      0.046700
     63 H15        -2.3480    5.0480   -1.6860 hc        1 2MV      0.044700
     64 H15A       -1.6800    5.3880   -3.3310 hc        1 2MV      0.044700
     65 H14        -0.4940    7.3230   -2.6190 hc        1 2MV      0.051700
     66 H7         -3.8250    6.5770   -2.1290 ha        1 2MV      0.128000
     67 H6         -4.4470    9.3480   -0.8860 ha        1 2MV      0.124000
     68 H19        -4.5390    7.3700   -4.2850 ha        1 2MV      0.120500
     69 H19A       -5.8190    6.1040   -4.7410 ha        1 2MV      0.120500
     70 H1         -7.8770    5.9740   -3.6090 h1        1 2MV      0.040700
     71 HO1        -6.7070    5.4100   -1.5380 ho        1 2MV      0.405000
     72 H4         -7.0850   10.0200   -2.6950 hc        1 2MV      0.053200
     73 H4A        -6.6380   10.0130   -0.9420 hc        1 2MV      0.053200
     74 H3         -8.1880    8.1260   -0.4890 h1        1 2MV      0.056700
     75 HO3        -9.0530   10.2460   -0.6370 ho        1 2MV      0.398000
     76 H2         -8.7740    8.2770   -3.5330 hc        1 2MV      0.062700
     77 H29       -10.7900    7.8490   -2.0820 hc        1 2MV      0.043700
     78 H29A      -10.3400    6.4100   -3.0990 hc        1 2MV      0.043700
     79 H29B       -9.9350    6.4310   -1.3320 hc        1 2MV      0.043700
@<TRIPOS>BOND
     1    1    2 1   
     2    1   34 1   
     3    2    3 1   
     4    2    4 1   
     5    2    5 1   
     6    3   35 1   
     7    3   36 1   
     8    3   37 1   
     9    4   38 1   
    10    4   39 1   
    11    4   40 1   
    12    5    6 1   
    13    5   41 1   
    14    5   42 1   
    15    6    7 1   
    16    6    8 1   
    17    6   43 1   
    18    7   10 1   
    19    7   44 1   
    20    7   45 1   
    21    8    9 1   
    22    8   46 1   
    23    8   47 1   
    24    9   10 1   
    25   10   11 1   
    26   10   12 1   
    27   11   48 1   
    28   11   49 1   
    29   11   50 1   
    30   12   13 1   
    31   12   18 1   
    32   12   51 1   
    33   13   14 1   
    34   13   15 1   
    35   13   20 1   
    36   14   52 1   
    37   14   53 1   
    38   14   54 1   
    39   15   16 1   
    40   15   55 1   
    41   15   56 1   
    42   16   17 1   
    43   16   57 1   
    44   16   58 1   
    45   17   21 1   
    46   17   59 1   
    47   17   60 1   
    48   18   19 1   
    49   18   61 1   
    50   18   62 1   
    51   19   20 1   
    52   19   63 1   
    53   19   64 1   
    54   20   21 1   
    55   20   65 1   
    56   21   22 2   
    57   22   23 1   
    58   22   66 1   
    59   23   24 2   
    60   23   67 1   
    61   24   25 1   
    62   24   29 1   
    63   25   26 2   
    64   25   27 1   
    65   26   68 1   
    66   26   69 1   
    67   27   28 1   
    68   27   32 1   
    69   27   70 1   
    70   28   71 1   
    71   29   30 1   
    72   29   72 1   
    73   29   73 1   
    74   30   31 1   
    75   30   32 1   
    76   30   74 1   
    77   31   75 1   
    78   32   33 1   
    79   32   76 1   
    80   33   77 1   
    81   33   78 1   
    82   33   79 1   
@<TRIPOS>SUBSTRUCTURE
     1 2MV         1 TEMP              0 ****  ****    0 ROOT
