@<TRIPOS>MOLECULE
2MV
   79    82     1     0     0
SMALL
bcc


@<TRIPOS>ATOM
      1 O26        -5.7020    3.1340    0.5250 oh        1 2MV     -0.599800
      2 C26        -6.6730    2.3190   -0.1340 c3        1 2MV      0.149800
      3 C27        -7.7670    1.9150    0.8470 c3        1 2MV     -0.124100
      4 C28        -7.2870    3.1010   -1.2940 c3        1 2MV     -0.124100
      5 C25        -5.9110    1.1120   -0.6920 c3        1 2MV     -0.060400
      6 C23        -5.4640    0.1010    0.3430 c3        1 2MV     -0.086700
      7 C22        -4.8010   -1.1120   -0.3100 c3        1 2MV     -0.105400
      8 C24        -4.4080    0.6480    1.3050 c3        1 2MV      0.130400
      9 O20        -3.3580   -0.3140    1.4400 os        1 2MV     -0.421600
     10 C20        -3.5630   -1.4330    0.5560 c3        1 2MV      0.164800
     11 C21        -3.8450   -2.6560    1.4220 c3        1 2MV     -0.102100
     12 C17        -2.3300   -1.6360   -0.3330 c3        1 2MV     -0.054700
     13 C13        -0.9910   -2.0190    0.3380 c3        1 2MV     -0.032000
     14 C18        -0.7480   -1.1880    1.5850 c3        1 2MV     -0.080100
     15 C12        -0.8060   -3.5010    0.6320 c3        1 2MV     -0.068400
     16 C11         0.6230   -3.7910    1.0570 c3        1 2MV     -0.072400
     17 C9          1.6790   -3.2410    0.1130 c3        1 2MV     -0.045200
     18 C16        -1.9940   -0.3790   -1.1600 c3        1 2MV     -0.077400
     19 C15        -0.4710   -0.3040   -1.2920 c3        1 2MV     -0.071400
     20 C14         0.0200   -1.6530   -0.7860 c3        1 2MV     -0.038500
     21 C8          1.4210   -1.8350   -0.3260 c2        1 2MV     -0.069400
     22 C7          2.3470   -0.8630   -0.3840 ce        1 2MV     -0.158000
     23 C6          3.7200   -0.9770    0.0490 ce        1 2MV     -0.106000
     24 C5          4.7220   -0.1620   -0.3420 cf        1 2MV     -0.091200
     25 C10         4.5730    0.9290   -1.3040 cf        1 2MV     -0.118200
     26 C19         3.9230    0.7980   -2.4660 c2        1 2MV     -0.182000
     27 C1          5.2190    2.2360   -0.9170 c3        1 2MV      0.182300
     28 O1          4.4550    2.9150    0.0680 oh        1 2MV     -0.588800
     29 C4          6.1040   -0.3560    0.1830 c3        1 2MV     -0.077200
     30 C3          6.7360    0.9600    0.6360 c3        1 2MV      0.145100
     31 O3          8.1130    0.7600    0.9370 oh        1 2MV     -0.595800
     32 C2          6.6710    2.0180   -0.4700 c3        1 2MV     -0.087700
     33 C29         7.2870    3.3200   -0.0110 c3        1 2MV     -0.087100
     34 HO26       -6.1700    3.9020    0.8710 ho        1 2MV      0.399000
     35 H27        -8.4220    2.7900    1.0750 hc        1 2MV      0.043700
     36 H27A       -8.3920    1.1010    0.4110 hc        1 2MV      0.043700
     37 H27B       -7.3110    1.5580    1.8020 hc        1 2MV      0.043700
     38 H28        -6.4920    3.3870   -2.0230 hc        1 2MV      0.043700
     39 H28A       -8.0530    2.4790   -1.8130 hc        1 2MV      0.043700
     40 H28B       -7.7740    4.0310   -0.9170 hc        1 2MV      0.043700
     41 H25        -6.5810    0.5980   -1.4310 hc        1 2MV      0.053200
     42 H25A       -5.0120    1.4970   -1.2450 hc        1 2MV      0.053200
     43 H23        -6.3570   -0.2420    0.9320 hc        1 2MV      0.054700
     44 H22        -5.5000   -1.9830   -0.3410 hc        1 2MV      0.053200
     45 H22A       -4.5010   -0.8820   -1.3620 hc        1 2MV      0.053200
     46 H24        -3.9460    1.5980    0.9270 h1        1 2MV      0.055700
     47 H24A       -4.8250    0.8170    2.3300 h1        1 2MV      0.055700
     48 H21        -3.7820   -3.5840    0.8070 hc        1 2MV      0.042033
     49 H21A       -3.1090   -2.7150    2.2590 hc        1 2MV      0.042033
     50 H21B       -4.8670   -2.5800    1.8670 hc        1 2MV      0.042033
     51 H17        -2.6000   -2.4720   -1.0390 hc        1 2MV      0.043700
     52 H18        -1.3950   -1.5430    2.4220 hc        1 2MV      0.043033
     53 H18A        0.3220   -1.2520    1.9000 hc        1 2MV      0.043033
     54 H18B       -0.9980   -0.1160    1.3870 hc        1 2MV      0.043033
     55 H12        -1.5020   -3.8250    1.4490 hc        1 2MV      0.040700
     56 H12A       -1.0580   -4.0990   -0.2820 hc        1 2MV      0.040700
     57 H11         0.7910   -3.3640    2.0820 hc        1 2MV      0.041200
     58 H11A        0.7600   -4.9020    1.1350 hc        1 2MV      0.041200
     59 H9          2.6800   -3.3310    0.6100 hc        1 2MV      0.046200
     60 H9A         1.7130   -3.8820   -0.8120 hc        1 2MV      0.046200
     61 H16        -2.4710   -0.4420   -2.1680 hc        1 2MV      0.046700
     62 H16A       -2.3880    0.5330   -0.6450 hc        1 2MV      0.046700
     63 H15        -0.1590   -0.1260   -2.3490 hc        1 2MV      0.046700
     64 H15A       -0.0670    0.5320   -0.6670 hc        1 2MV      0.046700
     65 H14        -0.1300   -2.3940   -1.6300 hc        1 2MV      0.050700
     66 H7          2.0650    0.1280   -0.7890 ha        1 2MV      0.136000
     67 H6          3.9410   -1.7790    0.7770 ha        1 2MV      0.122000
     68 H19         3.4550   -0.1470   -2.7720 ha        1 2MV      0.120000
     69 H19A        3.8250    1.6280   -3.1780 ha        1 2MV      0.120000
     70 H1          5.2130    2.9540   -1.7890 h1        1 2MV      0.078700
     71 HO1         4.3430    2.3130    0.8140 ho        1 2MV      0.401000
     72 H4          6.1070   -1.0770    1.0420 hc        1 2MV      0.055200
     73 H4A         6.7430   -0.8000   -0.6290 hc        1 2MV      0.055200
     74 H3          6.2090    1.3420    1.5560 h1        1 2MV      0.034700
     75 HO3         8.1490    0.0840    1.6230 ho        1 2MV      0.399000
     76 H2          7.2500    1.6280   -1.3530 hc        1 2MV      0.068700
     77 H29         6.6670    3.7780    0.7980 hc        1 2MV      0.043367
     78 H29A        8.3170    3.1370    0.3810 hc        1 2MV      0.043367
     79 H29B        7.3430    4.0390   -0.8620 hc        1 2MV      0.043367
@<TRIPOS>BOND
     1    1    2 1   
     2    1   34 1   
     3    2    3 1   
     4    2    4 1   
     5    2    5 1   
     6    3   35 1   
     7    3   36 1   
     8    3   37 1   
     9    4   38 1   
    10    4   39 1   
    11    4   40 1   
    12    5    6 1   
    13    5   41 1   
    14    5   42 1   
    15    6    7 1   
    16    6    8 1   
    17    6   43 1   
    18    7   10 1   
    19    7   44 1   
    20    7   45 1   
    21    8    9 1   
    22    8   46 1   
    23    8   47 1   
    24    9   10 1   
    25   10   11 1   
    26   10   12 1   
    27   11   48 1   
    28   11   49 1   
    29   11   50 1   
    30   12   13 1   
    31   12   18 1   
    32   12   51 1   
    33   13   14 1   
    34   13   15 1   
    35   13   20 1   
    36   14   52 1   
    37   14   53 1   
    38   14   54 1   
    39   15   16 1   
    40   15   55 1   
    41   15   56 1   
    42   16   17 1   
    43   16   57 1   
    44   16   58 1   
    45   17   21 1   
    46   17   59 1   
    47   17   60 1   
    48   18   19 1   
    49   18   61 1   
    50   18   62 1   
    51   19   20 1   
    52   19   63 1   
    53   19   64 1   
    54   20   21 1   
    55   20   65 1   
    56   21   22 2   
    57   22   23 1   
    58   22   66 1   
    59   23   24 2   
    60   23   67 1   
    61   24   25 1   
    62   24   29 1   
    63   25   26 2   
    64   25   27 1   
    65   26   68 1   
    66   26   69 1   
    67   27   28 1   
    68   27   32 1   
    69   27   70 1   
    70   28   71 1   
    71   29   30 1   
    72   29   72 1   
    73   29   73 1   
    74   30   31 1   
    75   30   32 1   
    76   30   74 1   
    77   31   75 1   
    78   32   33 1   
    79   32   76 1   
    80   33   77 1   
    81   33   78 1   
    82   33   79 1   
@<TRIPOS>SUBSTRUCTURE
     1 2MV         1 TEMP              0 ****  ****    0 ROOT
