@<TRIPOS>MOLECULE
2MV
   79    82     1     0     0
SMALL
bcc


@<TRIPOS>ATOM
      1 O26         0.5500   -0.1870    0.3400 oh        1 2MV     -0.599800
      2 C26         1.8920   -0.1240   -0.1470 c3        1 2MV      0.149800
      3 C27         2.8720   -0.3360    0.9990 c3        1 2MV     -0.124100
      4 C28         2.0980   -1.2070   -1.2060 c3        1 2MV     -0.124100
      5 C25         2.0440    1.2530   -0.8040 c3        1 2MV     -0.060400
      6 C23         2.1210    2.4180    0.1600 c3        1 2MV     -0.086700
      7 C22         2.3710    3.7350   -0.5740 c3        1 2MV     -0.105400
      8 C24         0.8220    2.6470    0.9360 c3        1 2MV      0.130400
      9 O20         0.5070    4.0420    0.9140 os        1 2MV     -0.421600
     10 C20         1.4360    4.7710    0.0880 c3        1 2MV      0.164800
     11 C21         2.2450    5.6830    1.0040 c3        1 2MV     -0.102100
     12 C17         0.6780    5.5660   -0.9830 c3        1 2MV     -0.054700
     13 C13        -0.2770    6.6930   -0.5280 c3        1 2MV     -0.032000
     14 C18        -1.1210    6.2500    0.6530 c3        1 2MV     -0.080100
     15 C12         0.3820    8.0360   -0.2490 c3        1 2MV     -0.068400
     16 C11        -0.6650    9.1180   -0.0530 c3        1 2MV     -0.072400
     17 C9         -1.7030    9.1910   -1.1600 c3        1 2MV     -0.045200
     18 C16        -0.2000    4.6590   -1.8680 c3        1 2MV     -0.077400
     19 C15        -1.4550    5.4500   -2.2420 c3        1 2MV     -0.071400
     20 C14        -1.1490    6.8750   -1.8040 c3        1 2MV     -0.038500
     21 C8         -2.2400    7.8570   -1.5700 c2        1 2MV     -0.069400
     22 C7         -3.5370    7.5810   -1.7870 ce        1 2MV     -0.158000
     23 C6         -4.6410    8.4880   -1.5770 ce        1 2MV     -0.106000
     24 C5         -5.8630    8.3580   -2.1330 cf        1 2MV     -0.091200
     25 C10        -6.2350    7.3010   -3.0730 cf        1 2MV     -0.118200
     26 C19        -5.4750    6.9460   -4.1150 c2        1 2MV     -0.182000
     27 C1         -7.5590    6.6270   -2.8110 c3        1 2MV      0.182300
     28 O1         -7.4670    5.7170   -1.7260 oh        1 2MV     -0.588800
     29 C4         -6.9410    9.3420   -1.8320 c3        1 2MV     -0.077200
     30 C3         -8.2680    8.6590   -1.5030 c3        1 2MV      0.145100
     31 O3         -9.3070    9.6280   -1.4220 oh        1 2MV     -0.595800
     32 C2         -8.6690    7.6670   -2.5980 c3        1 2MV     -0.087700
     33 C29        -9.9760    6.9860   -2.2600 c3        1 2MV     -0.087100
     34 HO26        0.4400   -1.0550    0.7450 ho        1 2MV      0.399000
     35 H27         2.8700   -1.4060    1.3170 hc        1 2MV      0.043700
     36 H27A        2.5790    0.2930    1.8750 hc        1 2MV      0.043700
     37 H27B        3.9030   -0.0590    0.6780 hc        1 2MV      0.043700
     38 H28         3.1440   -1.1740   -1.5890 hc        1 2MV      0.043700
     39 H28A        1.9060   -2.2150   -0.7670 hc        1 2MV      0.043700
     40 H28B        1.3910   -1.0490   -2.0550 hc        1 2MV      0.043700
     41 H25         2.9810    1.2340   -1.4200 hc        1 2MV      0.053200
     42 H25A        1.1730    1.4030   -1.4960 hc        1 2MV      0.053200
     43 H23         2.9590    2.2390    0.8880 hc        1 2MV      0.054700
     44 H22         3.4390    4.0500   -0.4820 hc        1 2MV      0.053200
     45 H22A        2.1420    3.6330   -1.6630 hc        1 2MV      0.053200
     46 H24        -0.0430    2.1000    0.4780 h1        1 2MV      0.055700
     47 H24A        0.9220    2.3550    2.0120 h1        1 2MV      0.055700
     48 H21         2.8100    6.4300    0.3980 hc        1 2MV      0.042033
     49 H21A        1.5690    6.2170    1.7130 hc        1 2MV      0.042033
     50 H21B        2.9660    5.0770    1.6040 hc        1 2MV      0.042033
     51 H17         1.4720    6.0400   -1.6260 hc        1 2MV      0.043700
     52 H18        -1.5060    5.2140    0.4840 hc        1 2MV      0.043033
     53 H18A       -1.9920    6.9350    0.7950 hc        1 2MV      0.043033
     54 H18B       -0.5090    6.2420    1.5870 hc        1 2MV      0.043033
     55 H12         1.0180    7.9730    0.6720 hc        1 2MV      0.040700
     56 H12A        1.0540    8.3090   -1.1040 hc        1 2MV      0.040700
     57 H11        -1.1860    8.9470    0.9260 hc        1 2MV      0.041200
     58 H11A       -0.1490   10.1130    0.0170 hc        1 2MV      0.041200
     59 H9         -1.2360    9.6610   -2.0700 hc        1 2MV      0.046200
     60 H9A        -2.5290    9.8730   -0.8270 hc        1 2MV      0.046200
     61 H16         0.3600    4.3580   -2.7880 hc        1 2MV      0.046700
     62 H16A       -0.4750    3.7290   -1.3100 hc        1 2MV      0.046700
     63 H15        -1.6640    5.3960   -3.3370 hc        1 2MV      0.046700
     64 H15A       -2.3460    5.0450   -1.7000 hc        1 2MV      0.046700
     65 H14        -0.4870    7.3290   -2.6030 hc        1 2MV      0.050700
     66 H7         -3.8210    6.5750   -2.1540 ha        1 2MV      0.136000
     67 H6         -4.4600    9.3290   -0.8820 ha        1 2MV      0.122000
     68 H19        -4.5130    7.4310   -4.3300 ha        1 2MV      0.120000
     69 H19A       -5.7720    6.1530   -4.8140 ha        1 2MV      0.120000
     70 H1         -7.8460    5.9660   -3.6810 h1        1 2MV      0.078700
     71 HO1        -7.1340    6.2070   -0.9640 ho        1 2MV      0.401000
     72 H4         -7.0910   10.0040   -2.7290 hc        1 2MV      0.055200
     73 H4A        -6.6480   10.0040   -0.9740 hc        1 2MV      0.055200
     74 H3         -8.1880    8.1210   -0.5150 h1        1 2MV      0.034700
     75 HO3        -9.0440   10.2580   -0.7410 ho        1 2MV      0.399000
     76 H2         -8.7920    8.2430   -3.5570 hc        1 2MV      0.068700
     77 H29       -10.3160    6.3600   -3.1190 hc        1 2MV      0.043367
     78 H29A      -10.7570    7.7520   -2.0340 hc        1 2MV      0.043367
     79 H29B       -9.8490    6.3240   -1.3690 hc        1 2MV      0.043367
@<TRIPOS>BOND
     1    1    2 1   
     2    1   34 1   
     3    2    3 1   
     4    2    4 1   
     5    2    5 1   
     6    3   35 1   
     7    3   36 1   
     8    3   37 1   
     9    4   38 1   
    10    4   39 1   
    11    4   40 1   
    12    5    6 1   
    13    5   41 1   
    14    5   42 1   
    15    6    7 1   
    16    6    8 1   
    17    6   43 1   
    18    7   10 1   
    19    7   44 1   
    20    7   45 1   
    21    8    9 1   
    22    8   46 1   
    23    8   47 1   
    24    9   10 1   
    25   10   11 1   
    26   10   12 1   
    27   11   48 1   
    28   11   49 1   
    29   11   50 1   
    30   12   13 1   
    31   12   18 1   
    32   12   51 1   
    33   13   14 1   
    34   13   15 1   
    35   13   20 1   
    36   14   52 1   
    37   14   53 1   
    38   14   54 1   
    39   15   16 1   
    40   15   55 1   
    41   15   56 1   
    42   16   17 1   
    43   16   57 1   
    44   16   58 1   
    45   17   21 1   
    46   17   59 1   
    47   17   60 1   
    48   18   19 1   
    49   18   61 1   
    50   18   62 1   
    51   19   20 1   
    52   19   63 1   
    53   19   64 1   
    54   20   21 1   
    55   20   65 1   
    56   21   22 2   
    57   22   23 1   
    58   22   66 1   
    59   23   24 2   
    60   23   67 1   
    61   24   25 1   
    62   24   29 1   
    63   25   26 2   
    64   25   27 1   
    65   26   68 1   
    66   26   69 1   
    67   27   28 1   
    68   27   32 1   
    69   27   70 1   
    70   28   71 1   
    71   29   30 1   
    72   29   72 1   
    73   29   73 1   
    74   30   31 1   
    75   30   32 1   
    76   30   74 1   
    77   31   75 1   
    78   32   33 1   
    79   32   76 1   
    80   33   77 1   
    81   33   78 1   
    82   33   79 1   
@<TRIPOS>SUBSTRUCTURE
     1 2MV         1 TEMP              0 ****  ****    0 ROOT
