@<TRIPOS>MOLECULE
2MV
   79    79     1     0     0
SMALL
bcc


@<TRIPOS>ATOM
      1 O26        -6.5880   -1.7490    1.6080 oh        1 2MV     -0.327000
      2 C26        -6.4730   -1.2860    2.9630 c3        1 2MV      0.078000
      3 C27        -6.8830   -2.3650    3.8910 c3        1 2MV     -0.242000
      4 C28        -7.3970   -0.0430    3.1690 c3        1 2MV     -0.242000
      5 C25        -4.9710   -0.8860    3.2560 c3        1 2MV     -0.138000
      6 C23        -4.3030   -0.2850    1.9170 c3        1 2MV     -0.126000
      7 C22        -3.4780    0.6720    2.2140 c3        1 2MV     -0.184000
      8 C24        -3.4090   -1.3870    1.2060 c3        1 2MV     -0.020000
      9 O20        -2.0500   -0.6980    0.9110 os        1 2MV     -0.277000
     10 C20        -2.2650    0.5810    1.1220 c3        1 2MV      0.093000
     11 C21        -2.6780    1.2640   -0.1790 c3        1 2MV     -0.220000
     12 C17        -1.0320    1.2220    1.6660 c3        1 2MV     -0.094000
     13 C13        -0.0340    1.6160    0.4860 c3        1 2MV     -0.033000
     14 C18        -0.4560    0.8080   -0.7180 c3        1 2MV     -0.198000
     15 C12        -0.0160    3.0650    0.0310 c3        1 2MV     -0.147000
     16 C11         0.7820    3.2250   -0.7410 c3        1 2MV     -0.151000
     17 C9          1.9400    2.8040   -0.3220 c3        1 2MV     -0.126000
     18 C16        -0.2870    0.2910    2.4400 c3        1 2MV     -0.156000
     19 C15         0.9330    0.0090    1.5850 c3        1 2MV     -0.150000
     20 C14         1.1250    1.1550    0.8570 c3        1 2MV     -0.080000
     21 C8          1.7240    1.1980    0.3110 c2        1 2MV     -0.070000
     22 C7          2.0500    0.0910   -0.4590 c1        1 2MV     -0.149000
     23 C6          2.6130    0.2790   -1.8980 c1        1 2MV     -0.115000
     24 C5          3.8050   -0.3100   -2.2530 c1        1 2MV     -0.068000
     25 C10         4.4380   -0.1340   -3.7850 c1        1 2MV     -0.080000
     26 C19         4.2260    0.9570   -4.5000 c1        1 2MV     -0.188000
     27 C1          5.2180   -1.2160   -4.2940 c3        1 2MV      0.071000
     28 O1          6.0890   -0.7650   -5.3300 oh        1 2MV     -0.324000
     29 C4          4.5580   -1.1080   -1.3170 c3        1 2MV     -0.114000
     30 C3          5.3800   -2.3550   -2.1060 c3        1 2MV      0.040000
     31 O3          4.3560   -3.3730   -2.5790 oh        1 2MV     -0.323000
     32 C2          6.0560   -2.0130   -3.0790 c3        1 2MV     -0.163000
     33 C29         7.2570   -1.0220   -2.5480 c3        1 2MV     -0.206000
     34 HO26       -7.3770   -2.2120    1.5070 ho        1 2MV      0.198000
     35 H27        -6.5210   -2.1820    4.7900 hc        1 2MV      0.083000
     36 H27A       -6.5400   -3.2140    3.5710 hc        1 2MV      0.083000
     37 H27B       -7.8570   -2.4040    3.9350 hc        1 2MV      0.083000
     38 H28        -8.3260   -0.2660    2.8720 hc        1 2MV      0.083000
     39 H28A       -7.0600    0.6990    2.6470 hc        1 2MV      0.083000
     40 H28B       -7.4090    0.2080    4.1400 hc        1 2MV      0.083000
     41 H25        -4.9450   -0.2190    3.9580 hc        1 2MV      0.092500
     42 H25A       -4.4660   -1.6890    3.5460 hc        1 2MV      0.092500
     43 H23        -5.0030    0.0420    1.2990 hc        1 2MV      0.093000
     44 H22        -3.1270    0.5440    3.1210 hc        1 2MV      0.092500
     45 H22A       -3.9340    1.5480    2.1450 hc        1 2MV      0.092500
     46 H24        -3.2780   -2.1480    1.8000 h1        1 2MV      0.094500
     47 H24A       -3.8260   -1.6740    0.3800 h1        1 2MV      0.094500
     48 H21        -3.6250    1.4630   -0.1530 hc        1 2MV      0.081667
     49 H21A       -2.1710    2.0980   -0.2850 hc        1 2MV      0.081667
     50 H21B       -2.4910    0.6690   -0.9340 hc        1 2MV      0.081667
     51 H17        -1.2600    2.0130    2.2030 hc        1 2MV      0.083000
     52 H18         0.3130    0.6430   -1.2810 hc        1 2MV      0.082000
     53 H18A       -1.1340    1.3090   -1.2280 hc        1 2MV      0.082000
     54 H18B       -0.8330   -0.0450   -0.4240 hc        1 2MV      0.082000
     55 H12        -0.8850    3.2940   -0.3500 hc        1 2MV      0.078500
     56 H12A        0.1620    3.6480    0.8070 hc        1 2MV      0.078500
     57 H11         0.5430    2.7430   -1.5490 hc        1 2MV      0.080000
     58 H11A        0.8420    4.1650   -0.9420 hc        1 2MV      0.080000
     59 H9          2.6590    2.9150   -0.9940 hc        1 2MV      0.085500
     60 H9A         2.2720    3.3780    0.3970 hc        1 2MV      0.085500
     61 H16        -0.0250    0.6880    3.2960 hc        1 2MV      0.085000
     62 H16A       -0.8030   -0.5280    2.5810 hc        1 2MV      0.085000
     63 H15         0.7670   -0.7370    0.9980 hc        1 2MV      0.085000
     64 H15A        1.7050   -0.1660    2.1460 hc        1 2MV      0.085000
     65 H14         1.4190    1.8090    1.5470 hc        1 2MV      0.089000
     66 H7          1.9290   -0.7940   -0.1020 ha        1 2MV      0.133000
     67 H6          2.1080    0.8250   -2.5650 ha        1 2MV      0.127000
     68 H19         4.6040    1.0340   -5.3860 DU        1 2MV      0.133000
     69 H19A        3.6860    1.6890   -4.1310 ha        1 2MV      0.112000
     70 H1          4.6550   -1.8520   -4.7890 h1        1 2MV      0.094000
     71 HO1         6.0730   -1.3610   -6.0210 ho        1 2MV      0.198000
     72 H4          4.1330   -1.4190   -0.4890 hc        1 2MV      0.102500
     73 H4A         5.2100   -0.4890   -0.9440 hc        1 2MV      0.102500
     74 H3          5.9800   -2.7960   -1.4500 h1        1 2MV      0.071000
     75 HO3         4.6410   -4.1770   -2.3990 ho        1 2MV      0.195000
     76 H2          6.4650   -2.8110   -3.4640 hc        1 2MV      0.077000
     77 H29         8.0690   -1.1660   -3.0960 hc        1 2MV      0.082000
     78 H29A        7.4550   -1.2240   -1.6120 hc        1 2MV      0.082000
     79 H29B        6.9720   -0.0930   -2.6270 hc        1 2MV      0.082000
@<TRIPOS>BOND
     1    1    2 1   
     2    1   34 1   
     3    2    3 1   
     4    2    4 1   
     5    2    5 1   
     6    3   35 1   
     7    3   36 1   
     8    3   37 1   
     9    4   38 1   
    10    4   39 1   
    11    4   40 1   
    12    5    6 1   
    13    5   41 1   
    14    5   42 1   
    15    6    7 1   
    16    6    8 1   
    17    6   43 1   
    18    7   10 1   
    19    7   44 1   
    20    7   45 1   
    21    8    9 1   
    22    8   46 1   
    23    8   47 1   
    24    9   10 1   
    25   10   11 1   
    26   10   12 1   
    27   11   48 1   
    28   11   49 1   
    29   11   50 1   
    30   12   13 1   
    31   12   18 1   
    32   12   51 1   
    33   13   14 1   
    34   13   15 1   
    35   13   20 1   
    36   14   52 1   
    37   14   53 1   
    38   14   54 1   
    39   15   16 1   
    40   15   55 1   
    41   15   56 1   
    42   16   17 1   
    43   16   57 1   
    44   16   58 1   
    45   17   21 1   
    46   17   59 1   
    47   17   60 1   
    48   18   19 1   
    49   18   61 1   
    50   18   62 1   
    51   19   20 1   
    52   19   63 1   
    53   19   64 1   
    54   20   21 1   
    55   20   65 1   
    56   21   22 1   
    57   22   66 1   
    58   23   24 1   
    59   23   67 1   
    60   24   29 1   
    61   25   26 1   
    62   25   27 1   
    63   26   69 1   
    64   27   28 1   
    65   27   32 1   
    66   27   70 1   
    67   28   71 1   
    68   29   30 1   
    69   29   72 1   
    70   29   73 1   
    71   30   31 1   
    72   30   32 1   
    73   30   74 1   
    74   31   75 1   
    75   32   33 1   
    76   32   76 1   
    77   33   77 1   
    78   33   78 1   
    79   33   79 1   
@<TRIPOS>SUBSTRUCTURE
     1 2MV         1 TEMP              0 ****  ****    0 ROOT
