@<TRIPOS>MOLECULE
2MY
   19    19     1     0     0
SMALL
bcc


@<TRIPOS>ATOM
      1 C8          0.0310   -0.1360   -0.0440 c3        1 2MY     -0.048300
      2 C6          1.5100   -0.0680   -0.0280 ca        1 2MY     -0.126300
      3 C5          2.2000    0.0240    1.1860 ca        1 2MY     -0.101000
      4 C4          3.5900    0.0880    1.2100 ca        1 2MY     -0.159000
      5 C3          4.3150    0.0630    0.0190 ca        1 2MY     -0.101000
      6 C2          3.6630   -0.0270   -1.2110 ca        1 2MY     -0.126300
      7 C7          4.4130   -0.0560   -2.4860 c3        1 2MY     -0.048300
      8 C1          2.2530   -0.0920   -1.2220 ca        1 2MY      0.122100
      9 O1          1.6700   -0.1800   -2.4670 oh        1 2MY     -0.499100
     10 H8         -0.3840   -0.1040    0.9940 hc        1 2MY      0.045200
     11 H8A        -0.3140   -1.0860   -0.5260 hc        1 2MY      0.045200
     12 H8B        -0.3970    0.7260   -0.6150 hc        1 2MY      0.045200
     13 H5          1.6340    0.0440    2.1290 ha        1 2MY      0.132500
     14 H4          4.1190    0.1600    2.1710 ha        1 2MY      0.132000
     15 H3          5.4140    0.1150    0.0450 ha        1 2MY      0.132500
     16 H7          4.1020    0.8040   -3.1310 hc        1 2MY      0.045200
     17 H7A         5.5140    0.0040   -2.3120 hc        1 2MY      0.045200
     18 H7B         4.1850   -0.9990   -3.0430 hc        1 2MY      0.045200
     19 HO1         0.7100   -0.2190   -2.3530 ho        1 2MY      0.419000
@<TRIPOS>BOND
     1    1    2 1   
     2    1   10 1   
     3    1   11 1   
     4    1   12 1   
     5    2    3 ar  
     6    2    8 ar  
     7    3    4 ar  
     8    3   13 1   
     9    4    5 ar  
    10    4   14 1   
    11    5    6 ar  
    12    5   15 1   
    13    6    7 1   
    14    6    8 ar  
    15    7   16 1   
    16    7   17 1   
    17    7   18 1   
    18    8    9 1   
    19    9   19 1   
@<TRIPOS>SUBSTRUCTURE
     1 2MY         1 TEMP              0 ****  ****    0 ROOT
