@<TRIPOS>MOLECULE
2MY
   19    17     1     0     0
SMALL
bcc


@<TRIPOS>ATOM
      1 C8         -2.5390   -0.0400    0.6240 c3        1 2MY     -0.180000
      2 C6         -1.0260   -0.0400    0.6240 c2        1 2MY     -0.148000
      3 C5         -0.3330   -0.0400    1.8250 c2        1 2MY     -0.098000
      4 C4          1.0530   -0.0400    1.8250 c1        1 2MY     -0.159000
      5 C3          1.7460   -0.0400    0.6250 c1        1 2MY     -0.104000
      6 C2          1.0540   -0.0400   -0.5760 c1        1 2MY     -0.090000
      7 C7          1.8100   -0.0750   -1.8850 c2        1 2MY     -0.167000
      8 C1         -0.3330   -0.0400   -0.5760 c2        1 2MY      0.077000
      9 O1         -1.0350    0.0010   -1.7940 oh        1 2MY     -0.253000
     10 H8         -2.8640   -0.7590    0.0490 hc        1 2MY      0.083667
     11 H8A        -2.8640    0.8170    0.2900 hc        1 2MY      0.083667
     12 H8B        -2.8640   -0.1790    1.5340 hc        1 2MY      0.083667
     13 H5         -0.8210   -0.0400    2.6700 ha        1 2MY      0.131000
     14 H4          1.5410   -0.0400    2.6710 ha        1 2MY      0.132000
     15 H3          2.7220   -0.0400    0.6250 ha        1 2MY      0.134000
     16 H7          1.4750   -0.8090   -2.4350 ha        1 2MY      0.085333
     17 H7A         1.6820    0.7700   -2.3570 ha        1 2MY      0.085333
     18 H7B         2.7610   -0.2090   -1.7090 ha        1 2MY      0.085333
     19 HO1        -1.1670    0.8470   -2.0310 ho        1 2MY      0.218000
@<TRIPOS>BOND
     1    1    2 1   
     2    1   10 1   
     3    1   11 1   
     4    1   12 1   
     5    2    3 1   
     6    2    8 1   
     7    3    4 1   
     8    3   13 1   
     9    4   14 1   
    10    5    6 1   
    11    5   15 1   
    12    6    8 1   
    13    7   16 1   
    14    7   17 1   
    15    7   18 1   
    16    8    9 1   
    17    9   19 1   
@<TRIPOS>SUBSTRUCTURE
     1 2MY         1 TEMP              0 ****  ****    0 ROOT
