@<TRIPOS>MOLECULE
2MY
   19    19     1     0     0
SMALL
bcc


@<TRIPOS>ATOM
      1 C8          2.4590   -0.7640    0.0520 c3        1 2MY     -0.048300
      2 C6          1.1850   -0.0110    0.0320 ca        1 2MY     -0.126300
      3 C5          1.1900    1.3870   -0.0210 ca        1 2MY     -0.101000
      4 C4         -0.0040    2.1030   -0.0400 ca        1 2MY     -0.159000
      5 C3         -1.2260    1.4320   -0.0070 ca        1 2MY     -0.101000
      6 C2         -1.2720    0.0380    0.0460 ca        1 2MY     -0.126300
      7 C7         -2.5580   -0.6930    0.0820 c3        1 2MY     -0.048300
      8 C1         -0.0550   -0.6760    0.0650 ca        1 2MY      0.122100
      9 O1         -0.1690   -2.0480    0.1180 oh        1 2MY     -0.499100
     10 H8          2.5380   -1.3800    0.9840 hc        1 2MY      0.045200
     11 H8A         2.5260   -1.4480   -0.8310 hc        1 2MY      0.045200
     12 H8B         3.3350   -0.0710    0.0200 hc        1 2MY      0.045200
     13 H5          2.1510    1.9230   -0.0480 ha        1 2MY      0.132500
     14 H4          0.0160    3.2010   -0.0820 ha        1 2MY      0.132000
     15 H3         -2.1660    2.0030   -0.0220 ha        1 2MY      0.132500
     16 H7         -2.6290   -1.3840   -0.7950 hc        1 2MY      0.045200
     17 H7A        -2.6170   -1.3160    1.0100 hc        1 2MY      0.045200
     18 H7B        -3.4260    0.0080    0.0620 hc        1 2MY      0.045200
     19 HO1         0.7210   -2.4290    0.1260 ho        1 2MY      0.419000
@<TRIPOS>BOND
     1    1    2 1   
     2    1   10 1   
     3    1   11 1   
     4    1   12 1   
     5    2    3 ar  
     6    2    8 ar  
     7    3    4 ar  
     8    3   13 1   
     9    4    5 ar  
    10    4   14 1   
    11    5    6 ar  
    12    5   15 1   
    13    6    7 1   
    14    6    8 ar  
    15    7   16 1   
    16    7   17 1   
    17    7   18 1   
    18    8    9 1   
    19    9   19 1   
@<TRIPOS>SUBSTRUCTURE
     1 2MY         1 TEMP              0 ****  ****    0 ROOT
