@<TRIPOS>MOLECULE
2MZ
   12    12     1     0     0
SMALL
bcc


@<TRIPOS>ATOM
      1 N1          1.0790    0.1110   -0.1310 na        1 2MZ     -0.319900
      2 C2         -0.0710   -0.0250    0.6710 cc        1 2MZ      0.392800
      3 N3         -1.1800   -0.1530   -0.1060 nd        1 2MZ     -0.665000
      4 C4         -0.7360   -0.0990   -1.4230 cd        1 2MZ      0.292200
      5 C5          0.6620    0.0640   -1.4580 cc        1 2MZ     -0.260600
      6 C6         -0.0180   -0.0210    2.1530 c3        1 2MZ     -0.124400
      7 HN1         2.0030    0.2180    0.1900 hn        1 2MZ      0.297700
      8 H4         -1.4280   -0.1780   -2.2590 h4        1 2MZ      0.041100
      9 H5          1.3550    0.1460   -2.2920 h4        1 2MZ      0.175000
     10 H61         0.4100    0.9440    2.5220 hc        1 2MZ      0.056700
     11 H62        -1.0460   -0.1410    2.5760 hc        1 2MZ      0.056700
     12 H63         0.6210   -0.8630    2.5190 hc        1 2MZ      0.056700
@<TRIPOS>BOND
     1    1    2 1   
     2    1    5 1   
     3    1    7 1   
     4    2    3 2   
     5    2    6 1   
     6    3    4 1   
     7    4    5 2   
     8    4    8 1   
     9    5    9 1   
    10    6   10 1   
    11    6   11 1   
    12    6   12 1   
@<TRIPOS>SUBSTRUCTURE
     1 2MZ         1 TEMP              0 ****  ****    0 ROOT
