@<TRIPOS>MOLECULE
2MZ
   12    12     1     0     0
SMALL
bcc


@<TRIPOS>ATOM
      1 N1         -0.0160   -0.0000   -0.0110 na        1 2MZ     -0.319900
      2 C2          1.3920   -0.0010    0.0140 cc        1 2MZ      0.392800
      3 N3          1.8450    0.0030    1.2960 nd        1 2MZ     -0.665000
      4 C4          0.7140    0.0060    2.1040 cd        1 2MZ      0.292200
      5 C5         -0.4500    0.0040    1.3120 cc        1 2MZ     -0.260600
      6 C6          2.2140   -0.0050   -1.2210 c3        1 2MZ     -0.124400
      7 HN1        -0.5850   -0.0030   -0.8140 hn        1 2MZ      0.297700
      8 H4          0.7920    0.0090    3.1910 h4        1 2MZ      0.041100
      9 H5         -1.5030    0.0050    1.5820 h4        1 2MZ      0.175000
     10 H61         1.9920   -0.9170   -1.8300 hc        1 2MZ      0.056700
     11 H62         3.3010   -0.0050   -0.9610 hc        1 2MZ      0.056700
     12 H63         1.9930    0.9030   -1.8360 hc        1 2MZ      0.056700
@<TRIPOS>BOND
     1    1    2 1   
     2    1    5 1   
     3    1    7 1   
     4    2    3 2   
     5    2    6 1   
     6    3    4 1   
     7    4    5 2   
     8    4    8 1   
     9    5    9 1   
    10    6   10 1   
    11    6   11 1   
    12    6   12 1   
@<TRIPOS>SUBSTRUCTURE
     1 2MZ         1 TEMP              0 ****  ****    0 ROOT
