@<TRIPOS>MOLECULE
2MZ
   12     8     1     0     0
SMALL
bcc


@<TRIPOS>ATOM
      1 N1         -0.9820    0.0000   -0.2360 n2        1 2MZ     -0.172500
      2 C2          0.3740    0.0000   -0.2360 c1        1 2MZ     -0.053000
      3 N3          0.7930    0.0000    1.0530 n2        1 2MZ     -0.172500
      4 C4         -0.2870    0.0000    1.8390 c1        1 2MZ     -0.172000
      5 C5         -1.3950    0.0000    1.0340 c1        1 2MZ     -0.172000
      6 C6          1.2630   -0.0000   -1.4600 c2        1 2MZ     -0.148000
      7 HN1        -1.5180    0.0000   -0.9740 DU        1 2MZ      0.200333
      8 H4         -0.2870    0.0000    2.8150 DU        1 2MZ      0.200333
      9 H5         -2.3230    0.0000    1.3360 DU        1 2MZ      0.200333
     10 H61         2.1980   -0.0000   -1.1830 ha        1 2MZ      0.096000
     11 H62         1.0810    0.7970   -1.9940 ha        1 2MZ      0.096000
     12 H63         1.0810   -0.7970   -1.9940 ha        1 2MZ      0.096000
@<TRIPOS>BOND
     1    1    2 1   
     2    1    5 1   
     3    2    3 1   
     4    3    4 1   
     5    4    5 1   
     6    6   10 1   
     7    6   11 1   
     8    6   12 1   
@<TRIPOS>SUBSTRUCTURE
     1 2MZ         1 TEMP              0 ****  ****    0 ROOT
