@<TRIPOS>MOLECULE
2N0
   38    40     1     0     0
SMALL
bcc


@<TRIPOS>ATOM
      1 O          -0.2390    0.2060    0.1370 o         1 2N0     -0.550100
      2 C16         0.9970    0.1370    0.1240 c         1 2N0      0.611700
      3 C4          1.8220    0.0570    1.3120 cc        1 2N0     -0.248600
      4 C3          1.4610    0.1260    2.6960 cc        1 2N0     -0.119000
      5 C15         1.7690    0.1670   -1.1750 c3        1 2N0     -0.180400
      6 C14         3.0420   -0.6520   -1.1330 c3        1 2N0     -0.067400
      7 C13         3.9820   -0.2300   -0.0150 c3        1 2N0     -0.017100
      8 C5          3.2250   -0.1150    1.2510 cd        1 2N0     -0.051600
      9 N           3.7220   -0.1610    2.5470 na        1 2N0     -0.043100
     10 C2          2.6410   -0.0000    3.4420 cd        1 2N0     -0.135600
     11 C1          2.7670    0.0040    4.9170 c3        1 2N0     -0.013100
     12 C           2.8450   -1.3890    5.4950 c3        1 2N0     -0.093100
     13 C6          5.1060   -0.2790    2.9130 c3        1 2N0      0.079600
     14 C7          5.9120    0.9880    2.8540 ca        1 2N0     -0.116300
     15 C12         5.4210    2.1890    3.3730 ca        1 2N0     -0.116000
     16 C11         6.2100    3.3390    3.3450 ca        1 2N0     -0.128500
     17 C10         7.4950    3.2930    2.8040 ca        1 2N0     -0.122000
     18 C9          7.9890    2.0960    2.2870 ca        1 2N0     -0.128500
     19 C8          7.2000    0.9470    2.3090 ca        1 2N0     -0.116000
     20 H1          0.4550    0.2530    3.0860 ha        1 2N0      0.166000
     21 H2          2.0130    1.2420   -1.3920 hc        1 2N0      0.069200
     22 H3          1.1100   -0.2050   -2.0030 hc        1 2N0      0.069200
     23 H4          3.5780   -0.5480   -2.1140 hc        1 2N0      0.049200
     24 H5          2.7800   -1.7350   -1.0050 hc        1 2N0      0.049200
     25 H6          4.4460    0.7650   -0.2580 hc        1 2N0      0.056700
     26 H7          4.8160   -0.9760    0.0760 hc        1 2N0      0.056700
     27 H8          3.6690    0.5950    5.2350 hc        1 2N0      0.052700
     28 H9          1.8640    0.5290    5.3340 hc        1 2N0      0.052700
     29 H10         1.9420   -1.9830    5.2120 hc        1 2N0      0.037700
     30 H11         3.7480   -1.9290    5.1190 hc        1 2N0      0.037700
     31 H12         2.9010   -1.3370    6.6090 hc        1 2N0      0.037700
     32 H13         5.1530   -0.6740    3.9720 h1        1 2N0      0.070200
     33 H14         5.5760   -1.0490    2.2320 h1        1 2N0      0.070200
     34 H15         4.4070    2.2320    3.8010 ha        1 2N0      0.137500
     35 H16         5.8160    4.2820    3.7510 ha        1 2N0      0.135000
     36 H17         8.1170    4.2000    2.7840 ha        1 2N0      0.135000
     37 H18         9.0020    2.0570    1.8600 ha        1 2N0      0.135000
     38 H19         7.5950    0.0060    1.8960 ha        1 2N0      0.137500
@<TRIPOS>BOND
     1    1    2 2   
     2    2    3 1   
     3    2    5 1   
     4    3    4 1   
     5    3    8 2   
     6    4   10 2   
     7    4   20 1   
     8    5    6 1   
     9    5   21 1   
    10    5   22 1   
    11    6    7 1   
    12    6   23 1   
    13    6   24 1   
    14    7    8 1   
    15    7   25 1   
    16    7   26 1   
    17    8    9 1   
    18    9   10 1   
    19    9   13 1   
    20   10   11 1   
    21   11   12 1   
    22   11   27 1   
    23   11   28 1   
    24   12   29 1   
    25   12   30 1   
    26   12   31 1   
    27   13   14 1   
    28   13   32 1   
    29   13   33 1   
    30   14   15 ar  
    31   14   19 ar  
    32   15   16 ar  
    33   15   34 1   
    34   16   17 ar  
    35   16   35 1   
    36   17   18 ar  
    37   17   36 1   
    38   18   19 ar  
    39   18   37 1   
    40   19   38 1   
@<TRIPOS>SUBSTRUCTURE
     1 2N0         1 TEMP              0 ****  ****    0 ROOT
