@<TRIPOS>MOLECULE
2N0
   38    40     1     0     0
SMALL
bcc


@<TRIPOS>ATOM
      1 O          -0.2620    0.2180    0.1900 o         1 2N0     -0.550100
      2 C16         0.9730    0.1490    0.1620 c         1 2N0      0.611700
      3 C4          1.8130    0.0610    1.3390 cc        1 2N0     -0.248600
      4 C3          1.4680    0.1200    2.7280 cc        1 2N0     -0.119000
      5 C15         1.7300    0.1880   -1.1460 c3        1 2N0     -0.180400
      6 C14         3.0030   -0.6300   -1.1260 c3        1 2N0     -0.067400
      7 C13         3.9570   -0.2160   -0.0160 c3        1 2N0     -0.017100
      8 C5          3.2150   -0.1100    1.2600 cd        1 2N0     -0.051600
      9 N           3.7270   -0.1650    2.5500 na        1 2N0     -0.043100
     10 C2          2.6580   -0.0110    3.4590 cd        1 2N0     -0.135600
     11 C1          2.8010   -0.0170    4.9320 c3        1 2N0     -0.013100
     12 C           2.8860   -1.4150    5.4990 c3        1 2N0     -0.093100
     13 C6          5.1160   -0.2850    2.8980 c3        1 2N0      0.079600
     14 C7          5.9210    0.9830    2.8380 ca        1 2N0     -0.116300
     15 C12         5.4360    2.1800    3.3720 ca        1 2N0     -0.116000
     16 C11         6.2240    3.3300    3.3420 ca        1 2N0     -0.128500
     17 C10         7.5020    3.2890    2.7840 ca        1 2N0     -0.122000
     18 C9          7.9900    2.0950    2.2520 ca        1 2N0     -0.128500
     19 C8          7.2020    0.9460    2.2750 ca        1 2N0     -0.116000
     20 H1          0.4670    0.2440    3.1310 ha        1 2N0      0.166000
     21 H2          1.0610   -0.1780   -1.9690 hc        1 2N0      0.069200
     22 H3          1.9710    1.2650   -1.3580 hc        1 2N0      0.069200
     23 H4          2.7430   -1.7140   -1.0020 hc        1 2N0      0.049200
     24 H5          3.5270   -0.5190   -2.1120 hc        1 2N0      0.049200
     25 H6          4.7920   -0.9620    0.0590 hc        1 2N0      0.056700
     26 H7          4.4170    0.7810   -0.2580 hc        1 2N0      0.056700
     27 H8          3.7070    0.5720    5.2430 hc        1 2N0      0.052700
     28 H9          1.9030    0.5040    5.3640 hc        1 2N0      0.052700
     29 H10         3.7850   -1.9510    5.1090 hc        1 2N0      0.037700
     30 H11         2.9570   -1.3710    6.6120 hc        1 2N0      0.037700
     31 H12         1.9800   -2.0070    5.2230 hc        1 2N0      0.037700
     32 H13         5.5780   -1.0500    2.2070 h1        1 2N0      0.070200
     33 H14         5.1760   -0.6870    3.9540 h1        1 2N0      0.070200
     34 H15         4.4270    2.2190    3.8130 ha        1 2N0      0.137500
     35 H16         5.8360    4.2700    3.7590 ha        1 2N0      0.135000
     36 H17         8.1230    4.1960    2.7620 ha        1 2N0      0.135000
     37 H18         8.9970    2.0600    1.8110 ha        1 2N0      0.135000
     38 H19         7.5920    0.0080    1.8510 ha        1 2N0      0.137500
@<TRIPOS>BOND
     1    1    2 2   
     2    2    3 1   
     3    2    5 1   
     4    3    4 1   
     5    3    8 2   
     6    4   10 2   
     7    4   20 1   
     8    5    6 1   
     9    5   21 1   
    10    5   22 1   
    11    6    7 1   
    12    6   23 1   
    13    6   24 1   
    14    7    8 1   
    15    7   25 1   
    16    7   26 1   
    17    8    9 1   
    18    9   10 1   
    19    9   13 1   
    20   10   11 1   
    21   11   12 1   
    22   11   27 1   
    23   11   28 1   
    24   12   29 1   
    25   12   30 1   
    26   12   31 1   
    27   13   14 1   
    28   13   32 1   
    29   13   33 1   
    30   14   15 ar  
    31   14   19 ar  
    32   15   16 ar  
    33   15   34 1   
    34   16   17 ar  
    35   16   35 1   
    36   17   18 ar  
    37   17   36 1   
    38   18   19 ar  
    39   18   37 1   
    40   19   38 1   
@<TRIPOS>SUBSTRUCTURE
     1 2N0         1 TEMP              0 ****  ****    0 ROOT
