@<TRIPOS>MOLECULE
2N2
   62    65     1     0     0
SMALL
bcc


@<TRIPOS>ATOM
      1 C11        -0.1530   -0.0190   -0.0640 ca        1 2N2     -0.052000
      2 C12         1.2310   -0.1210    0.0310 ca        1 2N2     -0.209500
      3 C13         1.8390   -0.1660    1.2960 ca        1 2N2      0.140100
      4 C14         1.0800   -0.1290    2.4730 ca        1 2N2     -0.210500
      5 C15        -2.7960    1.6040    0.6500 ca        1 2N2      0.000700
      6 C16        -2.6610    2.5940    1.6350 ca        1 2N2     -0.124000
      7 C17        -3.0070    3.9180    1.3980 ca        1 2N2     -0.129000
      8 C18        -3.5130    4.2710    0.1320 ca        1 2N2     -0.068400
      9 C19        -3.6340    3.2830   -0.8710 ca        1 2N2     -0.112000
     10 C20        -3.2770    1.9600   -0.6200 ca        1 2N2     -0.109600
     11 C21        -3.4760    1.0000   -1.8040 c         1 2N2      0.915200
     12 C01        -5.0630   -1.0120    3.4450 ca        1 2N2     -0.209500
     13 C02        -4.4380   -0.6200    2.2670 ca        1 2N2     -0.052000
     14 C03        -3.0870   -0.2540    2.2530 ca        1 2N2     -0.151800
     15 C04        -2.3620   -0.3220    3.4530 ca        1 2N2      0.141600
     16 C05        -2.9600   -0.7150    4.6580 ca        1 2N2     -0.210500
     17 C06        -4.3190   -1.0500    4.6370 ca        1 2N2      0.140100
     18 C07        -2.4250    0.1830    0.9840 c3        1 2N2      0.067200
     19 C08        -0.9390    0.0500    1.0920 ca        1 2N2     -0.151800
     20 C09        -0.3100   -0.0240    2.3430 ca        1 2N2      0.141600
     21 O10        -1.0160    0.0180    3.5460 os        1 2N2     -0.244200
     22 O22        -4.4410    1.2670   -2.5680 o         1 2N2     -0.800800
     23 O23        -2.6600    0.0530   -1.9530 o         1 2N2     -0.800800
     24 N24        -3.9150    5.5860   -0.2240 n         1 2N2     -0.295100
     25 C25        -4.2650    6.5660    0.6320 c         1 2N2      0.300400
     26 N26        -4.9700    7.7760   -0.0400 n4        1 2N2     -0.653800
     27 C27        -6.2490    7.4140   -0.7060 c3        1 2N2      0.087800
     28 C28        -7.0880    8.6310   -1.0770 c3        1 2N2     -0.104400
     29 C29        -8.3510    8.1760   -1.7800 c3        1 2N2     -0.080400
     30 C30        -9.2310    9.3610   -2.1180 c3        1 2N2     -0.073400
     31 O31         3.2050   -0.2540    1.4560 oh        1 2N2     -0.500600
     32 O32        -4.9960   -1.4340    5.7720 oh        1 2N2     -0.500600
     33 C33       -10.4630    8.9170   -2.8760 c3        1 2N2     -0.207400
     34 S34        -4.0710    6.7960    2.1730 s         1 2N2     -0.279400
     35 C35       -11.3670   10.0760   -3.1710 c         1 2N2      0.562900
     36 O36       -11.9490   10.2110   -4.2460 o         1 2N2     -0.506100
     37 H1         -0.6600    0.0060   -1.0510 ha        1 2N2      0.179500
     38 H2          1.8450   -0.1730   -0.8790 ha        1 2N2      0.143500
     39 H3          1.5580   -0.1820    3.4580 ha        1 2N2      0.154500
     40 H5         -2.2680    2.3100    2.6270 ha        1 2N2      0.152000
     41 H6         -2.8820    4.6660    2.1970 ha        1 2N2      0.153000
     42 H7         -4.0390    3.5090   -1.8750 ha        1 2N2      0.163000
     43 H8         -6.1240   -1.2970    3.4600 ha        1 2N2      0.143500
     44 H9         -5.0100   -0.5940    1.3250 ha        1 2N2      0.179500
     45 H10        -2.3680   -0.7590    5.5800 ha        1 2N2      0.154500
     46 H12        -4.0960    5.6840   -1.2080 hn        1 2N2      0.331500
     47 H13        -5.1530    8.4370    0.7380 hn        1 2N2      0.447800
     48 H14        -6.8300    6.7510    0.0000 hx        1 2N2      0.106700
     49 H15        -6.0190    6.8190   -1.6360 hx        1 2N2      0.106700
     50 H16        -7.3600    9.2110   -0.1550 hc        1 2N2      0.061700
     51 H17        -6.5100    9.3150   -1.7530 hc        1 2N2      0.061700
     52 H18        -8.0850    7.6250   -2.7200 hc        1 2N2      0.060700
     53 H19        -8.9170    7.4620   -1.1230 hc        1 2N2      0.060700
     54 H20        -9.5340    9.8870   -1.1730 hc        1 2N2      0.048700
     55 H21        -8.6530   10.0960   -2.7390 hc        1 2N2      0.048700
     56 H22        -4.3590   -1.4690    6.5010 ho        1 2N2      0.418500
     57 H23       -11.0450    8.1740   -2.2650 hc        1 2N2      0.078700
     58 H24       -10.1680    8.4060   -3.8310 hc        1 2N2      0.078700
     59 H25       -11.4890   10.8090   -2.3420 h4        1 2N2     -0.003800
     60 H4         -2.7770   -0.4840    0.1330 hc        1 2N2      0.143700
     61 H26         3.6000   -0.3230    0.5750 ho        1 2N2      0.418500
     62 H262       -4.3520    8.2350   -0.7150 hn        1 2N2      0.447800
@<TRIPOS>BOND
     1    1    2 ar  
     2    1   19 ar  
     3    1   37 1   
     4    2    3 ar  
     5    2   38 1   
     6    3    4 ar  
     7    3   31 1   
     8    4   20 ar  
     9    4   39 1   
    10    5    6 ar  
    11    5   10 ar  
    12    5   18 1   
    13    6    7 ar  
    14    6   40 1   
    15    7    8 ar  
    16    7   41 1   
    17    8    9 ar  
    18    8   24 1   
    19    9   10 ar  
    20    9   42 1   
    21   10   11 1   
    22   11   22 1   
    23   11   23 1   
    24   12   13 ar  
    25   12   17 ar  
    26   12   43 1   
    27   13   14 ar  
    28   13   44 1   
    29   14   15 ar  
    30   14   18 1   
    31   15   16 ar  
    32   15   21 1   
    33   16   17 ar  
    34   16   45 1   
    35   17   32 1   
    36   18   19 1   
    37   18   60 1   
    38   19   20 ar  
    39   20   21 1   
    40   24   25 1   
    41   24   46 1   
    42   25   26 1   
    43   25   34 2   
    44   26   27 1   
    45   26   47 1   
    46   26   62 1   
    47   27   28 1   
    48   27   48 1   
    49   27   49 1   
    50   28   29 1   
    51   28   50 1   
    52   28   51 1   
    53   29   30 1   
    54   29   52 1   
    55   29   53 1   
    56   30   33 1   
    57   30   54 1   
    58   30   55 1   
    59   31   61 1   
    60   32   56 1   
    61   33   35 1   
    62   33   57 1   
    63   33   58 1   
    64   35   36 2   
    65   35   59 1   
@<TRIPOS>SUBSTRUCTURE
     1 2N2         1 TEMP              0 ****  ****    0 ROOT
