@<TRIPOS>MOLECULE
2N2
   61    64     1     0     0
SMALL
bcc


@<TRIPOS>ATOM
      1 C11         0.2520    0.8360    0.4090 ca        1 2N2     -0.050500
      2 C12         1.4970    1.3950    0.6760 ca        1 2N2     -0.211000
      3 C13         1.8640    1.6690    2.0020 ca        1 2N2      0.127600
      4 C14         1.0100    1.3790    3.0710 ca        1 2N2     -0.214500
      5 C15        -2.8730    1.0000    0.4970 ca        1 2N2     -0.062300
      6 C16        -3.3640    2.0650    1.2570 ca        1 2N2     -0.124000
      7 C17        -4.1920    3.0400    0.7070 ca        1 2N2     -0.142000
      8 C18        -4.5630    2.9460   -0.6450 ca        1 2N2      0.003600
      9 C19        -4.0740    1.8640   -1.4120 ca        1 2N2     -0.145000
     10 C20        -3.2230    0.9080   -0.8590 ca        1 2N2     -0.100600
     11 C21        -2.7310   -0.1890   -1.7990 c         1 2N2      0.908200
     12 C01        -4.3200   -1.9880    3.4050 ca        1 2N2     -0.211000
     13 C02        -3.7130   -1.4570    2.2720 ca        1 2N2     -0.050500
     14 C03        -2.6150   -0.5940    2.3750 ca        1 2N2     -0.132800
     15 C04        -2.1240   -0.2870    3.6530 ca        1 2N2      0.140600
     16 C05        -2.7120   -0.8060    4.8160 ca        1 2N2     -0.214500
     17 C06        -3.8160   -1.6530    4.6720 ca        1 2N2      0.127600
     18 C07        -1.9830   -0.0270    1.1430 c3        1 2N2      0.072200
     19 C08        -0.6390    0.5550    1.4530 ca        1 2N2     -0.132800
     20 C09        -0.2400    0.8180    2.7700 ca        1 2N2      0.140600
     21 O10        -1.0430    0.5570    3.8780 os        1 2N2     -0.245200
     22 O22        -3.5740   -0.7020   -2.5840 o         1 2N2     -0.823800
     23 O23        -1.5070   -0.5080   -1.7690 o         1 2N2     -0.823800
     24 N24        -5.3540    3.9130   -1.3170 n         1 2N2     -0.391100
     25 C25        -6.3860    4.6640   -0.7850 c         1 2N2      0.569400
     26 N26        -7.2910    5.1980   -1.7200 n         1 2N2     -0.520900
     27 C27        -8.1330    6.3140   -1.3810 c3        1 2N2      0.064000
     28 C28        -7.6190    7.6750   -1.8570 c3        1 2N2     -0.109400
     29 C29        -8.6010    8.7580   -1.4690 c3        1 2N2     -0.074400
     30 C30        -8.1040   10.1220   -1.9000 c3        1 2N2     -0.076400
     31 O31         3.0850    2.2280    2.3280 oh        1 2N2     -0.509600
     32 O32        -4.4570   -2.2080    5.7610 oh        1 2N2     -0.509600
     33 C33        -9.0840   11.2060   -1.5080 c3        1 2N2     -0.203400
     34 S34        -6.5980    4.9670    0.8000 s         1 2N2     -0.601400
     35 C35        -8.5850   12.5660   -1.8840 c         1 2N2      0.566900
     36 O36        -9.3330   13.5010   -2.1710 o         1 2N2     -0.536100
     37 H1         -0.0650    0.5940   -0.6280 ha        1 2N2      0.187500
     38 H2          2.1900    1.6170   -0.1470 ha        1 2N2      0.137000
     39 H3          1.3040    1.5850    4.1070 ha        1 2N2      0.146500
     40 H5         -3.0890    2.1390    2.3220 ha        1 2N2      0.129000
     41 H6         -4.5640    3.8650    1.3390 ha        1 2N2      0.170000
     42 H7         -4.3580    1.7310   -2.4700 ha        1 2N2      0.146000
     43 H8         -5.1850   -2.6590    3.3250 ha        1 2N2      0.137000
     44 H9         -4.1020   -1.7070    1.2710 ha        1 2N2      0.187500
     45 H10        -2.3090   -0.5440    5.8010 ha        1 2N2      0.146500
     46 H12        -5.3510    3.7690   -2.3100 hn        1 2N2      0.300500
     47 H13        -7.0690    5.1340   -2.6910 hn        1 2N2      0.284500
     48 H14        -8.2680    6.3410   -0.2570 h1        1 2N2      0.079700
     49 H15        -9.1370    6.1190   -1.8560 h1        1 2N2      0.079700
     50 H16        -7.4790    7.6730   -2.9690 hc        1 2N2      0.044700
     51 H17        -6.6200    7.8880   -1.3920 hc        1 2N2      0.044700
     52 H18        -8.7530    8.7470   -0.3570 hc        1 2N2      0.045700
     53 H19        -9.5980    8.5540   -1.9430 hc        1 2N2      0.045700
     54 H20        -7.9540   10.1340   -3.0120 hc        1 2N2      0.044700
     55 H21        -7.1060   10.3230   -1.4280 hc        1 2N2      0.044700
     56 H22        -4.0250   -1.8710    6.5580 ho        1 2N2      0.411500
     57 H23        -9.2420   11.1940   -0.3950 hc        1 2N2      0.074200
     58 H24       -10.0820   11.0180   -1.9860 hc        1 2N2      0.074200
     59 H25        -7.4780   12.6900   -1.8780 h4        1 2N2     -0.005800
     60 H4         -1.8240   -0.8710    0.3960 hc        1 2N2      0.132700
     61 H26         3.5640    2.3760    1.5010 ho        1 2N2      0.411500
@<TRIPOS>BOND
     1    1    2 ar  
     2    1   19 ar  
     3    1   37 1   
     4    2    3 ar  
     5    2   38 1   
     6    3    4 ar  
     7    3   31 1   
     8    4   20 ar  
     9    4   39 1   
    10    5    6 ar  
    11    5   10 ar  
    12    5   18 1   
    13    6    7 ar  
    14    6   40 1   
    15    7    8 ar  
    16    7   41 1   
    17    8    9 ar  
    18    8   24 1   
    19    9   10 ar  
    20    9   42 1   
    21   10   11 1   
    22   11   22 1   
    23   11   23 1   
    24   12   13 ar  
    25   12   17 ar  
    26   12   43 1   
    27   13   14 ar  
    28   13   44 1   
    29   14   15 ar  
    30   14   18 1   
    31   15   16 ar  
    32   15   21 1   
    33   16   17 ar  
    34   16   45 1   
    35   17   32 1   
    36   18   19 1   
    37   18   60 1   
    38   19   20 ar  
    39   20   21 1   
    40   24   25 1   
    41   24   46 1   
    42   25   26 1   
    43   25   34 2   
    44   26   27 1   
    45   26   47 1   
    46   27   28 1   
    47   27   48 1   
    48   27   49 1   
    49   28   29 1   
    50   28   50 1   
    51   28   51 1   
    52   29   30 1   
    53   29   52 1   
    54   29   53 1   
    55   30   33 1   
    56   30   54 1   
    57   30   55 1   
    58   31   61 1   
    59   32   56 1   
    60   33   35 1   
    61   33   57 1   
    62   33   58 1   
    63   35   36 2   
    64   35   59 1   
@<TRIPOS>SUBSTRUCTURE
     1 2N2         1 TEMP              0 ****  ****    0 ROOT
