@<TRIPOS>MOLECULE
2N2
   62    65     1     0     0
SMALL
bcc


@<TRIPOS>ATOM
      1 C11        -0.1610   -0.0290   -0.0640 ca        1 2N2     -0.052000
      2 C12         1.2220   -0.1340    0.0300 ca        1 2N2     -0.209500
      3 C13         1.8310   -0.1800    1.2940 ca        1 2N2      0.140100
      4 C14         1.0730   -0.1400    2.4720 ca        1 2N2     -0.210500
      5 C15        -2.8010    1.6010    0.6510 ca        1 2N2      0.000700
      6 C16        -2.6620    2.5910    1.6350 ca        1 2N2     -0.124000
      7 C17        -3.0050    3.9160    1.3970 ca        1 2N2     -0.129000
      8 C18        -3.5120    4.2690    0.1310 ca        1 2N2     -0.068400
      9 C19        -3.6360    3.2810   -0.8710 ca        1 2N2     -0.112000
     10 C20        -3.2820    1.9580   -0.6190 ca        1 2N2     -0.109600
     11 C21        -3.4830    0.9970   -1.8030 c         1 2N2      0.915200
     12 C01        -5.0720   -1.0070    3.4490 ca        1 2N2     -0.209500
     13 C02        -4.4470   -0.6170    2.2700 ca        1 2N2     -0.052000
     14 C03        -3.0940   -0.2550    2.2550 ca        1 2N2     -0.151800
     15 C04        -2.3690   -0.3240    3.4540 ca        1 2N2      0.141600
     16 C05        -2.9680   -0.7150    4.6600 ca        1 2N2     -0.210500
     17 C06        -4.3270   -1.0460    4.6400 ca        1 2N2      0.140100
     18 C07        -2.4330    0.1790    0.9860 c3        1 2N2      0.067200
     19 C08        -0.9470    0.0430    1.0930 ca        1 2N2     -0.151800
     20 C09        -0.3180   -0.0320    2.3430 ca        1 2N2      0.141600
     21 O10        -1.0220    0.0120    3.5460 os        1 2N2     -0.244200
     22 O22        -4.4480    1.2660   -2.5660 o         1 2N2     -0.800800
     23 O23        -2.6700    0.0490   -1.9510 o         1 2N2     -0.800800
     24 N24        -3.9100    5.5850   -0.2250 ns        1 2N2     -0.295100
     25 C25        -4.2580    6.5660    0.6300 c         1 2N2      0.300400
     26 N26        -4.9610    7.7770   -0.0420 ny        1 2N2     -0.653800
     27 C27        -6.2410    7.4170   -0.7070 c3        1 2N2      0.087800
     28 C28        -7.0780    8.6360   -1.0780 c3        1 2N2     -0.104400
     29 C29        -8.3430    8.1830   -1.7800 c3        1 2N2     -0.080400
     30 C30        -9.2200    9.3700   -2.1190 c3        1 2N2     -0.073400
     31 O31         3.1960   -0.2710    1.4540 oh        1 2N2     -0.500600
     32 O32        -5.0040   -1.4280    5.7770 oh        1 2N2     -0.500600
     33 C33       -10.4520    8.9270   -2.8760 c3        1 2N2     -0.207400
     34 S34        -4.0620    6.7970    2.1710 s         1 2N2     -0.279400
     35 C35       -11.3540   10.0880   -3.1720 c         1 2N2      0.562900
     36 O36       -11.9350   10.2250   -4.2470 o         1 2N2     -0.506100
     37 H1         -0.6690   -0.0030   -1.0510 ha        1 2N2      0.179500
     38 H2          1.8350   -0.1880   -0.8810 ha        1 2N2      0.143500
     39 H3          1.5510   -0.1940    3.4570 ha        1 2N2      0.154500
     40 H5         -2.2690    2.3080    2.6260 ha        1 2N2      0.152000
     41 H6         -2.8780    4.6640    2.1960 ha        1 2N2      0.153000
     42 H7         -4.0400    3.5070   -1.8750 ha        1 2N2      0.163000
     43 H8         -6.1330   -1.2900    3.4640 ha        1 2N2      0.143500
     44 H9         -5.0190   -0.5910    1.3290 ha        1 2N2      0.179500
     45 H10        -2.3740   -0.7590    5.5820 ha        1 2N2      0.154500
     46 H12        -4.0920    5.6830   -1.2090 hn        1 2N2      0.331500
     47 H13        -4.3430    8.2340   -0.7180 hn        1 2N2      0.447800
     48 H14        -6.0130    6.8210   -1.6360 hx        1 2N2      0.106700
     49 H15        -6.8230    6.7560   -0.0000 hx        1 2N2      0.106700
     50 H16        -7.3490    9.2170   -0.1570 hc        1 2N2      0.061700
     51 H17        -6.4990    9.3190   -1.7550 hc        1 2N2      0.061700
     52 H18        -8.0770    7.6300   -2.7210 hc        1 2N2      0.060700
     53 H19        -8.9090    7.4710   -1.1230 hc        1 2N2      0.060700
     54 H20        -8.6410   10.1030   -2.7400 hc        1 2N2      0.048700
     55 H21        -9.5220    9.8970   -1.1750 hc        1 2N2      0.048700
     56 H22        -4.3670   -1.4640    6.5050 ho        1 2N2      0.418500
     57 H23       -11.0360    8.1860   -2.2660 hc        1 2N2      0.078700
     58 H24       -10.1580    8.4160   -3.8310 hc        1 2N2      0.078700
     59 H25       -11.4760   10.8210   -2.3430 h4        1 2N2     -0.003800
     60 H4         -2.7870   -0.4880    0.1350 hc        1 2N2      0.143700
     61 H26         3.5910   -0.3420    0.5720 ho        1 2N2      0.418500
     62 H262       -5.1430    8.4390    0.7360 hn        1 2N2      0.447800
@<TRIPOS>BOND
     1    1    2 ar  
     2    1   19 ar  
     3    1   37 1   
     4    2    3 ar  
     5    2   38 1   
     6    3    4 ar  
     7    3   31 1   
     8    4   20 ar  
     9    4   39 1   
    10    5    6 ar  
    11    5   10 ar  
    12    5   18 1   
    13    6    7 ar  
    14    6   40 1   
    15    7    8 ar  
    16    7   41 1   
    17    8    9 ar  
    18    8   24 1   
    19    9   10 ar  
    20    9   42 1   
    21   10   11 1   
    22   11   22 1   
    23   11   23 1   
    24   12   13 ar  
    25   12   17 ar  
    26   12   43 1   
    27   13   14 ar  
    28   13   44 1   
    29   14   15 ar  
    30   14   18 1   
    31   15   16 ar  
    32   15   21 1   
    33   16   17 ar  
    34   16   45 1   
    35   17   32 1   
    36   18   19 1   
    37   18   60 1   
    38   19   20 ar  
    39   20   21 1   
    40   24   25 1   
    41   24   46 1   
    42   25   26 1   
    43   25   34 2   
    44   26   27 1   
    45   26   47 1   
    46   26   62 1   
    47   27   28 1   
    48   27   48 1   
    49   27   49 1   
    50   28   29 1   
    51   28   50 1   
    52   28   51 1   
    53   29   30 1   
    54   29   52 1   
    55   29   53 1   
    56   30   33 1   
    57   30   54 1   
    58   30   55 1   
    59   31   61 1   
    60   32   56 1   
    61   33   35 1   
    62   33   57 1   
    63   33   58 1   
    64   35   36 2   
    65   35   59 1   
@<TRIPOS>SUBSTRUCTURE
     1 2N2         1 TEMP              0 ****  ****    0 ROOT
