@<TRIPOS>MOLECULE
2N5
   52    54     1     0     0
SMALL
bcc


@<TRIPOS>ATOM
      1 C1          0.1470   -0.1390    0.1730 ca        1 2N5      0.194100
      2 C2          1.5750   -0.1340    0.3060 ca        1 2N5     -0.063400
      3 C3          2.1800    0.0570    1.5640 ca        1 2N5     -0.032000
      4 C4         -0.6900    0.0350    1.2880 ca        1 2N5     -0.148000
      5 C5         -0.0990    0.2040    2.5300 ca        1 2N5      0.015200
      6 C6          1.3240    0.2090    2.6380 ca        1 2N5      0.023100
      7 O7          1.7080    0.3760    3.9790 os        1 2N5     -0.137200
      8 C8          0.5360    0.4630    4.7230 cc        1 2N5      0.297900
      9 C9         -0.5920    0.3970    3.8920 cd        1 2N5     -0.299400
     10 C10        -1.9960    0.5110    4.1700 c         1 2N5      0.606300
     11 N11        -2.3970    1.0630    5.5290 n4        1 2N5     -0.673800
     12 C12         0.7270    0.5850    6.1500 ca        1 2N5     -0.201800
     13 O13        -0.2960   -0.3570   -1.1030 os        1 2N5     -0.388900
     14 N14         2.4040   -0.3290   -0.8670 n4        1 2N5     -0.554300
     15 C15        -1.7260   -0.2840   -1.3800 c3        1 2N5      0.153100
     16 C16        -2.1770    1.1580   -1.4090 c3        1 2N5     -0.122600
     17 C17        -1.8690   -0.9540   -2.7340 c3        1 2N5     -0.122600
     18 C18         1.6430    1.5240    6.6550 ca        1 2N5     -0.063500
     19 C19         1.8760    1.6140    8.0210 ca        1 2N5     -0.167000
     20 C20         1.2150    0.7330    8.9020 ca        1 2N5      0.215900
     21 C21         0.3170   -0.2360    8.3930 ca        1 2N5     -0.167000
     22 C22         0.0830   -0.3060    7.0300 ca        1 2N5     -0.063500
     23 F23         1.4400    0.8050   10.2240 f         1 2N5     -0.082900
     24 O24        -2.9310    0.2620    3.4170 o         1 2N5     -0.436100
     25 C25        -3.4470    0.2380    6.1730 c3        1 2N5      0.080100
     26 S26         2.6540   -2.2170   -1.3420 s6        1 2N5      1.427900
     27 C27         1.8390   -2.1810   -2.7560 c3        1 2N5     -0.483300
     28 O28         4.0220   -2.2030   -1.4680 o         1 2N5     -0.546300
     29 O29         2.0230   -2.8960   -0.3340 o         1 2N5     -0.546300
     30 H30         3.2740    0.0790    1.7040 ha        1 2N5      0.189000
     31 H31        -1.7880    0.0320    1.1890 ha        1 2N5      0.191000
     32 H32        -2.7660    2.0120    5.3820 hn        1 2N5      0.466300
     33 H33         1.9710    0.1750   -1.6430 hn        1 2N5      0.457800
     34 H34        -2.2730   -0.8760   -0.5950 h1        1 2N5      0.070700
     35 H35        -1.6400    1.7240   -2.2080 hc        1 2N5      0.065533
     36 H36        -3.2740    1.1980   -1.6210 hc        1 2N5      0.065533
     37 H37        -1.9820    1.6560   -0.4290 hc        1 2N5      0.065533
     38 H38        -1.5520   -2.0230   -2.6790 hc        1 2N5      0.065533
     39 H39        -1.2530   -0.4290   -3.5030 hc        1 2N5      0.065533
     40 H40        -2.9430   -0.9110   -3.0430 hc        1 2N5      0.065533
     41 H41         2.1830    2.1920    5.9620 ha        1 2N5      0.156500
     42 H42         2.5880    2.3550    8.4240 ha        1 2N5      0.189000
     43 H43        -0.1660   -0.9420    9.0900 ha        1 2N5      0.189000
     44 H44        -0.5700   -1.1020    6.6340 ha        1 2N5      0.156500
     45 H45        -3.0280   -0.7740    6.4190 hx        1 2N5      0.116700
     46 H46        -3.7920    0.7460    7.1150 hx        1 2N5      0.116700
     47 H47        -4.3170    0.1200    5.4680 hx        1 2N5      0.116700
     48 H48         2.3390   -1.6160   -3.5930 h1        1 2N5      0.184700
     49 H49         0.7850   -1.7720   -2.7060 h1        1 2N5      0.184700
     50 H50         1.6890   -3.2150   -3.1970 h1        1 2N5      0.184700
     51 H112       -1.5760    1.1260    6.1450 hn        1 2N5      0.466300
     52 H142        3.3230    0.0880   -0.7020 hn        1 2N5      0.457800
@<TRIPOS>BOND
     1    1    2 ar  
     2    1    4 ar  
     3    1   13 1   
     4    2    3 ar  
     5    2   14 1   
     6    3    6 ar  
     7    3   30 1   
     8    4    5 ar  
     9    4   31 1   
    10    5    6 ar  
    11    5    9 1   
    12    6    7 1   
    13    7    8 1   
    14    8    9 2   
    15    8   12 1   
    16    9   10 1   
    17   10   11 1   
    18   10   24 2   
    19   11   25 1   
    20   11   32 1   
    21   11   51 1   
    22   12   18 ar  
    23   12   22 ar  
    24   13   15 1   
    25   14   26 1   
    26   14   33 1   
    27   14   52 1   
    28   15   16 1   
    29   15   17 1   
    30   15   34 1   
    31   16   35 1   
    32   16   36 1   
    33   16   37 1   
    34   17   38 1   
    35   17   39 1   
    36   17   40 1   
    37   18   19 ar  
    38   18   41 1   
    39   19   20 ar  
    40   19   42 1   
    41   20   21 ar  
    42   20   23 1   
    43   21   22 ar  
    44   21   43 1   
    45   22   44 1   
    46   25   45 1   
    47   25   46 1   
    48   25   47 1   
    49   26   27 1   
    50   26   28 2   
    51   26   29 2   
    52   27   48 1   
    53   27   49 1   
    54   27   50 1   
@<TRIPOS>SUBSTRUCTURE
     1 2N5         1 TEMP              0 ****  ****    0 ROOT
