@<TRIPOS>MOLECULE
2N5
   51    53     1     0     0
SMALL
bcc


@<TRIPOS>ATOM
      1 C1         -0.4530    0.4200    0.5270 ca        1 2N5      0.073100
      2 C2          0.9130   -0.0120    0.3880 ca        1 2N5      0.222600
      3 C3          1.6440   -0.3130    1.5610 ca        1 2N5     -0.153000
      4 C4         -1.0770    0.5820    1.7660 ca        1 2N5     -0.130000
      5 C5         -0.3440    0.3290    2.9210 ca        1 2N5     -0.122800
      6 C6          0.9880   -0.1450    2.7680 ca        1 2N5      0.090100
      7 O7          1.5500   -0.4230    4.0250 os        1 2N5     -0.160200
      8 C8          0.5810   -0.1270    4.9800 cc        1 2N5      0.308900
      9 C9         -0.5810    0.3730    4.3600 cd        1 2N5     -0.304400
     10 C10        -1.7340    0.8970    5.0170 c         1 2N5      0.615300
     11 N11        -2.4060    2.0640    4.2800 ny        1 2N5     -0.676800
     12 C12         0.9950   -0.3360    6.3430 ca        1 2N5     -0.159800
     13 O13        -1.1330    0.8070   -0.6160 os        1 2N5     -0.350900
     14 N14         1.4750   -0.1250   -0.8780 nu        1 2N5     -0.757500
     15 C15        -2.1960   -0.0910   -1.0250 c3        1 2N5      0.142100
     16 C16        -3.0780    0.7350   -1.9400 c3        1 2N5     -0.114100
     17 C17        -1.6150   -1.2940   -1.7370 c3        1 2N5     -0.114100
     18 C18         2.3570   -0.1840    6.6760 ca        1 2N5     -0.038500
     19 C19         2.7920   -0.3800    7.9770 ca        1 2N5     -0.179000
     20 C20         1.8640   -0.7530    8.9720 ca        1 2N5      0.200900
     21 C21         0.5040   -0.9290    8.6420 ca        1 2N5     -0.179000
     22 C22         0.0800   -0.7230    7.3370 ca        1 2N5     -0.038500
     23 F23         2.2780   -0.9460   10.2390 f         1 2N5     -0.105900
     24 O24        -2.2650    0.6160    6.0840 o         1 2N5     -0.457100
     25 C25        -3.8220    1.7770    3.9730 c3        1 2N5      0.080100
     26 S26         3.0330   -0.4530   -1.3390 s6        1 2N5      1.470900
     27 C27         2.9530   -2.0960   -1.7230 c3        1 2N5     -0.383300
     28 O28         3.2780    0.2760   -2.5090 o         1 2N5     -0.631800
     29 O29         3.9020   -0.2860   -0.2510 o         1 2N5     -0.631800
     30 H30         2.6970   -0.6460    1.5420 ha        1 2N5      0.210000
     31 H31        -2.1340    0.8810    1.7820 ha        1 2N5      0.129000
     32 H32        -1.8870    2.2690    3.4170 hn        1 2N5      0.461800
     33 H33         0.8220    0.1280   -1.5990 hn        1 2N5      0.470800
     34 H34        -2.7670   -0.4170   -0.1120 h1        1 2N5      0.037700
     35 H35        -3.4990    1.6090   -1.3900 hc        1 2N5      0.054700
     36 H36        -3.9130    0.0980   -2.3170 hc        1 2N5      0.054700
     37 H37        -2.4890    1.1170   -2.8090 hc        1 2N5      0.054700
     38 H38        -2.4400   -1.9750   -2.0580 hc        1 2N5      0.054700
     39 H39        -1.0440   -0.9740   -2.6420 hc        1 2N5      0.054700
     40 H40        -0.9280   -1.8550   -1.0590 hc        1 2N5      0.054700
     41 H41         3.0820    0.0950    5.8920 ha        1 2N5      0.162500
     42 H42         3.8540   -0.2540    8.2420 ha        1 2N5      0.174500
     43 H43        -0.2100   -1.2360    9.4230 ha        1 2N5      0.174500
     44 H44        -0.9810   -0.8870    7.0850 ha        1 2N5      0.162500
     45 H45        -4.2980    2.6830    3.5100 hx        1 2N5      0.108700
     46 H46        -4.3600    1.5100    4.9250 hx        1 2N5      0.108700
     47 H47        -3.8820    0.9120    3.2590 hx        1 2N5      0.108700
     48 H48         2.2410   -2.3380   -2.5510 h1        1 2N5      0.128367
     49 H49         2.6790   -2.7570   -0.8650 h1        1 2N5      0.128367
     50 H50         3.9550   -2.4620   -2.0760 h1        1 2N5      0.128367
     51 H112       -2.3560    2.8870    4.8930 hn        1 2N5      0.461800
@<TRIPOS>BOND
     1    1    2 ar  
     2    1    4 ar  
     3    1   13 1   
     4    2    3 ar  
     5    2   14 1   
     6    3    6 ar  
     7    3   30 1   
     8    4    5 ar  
     9    4   31 1   
    10    5    6 ar  
    11    5    9 1   
    12    6    7 1   
    13    7    8 1   
    14    8    9 2   
    15    8   12 1   
    16    9   10 1   
    17   10   11 1   
    18   10   24 2   
    19   11   25 1   
    20   11   32 1   
    21   11   51 1   
    22   12   18 ar  
    23   12   22 ar  
    24   13   15 1   
    25   14   26 1   
    26   14   33 1   
    27   15   16 1   
    28   15   17 1   
    29   15   34 1   
    30   16   35 1   
    31   16   36 1   
    32   16   37 1   
    33   17   38 1   
    34   17   39 1   
    35   17   40 1   
    36   18   19 ar  
    37   18   41 1   
    38   19   20 ar  
    39   19   42 1   
    40   20   21 ar  
    41   20   23 1   
    42   21   22 ar  
    43   21   43 1   
    44   22   44 1   
    45   25   45 1   
    46   25   46 1   
    47   25   47 1   
    48   26   27 1   
    49   26   28 2   
    50   26   29 2   
    51   27   48 1   
    52   27   49 1   
    53   27   50 1   
@<TRIPOS>SUBSTRUCTURE
     1 2N5         1 TEMP              0 ****  ****    0 ROOT
