@<TRIPOS>MOLECULE
2N6
   35    37     1     0     0
SMALL
bcc


@<TRIPOS>ATOM
      1 C19         0.1150    0.6070   -0.0030 c3        1 2N6     -0.059800
      2 C17         1.5520    0.2470   -0.0210 ca        1 2N6     -0.033300
      3 C16         2.2770    0.2030    1.1750 ca        1 2N6     -0.135000
      4 C15         3.6280   -0.1570    1.1860 ca        1 2N6     -0.056300
      5 C18         4.3860   -0.1810    2.4580 c3        1 2N6     -0.056800
      6 C14         4.2610   -0.4810   -0.0190 ca        1 2N6     -0.136000
      7 C13         3.5540   -0.4370   -1.2170 ca        1 2N6     -0.093000
      8 C5          2.2050   -0.0650   -1.2240 cp        1 2N6     -0.169500
      9 C4          1.4780   -0.0280   -2.5100 cp        1 2N6      0.570800
     10 C8          1.6240    1.0750   -3.3890 ca        1 2N6     -0.295400
     11 N1          0.6860   -1.0650   -2.8340 nb        1 2N6     -0.688000
     12 C2          0.0240   -1.0320   -4.0480 ca        1 2N6      0.736300
     13 S6         -0.9550   -2.4210   -4.3410 ss        1 2N6     -0.175400
     14 C7         -1.6810   -2.1600   -5.9090 c3        1 2N6     -0.075000
     15 N3          0.0750   -0.0470   -4.9850 nb        1 2N6     -0.729000
     16 C9          0.8790    1.0010   -4.6410 ca        1 2N6      0.455800
     17 N10         1.1440    2.1670   -5.3740 na        1 2N6     -0.277100
     18 C11         2.0150    2.9600   -4.6340 cc        1 2N6     -0.062100
     19 C12         2.3300    2.3330   -3.4200 cd        1 2N6     -0.008900
     20 C20         3.1780    2.8690   -2.4390 ch        1 2N6      0.226500
     21 N21         3.8810    3.3270   -1.6330 n1        1 2N6     -0.364800
     22 H1         -0.5080   -0.3090   -0.1640 hc        1 2N6      0.050033
     23 H2         -0.1750    1.0650    0.9740 hc        1 2N6      0.050033
     24 H3         -0.1190    1.3360   -0.8190 hc        1 2N6      0.050033
     25 H4          1.7740    0.4550    2.1210 ha        1 2N6      0.134000
     26 H5          4.8800    0.8100    2.6240 hc        1 2N6      0.046367
     27 H6          3.7110   -0.3840    3.3250 hc        1 2N6      0.046367
     28 H7          5.1800   -0.9680    2.4350 hc        1 2N6      0.046367
     29 H8          5.3220   -0.7720   -0.0200 ha        1 2N6      0.135000
     30 H9          4.0560   -0.6970   -2.1610 ha        1 2N6      0.137000
     31 H10        -2.3290   -1.2560   -5.9410 h1        1 2N6      0.075700
     32 H11        -0.9290   -2.0760   -6.7250 h1        1 2N6      0.075700
     33 H12        -2.3090   -3.0660   -6.0830 h1        1 2N6      0.075700
     34 H13         0.7710    2.3800   -6.2630 hn        1 2N6      0.317700
     35 H14         2.3560    3.9250   -5.0180 h4        1 2N6      0.184000
@<TRIPOS>BOND
     1    1    2 1   
     2    1   22 1   
     3    1   23 1   
     4    1   24 1   
     5    2    3 ar  
     6    2    8 ar  
     7    3    4 ar  
     8    3   25 1   
     9    4    5 1   
    10    4    6 ar  
    11    5   26 1   
    12    5   27 1   
    13    5   28 1   
    14    6    7 ar  
    15    6   29 1   
    16    7    8 ar  
    17    7   30 1   
    18    8    9 1   
    19    9   10 ar  
    20    9   11 ar  
    21   10   16 ar  
    22   10   19 1   
    23   11   12 ar  
    24   12   13 1   
    25   12   15 ar  
    26   13   14 1   
    27   14   31 1   
    28   14   32 1   
    29   14   33 1   
    30   15   16 ar  
    31   16   17 1   
    32   17   18 1   
    33   17   34 1   
    34   18   19 2   
    35   18   35 1   
    36   19   20 1   
    37   20   21 3   
@<TRIPOS>SUBSTRUCTURE
     1 2N6         1 TEMP              0 ****  ****    0 ROOT
