@<TRIPOS>MOLECULE
2N6
   35    27     1     0     0
SMALL
bcc


@<TRIPOS>ATOM
      1 C19         1.3180   -2.0120    0.1220 c3        1 2N6     -0.185000
      2 C17         1.1010   -0.9340    1.1590 c1        1 2N6     -0.026000
      3 C16         1.7850   -0.9830    2.3640 c1        1 2N6     -0.135000
      4 C15         1.5700   -0.0060    3.3230 c1        1 2N6     -0.049000
      5 C18         2.3670   -0.0210    4.6090 c2        1 2N6     -0.182000
      6 C14         0.6710    1.0200    3.0770 c2        1 2N6     -0.136000
      7 C13        -0.0130    1.0690    1.8730 c1        1 2N6     -0.093000
      8 C5          0.2020    0.0920    0.9130 c1        1 2N6     -0.062000
      9 C4         -0.4930    0.1820   -0.4250 c2        1 2N6      0.135000
     10 C8         -0.2570    1.0580   -1.4700 c1        1 2N6     -0.153000
     11 N1         -1.5620   -0.6300   -0.4580 n2        1 2N6     -0.162000
     12 C2         -2.4190   -0.5920   -1.5230 c1        1 2N6     -0.117000
     13 S6         -4.0900   -1.1810   -1.5920 ss        1 2N6      0.334000
     14 C7         -4.1760   -2.5940   -2.6620 c3        1 2N6     -0.375000
     15 N3         -2.1890    0.2710   -2.5550 n1        1 2N6     -0.121000
     16 C9         -1.1070    1.0950   -2.5250 c1        1 2N6     -0.001000
     17 N10        -0.6140    2.0140   -3.4400 n1        1 2N6     -0.191000
     18 C11         0.5360    2.5340   -2.9370 c1        1 2N6     -0.035000
     19 C12         0.7680    1.9500   -1.7170 c1        1 2N6     -0.054000
     20 C20         2.0410    2.6470   -1.2960 c1        1 2N6     -0.001000
     21 N21         3.0010    3.1730   -0.9780 n1        1 2N6     -0.121000
     22 H1          2.0810   -1.7720   -0.4450 hc        1 2N6      0.089333
     23 H2          0.5140   -2.1000   -0.4320 hc        1 2N6      0.089333
     24 H3          1.5010   -2.8640    0.5700 hc        1 2N6      0.089333
     25 H4          2.4260   -1.6980    2.5320 ha        1 2N6      0.134000
     26 H5          2.1650   -0.8380    5.1090 ha        1 2N6      0.085667
     27 H6          3.3250    0.0070    4.4010 ha        1 2N6      0.085667
     28 H7          2.1280    0.7600    5.1510 ha        1 2N6      0.085667
     29 H8          0.5200    1.7080    3.7520 ha        1 2N6      0.135000
     30 H9         -0.6460    1.7920    1.7000 ha        1 2N6      0.137000
     31 H10        -3.6650   -2.4160   -3.4780 h1        1 2N6      0.115000
     32 H11        -3.7980   -3.3740   -2.2040 h1        1 2N6      0.115000
     33 H12        -5.1120   -2.7720   -2.8940 h1        1 2N6      0.115000
     34 H13        -0.9960    2.2310   -4.2400 DU        1 2N6      0.226000
     35 H14         1.1170    3.1800   -3.3830 DU        1 2N6      0.226000
@<TRIPOS>BOND
     1    1    2 1   
     2    1   22 1   
     3    1   23 1   
     4    1   24 1   
     5    2    8 1   
     6    3    4 1   
     7    3   25 1   
     8    4    6 1   
     9    5   26 1   
    10    5   27 1   
    11    5   28 1   
    12    6    7 1   
    13    6   29 1   
    14    7   30 1   
    15    8    9 1   
    16    9   10 1   
    17    9   11 1   
    18   11   12 1   
    19   12   13 1   
    20   13   14 1   
    21   14   31 1   
    22   14   32 1   
    23   14   33 1   
    24   15   16 1   
    25   17   18 1   
    26   18   19 1   
    27   20   21 1   
@<TRIPOS>SUBSTRUCTURE
     1 2N6         1 TEMP              0 ****  ****    0 ROOT
