@<TRIPOS>MOLECULE
2N6
   35    37     1     0     0
SMALL
bcc


@<TRIPOS>ATOM
      1 C19         0.1250    0.5710   -0.0070 c3        1 2N6     -0.059800
      2 C17         1.5630    0.2150   -0.0190 ca        1 2N6     -0.033300
      3 C16         2.2800    0.1570    1.1810 ca        1 2N6     -0.135000
      4 C15         3.6310   -0.1990    1.1970 ca        1 2N6     -0.056300
      5 C18         4.3810   -0.2390    2.4740 c3        1 2N6     -0.056800
      6 C14         4.2740   -0.5050   -0.0090 ca        1 2N6     -0.136000
      7 C13         3.5750   -0.4470   -1.2100 ca        1 2N6     -0.093000
      8 C5          2.2250   -0.0780   -1.2220 cp        1 2N6     -0.169500
      9 C4          1.5070   -0.0250   -2.5120 cp        1 2N6      0.570800
     10 C8          1.6570    1.0900   -3.3750 ca        1 2N6     -0.295400
     11 N1          0.7200   -1.0600   -2.8560 nb        1 2N6     -0.688000
     12 C2          0.0660   -1.0110   -4.0740 ca        1 2N6      0.736300
     13 S6         -0.9070   -2.3990   -4.3930 ss        1 2N6     -0.175400
     14 C7         -1.6220   -2.1190   -5.9620 c3        1 2N6     -0.075000
     15 N3          0.1220   -0.0150   -4.9970 nb        1 2N6     -0.729000
     16 C9          0.9200    1.0310   -4.6330 ca        1 2N6      0.455800
     17 N10         1.1870    2.2070   -5.3490 na        1 2N6     -0.277100
     18 C11         2.0510    2.9930   -4.5910 cc        1 2N6     -0.062100
     19 C12         2.3600    2.3500   -3.3850 cd        1 2N6     -0.008900
     20 C20         3.1990    2.8750   -2.3900 ch        1 2N6      0.226500
     21 N21         3.8960    3.3230   -1.5730 n1        1 2N6     -0.364800
     22 H1         -0.1740    1.0150    0.9740 hc        1 2N6      0.050033
     23 H2         -0.1060    1.3100   -0.8140 hc        1 2N6      0.050033
     24 H3         -0.4940   -0.3450   -0.1840 hc        1 2N6      0.050033
     25 H4          1.7690    0.3940    2.1270 ha        1 2N6      0.134000
     26 H5          3.7000   -0.4590    3.3330 hc        1 2N6      0.046367
     27 H6          5.1780   -1.0210    2.4450 hc        1 2N6      0.046367
     28 H7          4.8690    0.7520    2.6580 hc        1 2N6      0.046367
     29 H8          5.3360   -0.7930   -0.0060 ha        1 2N6      0.135000
     30 H9          4.0840   -0.6920   -2.1550 ha        1 2N6      0.137000
     31 H10        -2.2470   -3.0240   -6.1530 h1        1 2N6      0.075700
     32 H11        -0.8650   -2.0220   -6.7720 h1        1 2N6      0.075700
     33 H12        -2.2730   -1.2160   -5.9860 h1        1 2N6      0.075700
     34 H13         0.8200    2.4320   -6.2370 hn        1 2N6      0.317700
     35 H14         2.3920    3.9640   -4.9600 h4        1 2N6      0.184000
@<TRIPOS>BOND
     1    1    2 1   
     2    1   22 1   
     3    1   23 1   
     4    1   24 1   
     5    2    3 ar  
     6    2    8 ar  
     7    3    4 ar  
     8    3   25 1   
     9    4    5 1   
    10    4    6 ar  
    11    5   26 1   
    12    5   27 1   
    13    5   28 1   
    14    6    7 ar  
    15    6   29 1   
    16    7    8 ar  
    17    7   30 1   
    18    8    9 1   
    19    9   10 ar  
    20    9   11 ar  
    21   10   16 ar  
    22   10   19 1   
    23   11   12 ar  
    24   12   13 1   
    25   12   15 ar  
    26   13   14 1   
    27   14   31 1   
    28   14   32 1   
    29   14   33 1   
    30   15   16 ar  
    31   16   17 1   
    32   17   18 1   
    33   17   34 1   
    34   18   19 2   
    35   18   35 1   
    36   19   20 1   
    37   20   21 3   
@<TRIPOS>SUBSTRUCTURE
     1 2N6         1 TEMP              0 ****  ****    0 ROOT
