@<TRIPOS>MOLECULE
2N6
   35    37     1     0     0
SMALL
bcc


@<TRIPOS>ATOM
      1 C19        -1.0890    1.6170    2.0430 c3        1 2N6     -0.059800
      2 C17        -1.8630    1.2500    0.8340 ca        1 2N6     -0.033300
      3 C16        -3.2120    1.6090    0.7310 ca        1 2N6     -0.135000
      4 C15        -3.9560    1.2950   -0.4090 ca        1 2N6     -0.056300
      5 C18        -5.3870    1.6650   -0.4960 c3        1 2N6     -0.056800
      6 C14        -3.3380    0.6140   -1.4650 ca        1 2N6     -0.136000
      7 C13        -1.9990    0.2460   -1.3740 ca        1 2N6     -0.093000
      8 C5         -1.2620    0.5530   -0.2250 cp        1 2N6     -0.169500
      9 C4          0.1590    0.1520   -0.1560 cp        1 2N6      0.570800
     10 C8          0.5160   -1.1830    0.1620 ca        1 2N6     -0.295400
     11 N1          1.1030    1.0740   -0.4130 nb        1 2N6     -0.688000
     12 C2          2.4300    0.6860   -0.3660 ca        1 2N6      0.736300
     13 S6          3.5370    1.9600   -0.7180 ss        1 2N6     -0.175400
     14 C7          5.1270    1.2460   -0.6010 c3        1 2N6     -0.075000
     15 N3          2.9140   -0.5530   -0.0810 nb        1 2N6     -0.729000
     16 C9          1.9450   -1.4770    0.1820 ca        1 2N6      0.455800
     17 N10         2.1060   -2.8300    0.5130 na        1 2N6     -0.277100
     18 C11         0.8440   -3.3870    0.7020 cc        1 2N6     -0.062100
     19 C12        -0.1490   -2.4180    0.4990 cd        1 2N6     -0.008900
     20 C20        -1.5280   -2.6480    0.6190 ch        1 2N6      0.226500
     21 N21        -2.6690   -2.8530    0.7230 n1        1 2N6     -0.364800
     22 H1         -0.3980    2.4660    1.8080 hc        1 2N6      0.050033
     23 H2         -1.7650    1.9320    2.8760 hc        1 2N6      0.050033
     24 H3         -0.4730    0.7520    2.3950 hc        1 2N6      0.050033
     25 H4         -3.6920    2.1490    1.5620 ha        1 2N6      0.134000
     26 H5         -6.0210    0.8190   -0.1280 hc        1 2N6      0.046367
     27 H6         -5.6080    2.5650    0.1290 hc        1 2N6      0.046367
     28 H7         -5.6790    1.8870   -1.5520 hc        1 2N6      0.046367
     29 H8         -3.9140    0.3670   -2.3690 ha        1 2N6      0.135000
     30 H9         -1.5180   -0.2860   -2.2080 ha        1 2N6      0.137000
     31 H10         5.3510    0.8520    0.4160 h1        1 2N6      0.075700
     32 H11         5.2870    0.4240   -1.3340 h1        1 2N6      0.075700
     33 H12         5.8300    2.0820   -0.8310 h1        1 2N6      0.075700
     34 H13         2.9700   -3.3000    0.5960 hn        1 2N6      0.317700
     35 H14         0.7320   -4.4410    0.9710 h4        1 2N6      0.184000
@<TRIPOS>BOND
     1    1    2 1   
     2    1   22 1   
     3    1   23 1   
     4    1   24 1   
     5    2    3 ar  
     6    2    8 ar  
     7    3    4 ar  
     8    3   25 1   
     9    4    5 1   
    10    4    6 ar  
    11    5   26 1   
    12    5   27 1   
    13    5   28 1   
    14    6    7 ar  
    15    6   29 1   
    16    7    8 ar  
    17    7   30 1   
    18    8    9 1   
    19    9   10 ar  
    20    9   11 ar  
    21   10   16 ar  
    22   10   19 1   
    23   11   12 ar  
    24   12   13 1   
    25   12   15 ar  
    26   13   14 1   
    27   14   31 1   
    28   14   32 1   
    29   14   33 1   
    30   15   16 ar  
    31   16   17 1   
    32   17   18 1   
    33   17   34 1   
    34   18   19 2   
    35   18   35 1   
    36   19   20 1   
    37   20   21 3   
@<TRIPOS>SUBSTRUCTURE
     1 2N6         1 TEMP              0 ****  ****    0 ROOT
