@<TRIPOS>MOLECULE
2N6
   35    37     1     0     0
SMALL
bcc


@<TRIPOS>ATOM
      1 C19         0.1130    0.6060   -0.0050 c3        1 2N6     -0.059800
      2 C17         1.5500    0.2460   -0.0210 ca        1 2N6     -0.033300
      3 C16         2.2740    0.2020    1.1760 ca        1 2N6     -0.135000
      4 C15         3.6250   -0.1580    1.1880 ca        1 2N6     -0.056300
      5 C18         4.3820   -0.1830    2.4610 c3        1 2N6     -0.056800
      6 C14         4.2590   -0.4820   -0.0170 ca        1 2N6     -0.136000
      7 C13         3.5530   -0.4370   -1.2150 ca        1 2N6     -0.093000
      8 C5          2.2050   -0.0650   -1.2230 cp        1 2N6     -0.169500
      9 C4          1.4780   -0.0270   -2.5100 cp        1 2N6      0.570800
     10 C8          1.6250    1.0760   -3.3880 ca        1 2N6     -0.295400
     11 N1          0.6870   -1.0650   -2.8360 nb        1 2N6     -0.688000
     12 C2          0.0260   -1.0310   -4.0510 ca        1 2N6      0.736300
     13 S6         -0.9510   -2.4200   -4.3460 ss        1 2N6     -0.175400
     14 C7         -1.6750   -2.1590   -5.9150 c3        1 2N6     -0.075000
     15 N3          0.0790   -0.0460   -4.9870 nb        1 2N6     -0.729000
     16 C9          0.8820    1.0020   -4.6410 ca        1 2N6      0.455800
     17 N10         1.1470    2.1690   -5.3730 na        1 2N6     -0.277100
     18 C11         2.0160    2.9620   -4.6310 cc        1 2N6     -0.062100
     19 C12         2.3310    2.3340   -3.4180 cd        1 2N6     -0.008900
     20 C20         3.1770    2.8700   -2.4350 ch        1 2N6      0.226500
     21 N21         3.8800    3.3270   -1.6280 n1        1 2N6     -0.364800
     22 H1         -0.5090   -0.3110   -0.1660 hc        1 2N6      0.050033
     23 H2         -0.1780    1.0630    0.9720 hc        1 2N6      0.050033
     24 H3         -0.1200    1.3350   -0.8200 hc        1 2N6      0.050033
     25 H4          1.7700    0.4520    2.1220 ha        1 2N6      0.134000
     26 H5          4.8790    0.8070    2.6260 hc        1 2N6      0.046367
     27 H6          3.7050   -0.3840    3.3280 hc        1 2N6      0.046367
     28 H7          5.1730   -0.9720    2.4390 hc        1 2N6      0.046367
     29 H8          5.3200   -0.7720   -0.0170 ha        1 2N6      0.135000
     30 H9          4.0560   -0.6970   -2.1590 ha        1 2N6      0.137000
     31 H10        -2.3250   -1.2550   -5.9460 h1        1 2N6      0.075700
     32 H11        -0.9220   -2.0740   -6.7300 h1        1 2N6      0.075700
     33 H12        -2.3030   -3.0650   -6.0900 h1        1 2N6      0.075700
     34 H13         0.7740    2.3830   -6.2620 hn        1 2N6      0.317700
     35 H14         2.3570    3.9280   -5.0140 h4        1 2N6      0.184000
@<TRIPOS>BOND
     1    1    2 1   
     2    1   22 1   
     3    1   23 1   
     4    1   24 1   
     5    2    3 ar  
     6    2    8 ar  
     7    3    4 ar  
     8    3   25 1   
     9    4    5 1   
    10    4    6 ar  
    11    5   26 1   
    12    5   27 1   
    13    5   28 1   
    14    6    7 ar  
    15    6   29 1   
    16    7    8 ar  
    17    7   30 1   
    18    8    9 1   
    19    9   10 ar  
    20    9   11 ar  
    21   10   16 ar  
    22   10   19 1   
    23   11   12 ar  
    24   12   13 1   
    25   12   15 ar  
    26   13   14 1   
    27   14   31 1   
    28   14   32 1   
    29   14   33 1   
    30   15   16 ar  
    31   16   17 1   
    32   17   18 1   
    33   17   34 1   
    34   18   19 2   
    35   18   35 1   
    36   19   20 1   
    37   20   21 3   
@<TRIPOS>SUBSTRUCTURE
     1 2N6         1 TEMP              0 ****  ****    0 ROOT
