@<TRIPOS>MOLECULE
2N8
   48    50     1     0     0
SMALL
bcc


@<TRIPOS>ATOM
      1 O29         0.5750    0.7100    0.9400 o         1 2N8     -0.647300
      2 S27         1.9510    0.7600    0.6640 sy        1 2N8      1.389300
      3 O30         2.8070    0.8910    1.7600 o         1 2N8     -0.647300
      4 C28         2.3780   -0.6040   -0.2380 c3        1 2N8     -0.369300
      5 C23         2.2270    1.9900   -0.4750 ca        1 2N8     -0.356500
      6 C22         1.1070    2.7230   -0.9000 ca        1 2N8     -0.021000
      7 C21         1.2180    3.7780   -1.7970 ca        1 2N8     -0.146000
      8 C24         3.4740    2.3610   -0.9970 ca        1 2N8      0.126400
      9 Cl26        4.8860    1.5250   -0.5590 cl        1 2N8     -0.061400
     10 C25         3.6040    3.4250   -1.8970 ca        1 2N8     -0.153000
     11 C10         2.4740    4.1410   -2.2990 ca        1 2N8     -0.027300
     12 C9          2.6100    5.2700   -3.2710 c3        1 2N8     -0.100400
     13 C8          2.0640    4.8920   -4.6450 c3        1 2N8     -0.064400
     14 C3          2.9750    3.9190   -5.3670 c3        1 2N8     -0.069700
     15 C4          2.2980    3.3560   -6.6230 c3        1 2N8     -0.076400
     16 C5          3.3600    3.2640   -7.7080 c3        1 2N8     -0.189400
     17 C1          4.5470    4.0520   -7.2200 c         1 2N8      0.574100
     18 O6          5.5770    4.2550   -7.8600 o         1 2N8     -0.521100
     19 C2          4.2860    4.5580   -5.8240 c3        1 2N8     -0.193400
     20 C11         1.8690    6.5090   -2.7480 c         1 2N8      0.669100
     21 O13         0.8960    6.9870   -3.3540 o         1 2N8     -0.577100
     22 N14         2.3870    7.0580   -1.5820 ns        1 2N8     -0.539400
     23 C15         1.8670    8.1640   -0.8840 ca        1 2N8      0.408900
     24 N16         2.3530    8.3880    0.3830 nb        1 2N8     -0.681000
     25 C17         1.8730    9.4600    1.0300 ca        1 2N8      0.312900
     26 C18         0.9120   10.3310    0.4570 ca        1 2N8      0.251900
     27 N19         0.4270   10.1210   -0.7830 nb        1 2N8     -0.609000
     28 C20         0.8910    9.0550   -1.4540 ca        1 2N8      0.272900
     29 H1          1.7230   -1.4760    0.0210 h1        1 2N8      0.121700
     30 H2          3.4300   -0.9330   -0.0430 h1        1 2N8      0.121700
     31 H3          2.2890   -0.4750   -1.3440 h1        1 2N8      0.121700
     32 H4          0.1080    2.4520   -0.5040 ha        1 2N8      0.179000
     33 H5          0.3200    4.3350   -2.1130 ha        1 2N8      0.160000
     34 H6          4.5980    3.6940   -2.2890 ha        1 2N8      0.156000
     35 H7          3.7000    5.5400   -3.3920 hc        1 2N8      0.085700
     36 H8          1.9370    5.8260   -5.2550 hc        1 2N8      0.070200
     37 H9          1.0450    4.4370   -4.5230 hc        1 2N8      0.070200
     38 H10         3.2130    3.0680   -4.6700 hc        1 2N8      0.055700
     39 H11         1.4670    4.0300   -6.9520 hc        1 2N8      0.053700
     40 H12         1.8530    2.3530   -6.4100 hc        1 2N8      0.053700
     41 H13         2.9940    3.6800   -8.6810 hc        1 2N8      0.080200
     42 H14         3.6690    2.2030   -7.8900 hc        1 2N8      0.080200
     43 H15         4.2130    5.6760   -5.8480 hc        1 2N8      0.075700
     44 H16         5.1330    4.2850   -5.1470 hc        1 2N8      0.075700
     45 H17         3.1100    6.5450   -1.1210 hn        1 2N8      0.337500
     46 H18         2.2700    9.6290    2.0460 h4        1 2N8      0.037100
     47 H19         0.5280   11.2070    1.0030 h4        1 2N8      0.038100
     48 H20         0.4780    8.8960   -2.4680 h4        1 2N8      0.070100
@<TRIPOS>BOND
     1    1    2 2   
     2    2    3 2   
     3    2    4 1   
     4    2    5 1   
     5    4   29 1   
     6    4   30 1   
     7    4   31 1   
     8    5    6 ar  
     9    5    8 ar  
    10    6    7 ar  
    11    6   32 1   
    12    7   11 ar  
    13    7   33 1   
    14    8    9 1   
    15    8   10 ar  
    16   10   11 ar  
    17   10   34 1   
    18   11   12 1   
    19   12   13 1   
    20   12   20 1   
    21   12   35 1   
    22   13   14 1   
    23   13   36 1   
    24   13   37 1   
    25   14   15 1   
    26   14   19 1   
    27   14   38 1   
    28   15   16 1   
    29   15   39 1   
    30   15   40 1   
    31   16   17 1   
    32   16   41 1   
    33   16   42 1   
    34   17   18 2   
    35   17   19 1   
    36   19   43 1   
    37   19   44 1   
    38   20   21 2   
    39   20   22 1   
    40   22   23 1   
    41   22   45 1   
    42   23   24 ar  
    43   23   28 ar  
    44   24   25 ar  
    45   25   26 ar  
    46   25   46 1   
    47   26   27 ar  
    48   26   47 1   
    49   27   28 ar  
    50   28   48 1   
@<TRIPOS>SUBSTRUCTURE
     1 2N8         1 TEMP              0 ****  ****    0 ROOT
