@<TRIPOS>MOLECULE
2N9
   28    26     1     0     0
SMALL
bcc


@<TRIPOS>ATOM
      1 CAA        -0.2610   -0.1440   -0.3990 c2        1 2N9     -0.231500
      2 CAD         4.6470   -1.3400    8.0000 c1        1 2N9      0.349000
      3 CAE         7.8880   -1.2690    4.1340 c1        1 2N9      0.194000
      4 CAF         5.3520   -0.9690    6.9390 c2        1 2N9     -0.499000
      5 CAG         7.1480   -0.3960    4.7810 c2        1 2N9     -0.432000
      6 CAH         2.9110    0.2400    4.5270 c1        1 2N9     -0.023000
      7 CAI         0.8840   -0.4070   -1.0160 c2        1 2N9     -0.231500
      8 CAL         3.0840    0.4390    2.0740 c2        1 2N9      0.351000
      9 CAM         5.2120    0.3260    3.4030 c2        1 2N9      0.194000
     10 CAN         3.7630    0.7480    3.3710 c3        1 2N9     -0.206000
     11 CAO         4.8170   -0.4460    5.6940 c2        1 2N9      0.275000
     12 CAP         5.7230   -0.1540    4.6260 c2        1 2N9     -0.269000
     13 NAJ         3.4670   -0.2860    5.5930 n2        1 2N9     -0.284000
     14 OAC         3.4070   -0.3940    1.2160 o         1 2N9     -0.394000
     15 OAK         2.0100    1.2200    1.8070 oh        1 2N9     -0.286000
     16 H1          1.7510   -0.8500   -0.5000 ha        1 2N9      0.116750
     17 H2         -0.4240   -0.3530    0.6680 ha        1 2N9      0.116750
     18 H3         -1.1270    0.2930   -0.9150 ha        1 2N9      0.116750
     19 H4          6.4570   -1.0760    7.0030 ha        1 2N9      0.201000
     20 H5          8.1540    0.2470    7.7480 ha        1 2N9      0.001500
     21 H6          8.6080    0.7390    7.6470 ha        1 2N9      0.001500
     22 H7          7.6490    0.2460    5.5440 ha        1 2N9      0.196000
     23 H8          3.7300    1.8760    3.5290 hc        1 2N9      0.193000
     24 H9          1.5610    0.8960    1.0020 ho        1 2N9      0.255000
     25 H10         1.0410   -0.2070   -2.0840 ha        1 2N9      0.116750
     26 H11         5.5480    0.6340    1.4190 hn        1 2N9      0.247500
     27 H12         6.9260    0.1630    2.3080 hn        1 2N9      0.247500
     28 NAB         5.9780    0.4670    2.3000 n3        1 2N9     -0.317000
@<TRIPOS>BOND
     1    1    7 1   
     2    1   17 1   
     3    1   18 1   
     4    2    4 1   
     5    3    5 1   
     6    4   11 1   
     7    4   19 1   
     8    5   12 1   
     9    5   22 1   
    10    6   10 1   
    11    6   13 1   
    12    7   16 1   
    13    7   25 1   
    14    8   10 1   
    15    8   14 1   
    16    8   15 1   
    17    9   10 1   
    18    9   12 1   
    19    9   28 1   
    20   10   23 1   
    21   11   12 1   
    22   11   13 1   
    23   15   24 1   
    24   20   21 1   
    25   26   28 1   
    26   27   28 1   
@<TRIPOS>SUBSTRUCTURE
     1 2N9         1 TEMP              0 ****  ****    0 ROOT
