@<TRIPOS>MOLECULE
2N9
   28    29     1     0     0
SMALL
bcc


@<TRIPOS>ATOM
      1 CAA         5.1610    1.2600   -0.0310 c3        1 2N9     -0.101100
      2 CAD        -4.3200    0.7800   -0.0180 ca        1 2N9     -0.103000
      3 CAE        -4.2040   -0.6250   -0.0090 ca        1 2N9     -0.146000
      4 CAF        -3.1960    1.5710   -0.0240 ca        1 2N9     -0.181300
      5 CAG        -2.9620   -1.2180   -0.0070 ca        1 2N9     -0.097000
      6 CAH         0.4020    1.2660   -0.0260 ca        1 2N9      0.505200
      7 CAI         4.3480   -0.0120   -0.0220 c3        1 2N9      0.142400
      8 CAL         2.0350   -0.6080   -0.0160 c         1 2N9      0.674700
      9 CAM        -0.4450   -1.0290   -0.0110 ca        1 2N9      0.316600
     10 CAN         0.6560   -0.1420   -0.0170 ca        1 2N9     -0.393900
     11 CAO        -1.8920    0.9840   -0.0220 ca        1 2N9      0.450600
     12 CAP        -1.7800   -0.4390   -0.0130 ca        1 2N9     -0.214300
     13 NAJ        -0.7880    1.8220   -0.0280 nb        1 2N9     -0.712000
     14 OAC         2.4700   -1.7720   -0.0090 o         1 2N9     -0.596000
     15 OAK         2.9670    0.3970   -0.0230 os        1 2N9     -0.440900
     16 H1          4.9320    1.8660   -0.9390 hc        1 2N9      0.048033
     17 H2          4.9340    1.8770    0.8710 hc        1 2N9      0.048033
     18 H3          6.2450    0.9960   -0.0300 hc        1 2N9      0.048033
     19 H4         -5.3210    1.2370   -0.0200 ha        1 2N9      0.138000
     20 H5         -5.1150   -1.2410   -0.0050 ha        1 2N9      0.136000
     21 H6         -3.2830    2.6700   -0.0310 ha        1 2N9      0.155000
     22 H7         -2.9150   -2.3170   -0.0000 ha        1 2N9      0.122000
     23 H8          1.2690    1.9590   -0.0310 h4        1 2N9      0.042100
     24 H9          4.5380   -0.6390   -0.9320 h1        1 2N9      0.051700
     25 H10         4.5400   -0.6280    0.8950 h1        1 2N9      0.051700
     26 H11        -1.0600   -2.9840    0.0020 hn        1 2N9      0.453800
     27 H12         0.6350   -2.7710   -0.0010 hn        1 2N9      0.453800
     28 NAB        -0.2800   -2.3770   -0.0030 nh        1 2N9     -0.852200
@<TRIPOS>BOND
     1    1    7 1   
     2    1   16 1   
     3    1   17 1   
     4    1   18 1   
     5    2    3 ar  
     6    2    4 ar  
     7    2   19 1   
     8    3    5 ar  
     9    3   20 1   
    10    4   11 ar  
    11    4   21 1   
    12    5   12 ar  
    13    5   22 1   
    14    6   10 ar  
    15    6   13 ar  
    16    6   23 1   
    17    7   15 1   
    18    7   24 1   
    19    7   25 1   
    20    8   10 1   
    21    8   14 2   
    22    8   15 1   
    23    9   10 ar  
    24    9   12 ar  
    25    9   28 1   
    26   11   12 ar  
    27   11   13 ar  
    28   26   28 1   
    29   27   28 1   
@<TRIPOS>SUBSTRUCTURE
     1 2N9         1 TEMP              0 ****  ****    0 ROOT
