@<TRIPOS>MOLECULE
2N9
   29    26     1     0     0
SMALL
bcc


@<TRIPOS>ATOM
      1 CAA         0.6390    0.0860   -0.5030 c3        1 2N9     -0.319000
      2 CAD         1.3080    0.5950    7.7480 c1        1 2N9      0.374000
      3 CAE         8.8200   -0.1340    2.1360 c1        1 2N9      0.265000
      4 CAF         2.5900    0.3180    7.9470 c2        1 2N9     -0.516000
      5 CAG         8.1980   -0.1150    3.2980 c2        1 2N9     -0.505000
      6 CAH         4.0250   -0.0790    4.6030 c1        1 2N9      0.069000
      7 CAI         0.6090    0.9540    0.6300 c1        1 2N9     -0.016000
      8 CAL         3.3530    0.0120    2.2600 c2        1 2N9      0.391000
      9 CAM         5.7560   -0.4340    2.9440 c2        1 2N9     -0.077000
     10 CAN         4.3630   -0.1850    3.3220 c2        1 2N9     -0.166000
     11 CAO         3.6400    0.0650    7.0240 c1        1 2N9      0.126000
     12 CAP         6.8090    0.1010    3.6070 c2        1 2N9     -0.005000
     13 NAJ         3.6260    0.0290    5.7480 n2        1 2N9     -0.060000
     14 OAC         3.5470   -0.2800    1.0520 o         1 2N9     -0.511000
     15 OAK         2.1930    0.5130    2.6190 oh        1 2N9     -0.402000
     16 H1          0.2180   -0.9130   -0.1790 hc        1 2N9      0.153000
     17 H2          1.7220   -0.1190   -0.7600 hc        1 2N9      0.153000
     18 H3          0.0890    0.4280   -1.4140 hc        1 2N9      0.153000
     19 H4          2.9440    0.2680    9.0100 ha        1 2N9      0.244000
     20 H5          8.6000    0.8230    6.6240 ha        1 2N9      0.001000
     21 H6          8.2360    0.6990    6.0660 ha        1 2N9      0.001000
     22 H7          8.8570   -0.2120    4.2030 ha        1 2N9      0.241000
     23 H8          6.6050    0.7560    4.4780 ha        1 2N9      0.190000
     24 H9          1.4910    0.6740    1.7420 ho        1 2N9      0.343000
     25 H10        -0.0280    1.8490    0.6250 ha        1 2N9      0.104000
     26 H11         5.4850   -2.2120    1.9770 hn        1 2N9      0.266000
     27 H12         5.4290   -0.8780    0.9710 hn        1 2N9      0.266000
     28 HAB3        6.9190   -1.4510    1.5600 hn        1 2N9      0.266000
     29 NAB         5.9300   -1.3090    1.7800 n4        1 2N9     -0.030000
@<TRIPOS>BOND
     1    1    7 1   
     2    1   16 1   
     3    1   17 1   
     4    1   18 1   
     5    2    4 1   
     6    3    5 1   
     7    4   11 1   
     8    4   19 1   
     9    5   12 1   
    10    5   22 1   
    11    6   10 1   
    12    6   13 1   
    13    7   25 1   
    14    8   10 1   
    15    8   14 1   
    16    8   15 1   
    17    9   10 1   
    18    9   12 1   
    19    9   29 1   
    20   11   13 1   
    21   12   23 1   
    22   15   24 1   
    23   20   21 1   
    24   26   29 1   
    25   27   29 1   
    26   28   29 1   
@<TRIPOS>SUBSTRUCTURE
     1 2N9         1 TEMP              0 ****  ****    0 ROOT
