@<TRIPOS>MOLECULE
2N9
   28    23     1     0     0
SMALL
bcc


@<TRIPOS>ATOM
      1 CAA        -3.2380    1.3440   -3.7670 c3        1 2N9     -0.101100
      2 CAD         2.2450   -0.2700    4.1640 c1        1 2N9     -0.067000
      3 CAE         3.1850   -0.2320    3.1430 c1        1 2N9     -0.067000
      4 CAF         0.8790   -0.2740    3.8580 c1        1 2N9     -0.049000
      5 CAG         2.7630   -0.1980    1.7940 c1        1 2N9     -0.049000
      6 CAH        -1.3470   -0.2530    0.9260 c1        1 2N9      0.423300
      7 CAI        -2.1900    0.3640   -3.3820 c3        1 2N9      0.232100
      8 CAL        -1.0740   -0.4030   -1.4310 c1        1 2N9      0.608500
      9 CAM         0.9630   -0.1900    0.1850 c1        1 2N9      0.235000
     10 CAN        -0.4120   -0.2150   -0.1080 c1        1 2N9     -0.308000
     11 CAO         0.4530   -0.2400    2.5170 cg        1 2N9     -0.046000
     12 CAP         1.3860   -0.2020    1.4900 cg        1 2N9     -0.046000
     13 NAB         1.9500   -0.4220   -0.8850 n3        1 2N9     -0.460400
     14 NAJ        -0.9310   -0.2660    2.2180 n1        1 2N9     -0.511800
     15 OAC        -0.9170   -1.4820   -2.0670 o         1 2N9     -0.640500
     16 OAK        -1.7860    0.6070   -1.9790 o         1 2N9     -0.440500
     17 H1         -3.5330    1.1720   -4.7190 hc        1 2N9      0.048033
     18 H2         -2.8680    2.2700   -3.6970 hc        1 2N9      0.048033
     19 H3         -4.0010    1.2530   -3.1690 hc        1 2N9      0.048033
     20 H4          2.5170   -0.2900    5.0340 ha        1 2N9      0.079500
     21 H5          4.1480   -0.2310    3.3610 ha        1 2N9      0.079500
     22 H6          0.1750   -0.3050    4.6270 ha        1 2N9      0.081000
     23 H7          3.4740   -0.1730    1.0190 ha        1 2N9      0.081000
     24 H8         -2.3830   -0.2820    0.7030 ha        1 2N9      0.121500
     25 H9         -2.5690   -0.6160   -3.4730 h1        1 2N9      0.051700
     26 H10        -1.4450    0.4650   -3.9450 h1        1 2N9      0.051700
     27 H11         2.8180   -0.6980   -0.6690 hn        1 2N9      0.298700
     28 H12         1.7370   -0.2340   -1.7480 hn        1 2N9      0.298700
@<TRIPOS>BOND
     1    1    7 1   
     2    1   17 1   
     3    1   18 1   
     4    1   19 1   
     5    2    3 3   
     6    2   20 1   
     7    3   21 1   
     8    4   11 3   
     9    4   22 1   
    10    5   12 3   
    11    5   23 1   
    12    6   14 3   
    13    6   24 1   
    14    7   16 1   
    15    7   25 1   
    16    7   26 1   
    17    8   10 2   
    18    8   15 2   
    19    9   10 2   
    20    9   13 2   
    21   11   12 1   
    22   13   27 1   
    23   13   28 1   
@<TRIPOS>SUBSTRUCTURE
     1 2N9         1 TEMP              0 ****  ****    0 ROOT
