@<TRIPOS>MOLECULE
2N9
   28    25     1     0     0
SMALL
bcc


@<TRIPOS>ATOM
      1 CAA         1.8020    2.2000    1.6060 c3        1 2N9     -0.205000
      2 CAD         2.8180    3.8060    6.3670 c1        1 2N9      0.235000
      3 CAE         8.1330   -0.7150    4.3200 c1        1 2N9      0.248000
      4 CAF         2.9050    2.8850    5.5100 c1        1 2N9     -0.639000
      5 CAG         7.0930   -0.8060    3.5630 c1        1 2N9     -0.455000
      6 CAH         3.0280    0.3130    2.7340 c2        1 2N9      0.035000
      7 CAI         2.4230    0.8670    1.6540 c2        1 2N9     -0.144000
      8 CAL         2.7530   -2.0420    1.9640 c2        1 2N9      0.324000
      9 CAM         5.0150   -0.9940    2.0100 c2        1 2N9     -0.029000
     10 CAN         3.6570   -1.0690    2.6830 c3        1 2N9     -0.007000
     11 CAO         2.9950    1.9320    4.6240 c1        1 2N9      0.418000
     12 CAP         6.0820   -0.8990    2.7970 c1        1 2N9      0.085000
     13 NAJ         3.1560    0.9430    3.9590 n2        1 2N9     -0.221000
     14 OAC         2.2780   -1.9810    0.8260 o         1 2N9     -0.360000
     15 OAK         2.4400   -3.1300    2.7150 oh        1 2N9     -0.295000
     16 H1          1.8220    2.5990    0.5600 hc        1 2N9      0.101667
     17 H2          2.3170    2.9390    2.2690 hc        1 2N9      0.101667
     18 H3          0.7300    2.1320    1.9280 hc        1 2N9      0.101667
     19 H4          8.4470   -0.8340    9.2630 ha        1 2N9      0.004750
     20 H5          7.5530   -0.7580    6.5610 ha        1 2N9      0.004750
     21 H6          6.9290   -0.8370    6.3000 ha        1 2N9      0.004750
     22 H7          8.1140   -0.8360    8.6740 ha        1 2N9      0.004750
     23 H8          3.8070   -1.4710    3.7320 hc        1 2N9      0.169000
     24 H9          1.8790   -3.7350    2.1990 ho        1 2N9      0.255000
     25 H10         2.3510    0.2700    0.7250 ha        1 2N9      0.170000
     26 H11         5.9150   -0.7100    0.2200 hn        1 2N9      0.197000
     27 H12         4.2560   -0.8580    0.1460 hn        1 2N9      0.197000
     28 NAB         5.0980   -1.1200    0.6180 n8        1 2N9     -0.303000
@<TRIPOS>BOND
     1    1    7 1   
     2    1   16 1   
     3    1   17 1   
     4    1   18 1   
     5    2    4 1   
     6    3    5 1   
     7    4   11 1   
     8    5   12 1   
     9    6    7 1   
    10    6   10 1   
    11    6   13 1   
    12    7   25 1   
    13    8   10 1   
    14    8   14 1   
    15    8   15 1   
    16    9   10 1   
    17    9   12 1   
    18    9   28 1   
    19   10   23 1   
    20   11   13 1   
    21   15   24 1   
    22   19   22 1   
    23   20   21 1   
    24   26   28 1   
    25   27   28 1   
@<TRIPOS>SUBSTRUCTURE
     1 2N9         1 TEMP              0 ****  ****    0 ROOT
