@<TRIPOS>MOLECULE
2NA
   22    23     1     0     0
SMALL
bcc


@<TRIPOS>ATOM
      1 C1          0.6830   -0.6020   -0.1570 ca        1 2NA     -0.036000
      2 C2         -0.6760   -0.9910   -0.2920 ca        1 2NA     -0.121000
      3 C3         -1.6890   -0.0650   -0.1580 ca        1 2NA     -0.081300
      4 C4         -1.3770    1.2900    0.1230 ca        1 2NA     -0.101000
      5 C5         -0.0710    1.6880    0.2610 ca        1 2NA     -0.123000
      6 C6          0.9910    0.7540    0.1230 ca        1 2NA     -0.035000
      7 C7          2.3530    1.1410    0.2590 ca        1 2NA     -0.117000
      8 C8          3.3570    0.2160    0.1210 ca        1 2NA     -0.128000
      9 C9          3.0500   -1.1380   -0.1590 ca        1 2NA     -0.129000
     10 C30         1.7440   -1.5390   -0.2950 ca        1 2NA     -0.118000
     11 C31        -3.1060   -0.5050   -0.3300 c3        1 2NA      0.175700
     12 O31        -3.9800    0.5190    0.1230 oh        1 2NA     -0.597800
     13 H2         -0.9030   -2.0460   -0.5060 ha        1 2NA      0.130000
     14 H4         -2.2050    2.0090    0.2330 ha        1 2NA      0.154000
     15 H5          0.1750    2.7380    0.4810 ha        1 2NA      0.134000
     16 H7          2.5810    2.1960    0.4760 ha        1 2NA      0.132000
     17 H8          4.4120    0.5130    0.2250 ha        1 2NA      0.131000
     18 H9          3.8730   -1.8600   -0.2650 ha        1 2NA      0.131000
     19 H30         1.4960   -2.5890   -0.5110 ha        1 2NA      0.131000
     20 H31        -3.3050   -0.7150   -1.4190 h1        1 2NA      0.032200
     21 H31A       -3.2910   -1.4470    0.2580 h1        1 2NA      0.032200
     22 HO31       -4.8750    0.1800    0.0020 ho        1 2NA      0.403000
@<TRIPOS>BOND
     1    1    2 ar  
     2    1    6 ar  
     3    1   10 ar  
     4    2    3 ar  
     5    2   13 1   
     6    3    4 ar  
     7    3   11 1   
     8    4    5 ar  
     9    4   14 1   
    10    5    6 ar  
    11    5   15 1   
    12    6    7 ar  
    13    7    8 ar  
    14    7   16 1   
    15    8    9 ar  
    16    8   17 1   
    17    9   10 ar  
    18    9   18 1   
    19   10   19 1   
    20   11   12 1   
    21   11   20 1   
    22   11   21 1   
    23   12   22 1   
@<TRIPOS>SUBSTRUCTURE
     1 2NA         1 TEMP              0 ****  ****    0 ROOT
