@<TRIPOS>MOLECULE
2NA
   22    23     1     0     0
SMALL
bcc


@<TRIPOS>ATOM
      1 C1         -0.0290   -0.0460   -0.0370 ca        1 2NA     -0.036000
      2 C2          1.3910   -0.0230   -0.0730 ca        1 2NA     -0.121000
      3 C3          2.1210    0.1460    1.0830 ca        1 2NA     -0.081300
      4 C4          1.4540    0.3060    2.3260 ca        1 2NA     -0.101000
      5 C5          0.0830    0.2890    2.3850 ca        1 2NA     -0.123000
      6 C6         -0.6930    0.1120    1.2070 ca        1 2NA     -0.035000
      7 C7         -2.1140    0.0890    1.2410 ca        1 2NA     -0.117000
      8 C8         -2.8360   -0.0840    0.0860 ca        1 2NA     -0.128000
      9 C9         -2.1730   -0.2410   -1.1560 ca        1 2NA     -0.129000
     10 C30        -0.8020   -0.2230   -1.2170 ca        1 2NA     -0.118000
     11 C31         3.6130    0.1420    1.0110 c3        1 2NA      0.175700
     12 O31         4.1500    0.6070    2.2410 oh        1 2NA     -0.597800
     13 H2          1.8950   -0.1430   -1.0440 ha        1 2NA      0.130000
     14 H4          2.0600    0.4470    3.2350 ha        1 2NA      0.154000
     15 H5         -0.4390    0.4140    3.3450 ha        1 2NA      0.134000
     16 H7         -2.6190    0.2120    2.2100 ha        1 2NA      0.132000
     17 H8         -3.9360   -0.1020    0.1100 ha        1 2NA      0.131000
     18 H9         -2.7740   -0.3780   -2.0670 ha        1 2NA      0.131000
     19 H30        -0.2790   -0.3450   -2.1770 ha        1 2NA      0.131000
     20 H31         3.9600    0.8070    0.1720 h1        1 2NA      0.032200
     21 H31A        3.9760   -0.9060    0.8140 h1        1 2NA      0.032200
     22 HO31        5.1090    0.5970    2.1360 ho        1 2NA      0.403000
@<TRIPOS>BOND
     1    1    2 ar  
     2    1    6 ar  
     3    1   10 ar  
     4    2    3 ar  
     5    2   13 1   
     6    3    4 ar  
     7    3   11 1   
     8    4    5 ar  
     9    4   14 1   
    10    5    6 ar  
    11    5   15 1   
    12    6    7 ar  
    13    7    8 ar  
    14    7   16 1   
    15    8    9 ar  
    16    8   17 1   
    17    9   10 ar  
    18    9   18 1   
    19   10   19 1   
    20   11   12 1   
    21   11   20 1   
    22   11   21 1   
    23   12   22 1   
@<TRIPOS>SUBSTRUCTURE
     1 2NA         1 TEMP              0 ****  ****    0 ROOT
