@<TRIPOS>MOLECULE
2NA
   22    23     1     0     0
SMALL
bcc


@<TRIPOS>ATOM
      1 C1         -0.0260   -0.0590   -0.0360 ca        1 2NA     -0.036000
      2 C2          1.3930   -0.0460   -0.0670 ca        1 2NA     -0.121000
      3 C3          2.1200    0.1430    1.0890 ca        1 2NA     -0.081300
      4 C4          1.4490    0.3330    2.3250 ca        1 2NA     -0.101000
      5 C5          0.0770    0.3270    2.3780 ca        1 2NA     -0.123000
      6 C6         -0.6940    0.1300    1.2010 ca        1 2NA     -0.035000
      7 C7         -2.1160    0.1180    1.2290 ca        1 2NA     -0.117000
      8 C8         -2.8350   -0.0740    0.0750 ca        1 2NA     -0.128000
      9 C9         -2.1680   -0.2630   -1.1600 ca        1 2NA     -0.129000
     10 C30        -0.7960   -0.2550   -1.2160 ca        1 2NA     -0.118000
     11 C31         3.6120    0.1260    1.0230 c3        1 2NA      0.175700
     12 O31         4.1470    0.6210    2.2420 oh        1 2NA     -0.597800
     13 H2          1.9010   -0.1910   -1.0330 ha        1 2NA      0.130000
     14 H4          2.0520    0.4890    3.2330 ha        1 2NA      0.154000
     15 H5         -0.4470    0.4760    3.3340 ha        1 2NA      0.134000
     16 H7         -2.6240    0.2650    2.1940 ha        1 2NA      0.132000
     17 H8         -3.9340   -0.0840    0.0950 ha        1 2NA      0.131000
     18 H9         -2.7660   -0.4140   -2.0710 ha        1 2NA      0.131000
     19 H30        -0.2700   -0.4010   -2.1710 ha        1 2NA      0.131000
     20 H31         3.9680    0.7650    0.1680 h1        1 2NA      0.032200
     21 H31A        3.9690   -0.9300    0.8580 h1        1 2NA      0.032200
     22 HO31        5.1060    0.6010    2.1420 ho        1 2NA      0.403000
@<TRIPOS>BOND
     1    1    2 ar  
     2    1    6 ar  
     3    1   10 ar  
     4    2    3 ar  
     5    2   13 1   
     6    3    4 ar  
     7    3   11 1   
     8    4    5 ar  
     9    4   14 1   
    10    5    6 ar  
    11    5   15 1   
    12    6    7 ar  
    13    7    8 ar  
    14    7   16 1   
    15    8    9 ar  
    16    8   17 1   
    17    9   10 ar  
    18    9   18 1   
    19   10   19 1   
    20   11   12 1   
    21   11   20 1   
    22   11   21 1   
    23   12   22 1   
@<TRIPOS>SUBSTRUCTURE
     1 2NA         1 TEMP              0 ****  ****    0 ROOT
