@<TRIPOS>MOLECULE
2NA
   22    19     1     0     0
SMALL
bcc


@<TRIPOS>ATOM
      1 C1         -0.5120    0.0490   -0.7320 c1        1 2NA     -0.035500
      2 C2          0.9040    0.0900   -0.7270 c1        1 2NA     -0.121000
      3 C3          1.6010    0.1420    0.4900 c1        1 2NA     -0.074000
      4 C4          0.8980    0.1550    1.7000 c1        1 2NA     -0.112000
      5 C5         -0.5080    0.1150    1.6970 c1        1 2NA     -0.112000
      6 C6         -1.2110    0.0620    0.4680 c1        1 2NA     -0.035500
      7 C7         -2.6250    0.0670    0.4610 c2        1 2NA     -0.117500
      8 C8         -3.3150    0.0590   -0.7480 c1        1 2NA     -0.128500
      9 C9         -2.6080    0.0470   -1.9610 c1        1 2NA     -0.128500
     10 C30        -1.2120    0.0420   -1.9560 c2        1 2NA     -0.117500
     11 C31         3.1270    0.0820    0.5280 c3        1 2NA      0.018000
     12 O31         3.5440   -1.2690    0.7250 oh        1 2NA     -0.325000
     13 H2          1.3980    0.0810   -1.5760 ha        1 2NA      0.130000
     14 H4          1.3790    0.1920    2.5400 ha        1 2NA      0.144000
     15 H5         -1.0080    0.1230    2.5530 ha        1 2NA      0.144000
     16 H7         -3.1230    0.0750    1.3150 ha        1 2NA      0.131500
     17 H8         -4.3080    0.0640   -0.7520 ha        1 2NA      0.131000
     18 H9         -3.0910    0.0420   -2.8040 ha        1 2NA      0.131000
     19 H30        -0.7140    0.0320   -2.8110 ha        1 2NA      0.131500
     20 H31         3.4650    0.6500    1.2820 h1        1 2NA      0.071500
     21 H31A        3.4920    0.4190   -0.3290 h1        1 2NA      0.071500
     22 HO31        4.4260   -1.3200    0.6360 ho        1 2NA      0.202000
@<TRIPOS>BOND
     1    1    6 1   
     2    1   10 1   
     3    2    3 1   
     4    2   13 1   
     5    3   11 1   
     6    4    5 1   
     7    4   14 1   
     8    5   15 1   
     9    6    7 1   
    10    7    8 1   
    11    7   16 1   
    12    8   17 1   
    13    9   10 1   
    14    9   18 1   
    15   10   19 1   
    16   11   12 1   
    17   11   20 1   
    18   11   21 1   
    19   12   22 1   
@<TRIPOS>SUBSTRUCTURE
     1 2NA         1 TEMP              0 ****  ****    0 ROOT
