@<TRIPOS>MOLECULE
2NB
   21    22     1     0     0
SMALL
bcc


@<TRIPOS>ATOM
      1 OAB         0.2150   -0.5490    0.2800 o         1 2NB     -0.235500
      2 NAN         1.2760   -0.0020    0.0840 no        1 2NB      0.341200
      3 OAC         1.8180    0.6130    0.9660 o         1 2NB     -0.235500
      4 CAK         1.9260   -0.0700   -1.2270 ca        1 2NB     -0.443500
      5 CAH         3.1870    0.6160   -1.3610 ca        1 2NB      0.507200
      6 NAI         3.9000    0.6570   -2.4580 nb        1 2NB     -0.696000
      7 CAL         3.4170   -0.0040   -3.5790 ca        1 2NB      0.450600
      8 CAF         4.1930    0.0380   -4.7780 ca        1 2NB     -0.177300
      9 CAD         3.7560   -0.6010   -5.9140 ca        1 2NB     -0.097000
     10 CAE         2.5380   -1.3080   -5.9110 ca        1 2NB     -0.139000
     11 CAG         1.7700   -1.3640   -4.7680 ca        1 2NB     -0.098000
     12 CAM         2.1840   -0.7190   -3.5780 ca        1 2NB     -0.213300
     13 CAJ         1.3930   -0.7600   -2.3470 ca        1 2NB      0.330600
     14 NAA         0.2160   -1.4310   -2.3140 nh        1 2NB     -0.838200
     15 H1          3.6010    1.1550   -0.4810 h4        1 2NB      0.058100
     16 H2          5.1460    0.5920   -4.7750 ha        1 2NB      0.160000
     17 H3          4.3570   -0.5660   -6.8370 ha        1 2NB      0.143000
     18 H4          2.2040   -1.8130   -6.8290 ha        1 2NB      0.141000
     19 H5          0.8260   -1.9280   -4.8150 ha        1 2NB      0.125000
     20 H6         -0.1190   -1.8990   -3.1190 hn        1 2NB      0.458300
     21 H7         -0.3350   -1.4690   -1.4860 hn        1 2NB      0.458300
@<TRIPOS>BOND
     1    1    2 1   
     2    2    3 1   
     3    2    4 1   
     4    4    5 ar  
     5    4   13 ar  
     6    5    6 ar  
     7    5   15 1   
     8    6    7 ar  
     9    7    8 ar  
    10    7   12 ar  
    11    8    9 ar  
    12    8   16 1   
    13    9   10 ar  
    14    9   17 1   
    15   10   11 ar  
    16   10   18 1   
    17   11   12 ar  
    18   11   19 1   
    19   12   13 ar  
    20   13   14 1   
    21   14   20 1   
    22   14   21 1   
@<TRIPOS>SUBSTRUCTURE
     1 2NB         1 TEMP              0 ****  ****    0 ROOT
