@<TRIPOS>MOLECULE
2NB
   21    15     1     0     0
SMALL
bcc


@<TRIPOS>ATOM
      1 OAB        -3.0000    0.4290    2.8160 o         1 2NB     -0.331200
      2 NAN        -1.6340    0.4290    2.8160 n2        1 2NB      0.487400
      3 OAC        -1.0230    0.4290    3.8750 o         1 2NB     -0.331200
      4 CAK        -0.9250    0.4290    1.5870 c1        1 2NB     -0.333000
      5 CAH        -0.6960    1.7580    1.2430 c2        1 2NB      0.042000
      6 NAI        -0.0250    2.0600    0.0930 n1        1 2NB     -0.170000
      7 CAL         0.4290    1.0460   -0.7330 c1        1 2NB     -0.045500
      8 CAF         1.1200    1.3590   -1.9190 c1        1 2NB     -0.105000
      9 CAD         1.5750    0.3410   -2.7470 c1        1 2NB     -0.118000
     10 CAE         1.3480   -0.9890   -2.4050 c1        1 2NB     -0.118000
     11 CAG         0.6660   -1.2990   -1.2360 c1        1 2NB     -0.105000
     12 CAM         0.2040   -0.2680   -0.3950 c1        1 2NB     -0.045500
     13 CAJ        -0.4780   -0.5750    0.7730 c1        1 2NB      0.249000
     14 NAA        -0.6540   -1.8930    1.2680 n2        1 2NB     -0.347000
     15 H1         -0.9920    2.4730    1.8380 h4        1 2NB      0.195000
     16 H2          1.2800    2.2910   -2.1590 ha        1 2NB      0.142500
     17 H3          2.0550    0.5580   -3.5690 ha        1 2NB      0.142000
     18 H4          1.6680   -1.7040   -2.9870 ha        1 2NB      0.142000
     19 H5          0.5060   -2.2320   -0.9960 ha        1 2NB      0.142500
     20 H6         -1.4780   -2.1710    1.5430 hn        1 2NB      0.253500
     21 H7          0.0530   -2.4690    1.2920 hn        1 2NB      0.253500
@<TRIPOS>BOND
     1    1    2 2   
     2    2    3 2   
     3    4    5 1   
     4    4   13 1   
     5    5    6 1   
     6    5   15 1   
     7    7    8 1   
     8    8   16 1   
     9    9   10 1   
    10    9   17 1   
    11   10   18 1   
    12   11   12 1   
    13   11   19 1   
    14   14   20 1   
    15   14   21 1   
@<TRIPOS>SUBSTRUCTURE
     1 2NB         1 TEMP              0 ****  ****    0 ROOT
