@<TRIPOS>MOLECULE
2NB
   21    22     1     0     0
SMALL
bcc


@<TRIPOS>ATOM
      1 OAB         3.3100    0.9600    0.0350 o         1 2NB     -0.235500
      2 NAN         2.7950   -0.1330   -0.0030 no        1 2NB      0.341200
      3 OAC         3.4730   -1.1270   -0.0400 o         1 2NB     -0.235500
      4 CAK         1.3370   -0.2770   -0.0060 ca        1 2NB     -0.443500
      5 CAH         0.8190   -1.6220   -0.0530 ca        1 2NB      0.507200
      6 NAI        -0.4530   -1.9310   -0.0620 nb        1 2NB     -0.696000
      7 CAL        -1.3790   -0.8980   -0.0230 ca        1 2NB      0.450600
      8 CAF        -2.7680   -1.2310   -0.0330 ca        1 2NB     -0.177300
      9 CAD        -3.7230   -0.2430    0.0040 ca        1 2NB     -0.097000
     10 CAE        -3.3440    1.1130    0.0520 ca        1 2NB     -0.139000
     11 CAG        -2.0110    1.4620    0.0620 ca        1 2NB     -0.098000
     12 CAM        -0.9970    0.4750    0.0250 ca        1 2NB     -0.213300
     13 CAJ         0.4270    0.8110    0.0350 ca        1 2NB      0.330600
     14 NAA         0.8220    2.1070    0.0810 nh        1 2NB     -0.838200
     15 H1          1.5350   -2.4730   -0.0850 h4        1 2NB      0.058100
     16 H2         -3.0590   -2.2940   -0.0710 ha        1 2NB      0.160000
     17 H3         -4.7930   -0.5040   -0.0040 ha        1 2NB      0.143000
     18 H4         -4.1220    1.8910    0.0810 ha        1 2NB      0.141000
     19 H5         -1.7640    2.5340    0.1000 ha        1 2NB      0.125000
     20 H6          0.1540    2.8360    0.1080 hn        1 2NB      0.458300
     21 H7          1.7860    2.3540    0.0880 hn        1 2NB      0.458300
@<TRIPOS>BOND
     1    1    2 1   
     2    2    3 1   
     3    2    4 1   
     4    4    5 ar  
     5    4   13 ar  
     6    5    6 ar  
     7    5   15 1   
     8    6    7 ar  
     9    7    8 ar  
    10    7   12 ar  
    11    8    9 ar  
    12    8   16 1   
    13    9   10 ar  
    14    9   17 1   
    15   10   11 ar  
    16   10   18 1   
    17   11   12 ar  
    18   11   19 1   
    19   12   13 ar  
    20   13   14 1   
    21   14   20 1   
    22   14   21 1   
@<TRIPOS>SUBSTRUCTURE
     1 2NB         1 TEMP              0 ****  ****    0 ROOT
