@<TRIPOS>MOLECULE
2NB
   21    22     1     0     0
SMALL
bcc


@<TRIPOS>ATOM
      1 OAB         0.2270   -0.5520    0.2920 o         1 2NB     -0.235500
      2 NAN         1.2880   -0.0070    0.0940 no        1 2NB      0.341200
      3 OAC         1.8360    0.6010    0.9760 o         1 2NB     -0.235500
      4 CAK         1.9330   -0.0720   -1.2200 ca        1 2NB     -0.443500
      5 CAH         3.1960    0.6100   -1.3560 ca        1 2NB      0.507200
      6 NAI         3.9050    0.6530   -2.4560 nb        1 2NB     -0.696000
      7 CAL         3.4140   -0.0020   -3.5780 ca        1 2NB      0.450600
      8 CAF         4.1850    0.0430   -4.7800 ca        1 2NB     -0.177300
      9 CAD         3.7420   -0.5900   -5.9170 ca        1 2NB     -0.097000
     10 CAE         2.5200   -1.2910   -5.9120 ca        1 2NB     -0.139000
     11 CAG         1.7570   -1.3500   -4.7660 ca        1 2NB     -0.098000
     12 CAM         2.1790   -0.7120   -3.5750 ca        1 2NB     -0.213300
     13 CAJ         1.3930   -0.7550   -2.3410 ca        1 2NB      0.330600
     14 NAA         0.2140   -1.4220   -2.3060 nv        1 2NB     -0.838200
     15 H1          3.6150    1.1440   -0.4760 h4        1 2NB      0.058100
     16 H2          5.1400    0.5930   -4.7780 ha        1 2NB      0.160000
     17 H3          4.3390   -0.5530   -6.8420 ha        1 2NB      0.143000
     18 H4          2.1810   -1.7920   -6.8310 ha        1 2NB      0.141000
     19 H5          0.8110   -1.9100   -4.8110 ha        1 2NB      0.125000
     20 H6         -0.1270   -1.8860   -3.1110 hn        1 2NB      0.458300
     21 H7         -0.3350   -1.4620   -1.4750 hn        1 2NB      0.458300
@<TRIPOS>BOND
     1    1    2 1   
     2    2    3 1   
     3    2    4 1   
     4    4    5 ar  
     5    4   13 ar  
     6    5    6 ar  
     7    5   15 1   
     8    6    7 ar  
     9    7    8 ar  
    10    7   12 ar  
    11    8    9 ar  
    12    8   16 1   
    13    9   10 ar  
    14    9   17 1   
    15   10   11 ar  
    16   10   18 1   
    17   11   12 ar  
    18   11   19 1   
    19   12   13 ar  
    20   13   14 1   
    21   14   20 1   
    22   14   21 1   
@<TRIPOS>SUBSTRUCTURE
     1 2NB         1 TEMP              0 ****  ****    0 ROOT
