@<TRIPOS>MOLECULE
2NB
   21    22     1     0     0
SMALL
bcc


@<TRIPOS>ATOM
      1 OAB         0.2380   -0.5600    0.2990 o         1 2NB     -0.235500
      2 NAN         1.2860    0.0050    0.0910 no        1 2NB      0.341200
      3 OAC         1.8240    0.6340    0.9660 o         1 2NB     -0.235500
      4 CAK         1.9290   -0.0600   -1.2240 ca        1 2NB     -0.443500
      5 CAH         3.1770    0.6470   -1.3710 ca        1 2NB      0.507200
      6 NAI         3.8810    0.6940   -2.4730 nb        1 2NB     -0.696000
      7 CAL         3.4020    0.0180   -3.5870 ca        1 2NB      0.450600
      8 CAF         4.1680    0.0660   -4.7910 ca        1 2NB     -0.177300
      9 CAD         3.7350   -0.5870   -5.9210 ca        1 2NB     -0.097000
     10 CAE         2.5290   -1.3150   -5.9040 ca        1 2NB     -0.139000
     11 CAG         1.7710   -1.3780   -4.7560 ca        1 2NB     -0.098000
     12 CAM         2.1820   -0.7190   -3.5720 ca        1 2NB     -0.213300
     13 CAJ         1.4000   -0.7650   -2.3360 ca        1 2NB      0.330600
     14 NAA         0.2360   -1.4570   -2.2910 nh        1 2NB     -0.838200
     15 H1          3.5870    1.1990   -0.4970 h4        1 2NB      0.058100
     16 H2          5.1120    0.6370   -4.7980 ha        1 2NB      0.160000
     17 H3          4.3290   -0.5480   -6.8480 ha        1 2NB      0.143000
     18 H4          2.1980   -1.8310   -6.8180 ha        1 2NB      0.141000
     19 H5          0.8360   -1.9580   -4.7930 ha        1 2NB      0.125000
     20 H6         -0.0970   -1.9360   -3.0900 hn        1 2NB      0.458300
     21 H7         -0.3090   -1.5000   -1.4580 hn        1 2NB      0.458300
@<TRIPOS>BOND
     1    1    2 1   
     2    2    3 1   
     3    2    4 1   
     4    4    5 ar  
     5    4   13 ar  
     6    5    6 ar  
     7    5   15 1   
     8    6    7 ar  
     9    7    8 ar  
    10    7   12 ar  
    11    8    9 ar  
    12    8   16 1   
    13    9   10 ar  
    14    9   17 1   
    15   10   11 ar  
    16   10   18 1   
    17   11   12 ar  
    18   11   19 1   
    19   12   13 ar  
    20   13   14 1   
    21   14   20 1   
    22   14   21 1   
@<TRIPOS>SUBSTRUCTURE
     1 2NB         1 TEMP              0 ****  ****    0 ROOT
