@<TRIPOS>MOLECULE
2ND
   30    32     1     0     0
SMALL
bcc


@<TRIPOS>ATOM
      1 O6         -4.3360    1.7020   -0.6960 o         1 2ND     -0.592500
      2 C6         -3.5390    0.7990   -0.4070 c         1 2ND      0.634000
      3 N1         -3.9930   -0.5490   -0.4440 n         1 2ND     -0.496400
      4 C2         -3.1620   -1.6130   -0.1360 cc        1 2ND      0.494800
      5 N3         -1.8890   -1.5580    0.2180 nd        1 2ND     -0.611100
      6 C4         -1.3780   -0.2630    0.2770 cd        1 2ND      0.059800
      7 C5         -2.1420    0.9260   -0.0170 cc        1 2ND      0.209800
      8 N7         -1.3500    2.0610    0.1450 nc        1 2ND     -0.593000
      9 C8         -0.1440    1.5930    0.5240 cd        1 2ND      0.414400
     10 N9         -0.0980    0.1830    0.6170 na        1 2ND     -0.217900
     11 C1'         1.0090   -0.6490    1.0510 c3        1 2ND      0.263800
     12 O4'         2.1420    0.1730    1.3590 os        1 2ND     -0.406600
     13 C2'         1.4700   -1.6930    0.0090 c3        1 2ND     -0.147400
     14 C3'         2.8190   -1.1850   -0.5100 c3        1 2ND      0.117100
     15 O3'         3.8530   -2.1290   -0.2900 oh        1 2ND     -0.591800
     16 C4'         3.1510    0.0530    0.3460 c3        1 2ND      0.092100
     17 C5'         3.1880    1.3390   -0.4810 c3        1 2ND      0.106400
     18 O5'         4.1420    1.2560   -1.5180 oh        1 2ND     -0.587800
     19 HN1        -4.9410   -0.7170   -0.6970 hn        1 2ND      0.339500
     20 H2         -3.6190   -2.6260   -0.1950 h5        1 2ND      0.055800
     21 H8          0.7390    2.2020    0.7600 h5        1 2ND      0.078100
     22 H1'         0.7130   -1.1310    2.0310 h2        1 2ND      0.102700
     23 H2'1        1.5950   -2.6800    0.5220 hc        1 2ND      0.084700
     24 H2'2        0.7360   -1.8230   -0.8230 hc        1 2ND      0.084700
     25 H3'         2.7720   -0.9120   -1.5990 h1        1 2ND      0.073700
     26 H1          3.7040   -2.8550   -0.9070 ho        1 2ND      0.410000
     27 H4'         4.1180   -0.0930    0.9030 h1        1 2ND      0.096700
     28 H5'1        3.4060    2.2090    0.1940 h1        1 2ND      0.060700
     29 H5'2        2.2080    1.5090   -1.0030 h1        1 2ND      0.060700
     30 H5'         5.0060    1.1290   -1.1070 ho        1 2ND      0.405000
@<TRIPOS>BOND
     1    1    2 2   
     2    2    3 1   
     3    2    7 1   
     4    3    4 1   
     5    3   19 1   
     6    4    5 2   
     7    4   20 1   
     8    5    6 1   
     9    6    7 2   
    10    6   10 1   
    11    7    8 1   
    12    8    9 2   
    13    9   10 1   
    14    9   21 1   
    15   10   11 1   
    16   11   12 1   
    17   11   13 1   
    18   11   22 1   
    19   12   16 1   
    20   13   14 1   
    21   13   23 1   
    22   13   24 1   
    23   14   15 1   
    24   14   16 1   
    25   14   25 1   
    26   15   26 1   
    27   16   17 1   
    28   16   27 1   
    29   17   18 1   
    30   17   28 1   
    31   17   29 1   
    32   18   30 1   
@<TRIPOS>SUBSTRUCTURE
     1 2ND         1 TEMP              0 ****  ****    0 ROOT
