@<TRIPOS>MOLECULE
2ND
   30    32     1     0     0
SMALL
bcc


@<TRIPOS>ATOM
      1 O6         -0.1050    0.3280   -0.6930 o         1 2ND     -0.590500
      2 C6          1.1160    0.1320   -0.6420 c         1 2ND      0.634000
      3 N1          1.6810   -0.3450    0.5740 ns        1 2ND     -0.496400
      4 C2          3.0360   -0.5920    0.7090 cc        1 2ND      0.495800
      5 N3          3.9730   -0.4390   -0.2130 nd        1 2ND     -0.613100
      6 C4          3.4890    0.0300   -1.4330 cd        1 2ND      0.059800
      7 C5          2.1020    0.3260   -1.6960 cc        1 2ND      0.209800
      8 N7          1.9470    0.7860   -3.0030 nc        1 2ND     -0.591000
      9 C8          3.1890    0.7740   -3.5270 cd        1 2ND      0.414400
     10 N9          4.1710    0.3180   -2.6180 na        1 2ND     -0.219900
     11 C1'         5.6070    0.2260   -2.8120 c3        1 2ND      0.265800
     12 O4'         5.9540    0.6910   -4.1220 os        1 2ND     -0.419600
     13 C2'         6.1770   -1.2020   -2.6690 c3        1 2ND     -0.150400
     14 C3'         6.4920   -1.6570   -4.0980 c3        1 2ND      0.121100
     15 O3'         7.8350   -2.0880   -4.2340 oh        1 2ND     -0.586800
     16 C4'         6.3300   -0.4030   -4.9760 c3        1 2ND      0.089100
     17 C5'         5.2620   -0.5830   -6.0530 c3        1 2ND      0.113400
     18 O5'         5.1620    0.5610   -6.8730 oh        1 2ND     -0.587800
     19 HN1         1.0700   -0.4950    1.3460 hn        1 2ND      0.339500
     20 H2          3.3720   -0.9610    1.7030 h5        1 2ND      0.055800
     21 H8          3.4600    1.0870   -4.5430 h5        1 2ND      0.075100
     22 H1'         6.0970    0.9510   -2.0940 h2        1 2ND      0.104700
     23 H2'1        7.1150   -1.1540   -2.0610 hc        1 2ND      0.085200
     24 H2'2        5.4680   -1.8990   -2.1630 hc        1 2ND      0.085200
     25 H3'         5.7950   -2.4760   -4.4270 h1        1 2ND      0.056700
     26 H1          7.9290   -2.8850   -3.6980 ho        1 2ND      0.410000
     27 H4'         7.3090   -0.0940   -5.4380 h1        1 2ND      0.112700
     28 H5'1        4.2670   -0.8070   -5.5820 h1        1 2ND      0.057200
     29 H5'2        5.5530   -1.4150   -6.7480 h1        1 2ND      0.057200
     30 H5'         5.0500    1.3240   -6.2900 ho        1 2ND      0.410000
@<TRIPOS>BOND
     1    1    2 2   
     2    2    3 1   
     3    2    7 1   
     4    3    4 1   
     5    3   19 1   
     6    4    5 2   
     7    4   20 1   
     8    5    6 1   
     9    6    7 2   
    10    6   10 1   
    11    7    8 1   
    12    8    9 2   
    13    9   10 1   
    14    9   21 1   
    15   10   11 1   
    16   11   12 1   
    17   11   13 1   
    18   11   22 1   
    19   12   16 1   
    20   13   14 1   
    21   13   23 1   
    22   13   24 1   
    23   14   15 1   
    24   14   16 1   
    25   14   25 1   
    26   15   26 1   
    27   16   17 1   
    28   16   27 1   
    29   17   18 1   
    30   17   28 1   
    31   17   29 1   
    32   18   30 1   
@<TRIPOS>SUBSTRUCTURE
     1 2ND         1 TEMP              0 ****  ****    0 ROOT
