@<TRIPOS>MOLECULE
2ND
   30    32     1     0     0
SMALL
bcc


@<TRIPOS>ATOM
      1 O6         -0.0710    0.4070   -0.6500 o         1 2ND     -0.590500
      2 C6          1.1450    0.1790   -0.6110 c         1 2ND      0.634000
      3 N1          1.7060   -0.3300    0.5950 n         1 2ND     -0.496400
      4 C2          3.0560   -0.6120    0.7160 cc        1 2ND      0.495800
      5 N3          3.9900   -0.4680   -0.2100 nd        1 2ND     -0.613100
      6 C4          3.5100    0.0320   -1.4190 cd        1 2ND      0.059800
      7 C5          2.1280    0.3660   -1.6680 cc        1 2ND      0.209800
      8 N7          1.9760    0.8500   -2.9670 nc        1 2ND     -0.591000
      9 C8          3.2140    0.8150   -3.4990 cd        1 2ND      0.414400
     10 N9          4.1910    0.3210   -2.6040 na        1 2ND     -0.219900
     11 C1'         5.6230    0.1970   -2.8090 c3        1 2ND      0.265800
     12 O4'         5.9730    0.6740   -4.1140 os        1 2ND     -0.419600
     13 C2'         6.1580   -1.2480   -2.6930 c3        1 2ND     -0.150400
     14 C3'         6.4520   -1.6870   -4.1320 c3        1 2ND      0.121100
     15 O3'         7.7820   -2.1490   -4.2840 oh        1 2ND     -0.586800
     16 C4'         6.3160   -0.4150   -4.9880 c3        1 2ND      0.089100
     17 C5'         5.2380   -0.5510   -6.0610 c3        1 2ND      0.113400
     18 O5'         5.1610    0.6090   -6.8610 oh        1 2ND     -0.587800
     19 HN1         1.0970   -0.4770    1.3680 hn        1 2ND      0.339500
     20 H2          3.3890   -1.0040    1.7020 h5        1 2ND      0.055800
     21 H8          3.4870    1.1370   -4.5120 h5        1 2ND      0.075100
     22 H1'         6.1360    0.8970   -2.0830 h2        1 2ND      0.104700
     23 H2'1        7.1010   -1.2320   -2.0910 hc        1 2ND      0.085200
     24 H2'2        5.4350   -1.9350   -2.1930 hc        1 2ND      0.085200
     25 H3'         5.7330   -2.4820   -4.4690 h1        1 2ND      0.056700
     26 H1          7.8600   -2.9570   -3.7620 ho        1 2ND      0.410000
     27 H4'         7.3000   -0.1240   -5.4510 h1        1 2ND      0.112700
     28 H5'1        5.5030   -1.3790   -6.7710 h1        1 2ND      0.057200
     29 H5'2        4.2400   -0.7580   -5.5870 h1        1 2ND      0.057200
     30 H5'         5.0720    1.3650   -6.2650 ho        1 2ND      0.410000
@<TRIPOS>BOND
     1    1    2 2   
     2    2    3 1   
     3    2    7 1   
     4    3    4 1   
     5    3   19 1   
     6    4    5 2   
     7    4   20 1   
     8    5    6 1   
     9    6    7 2   
    10    6   10 1   
    11    7    8 1   
    12    8    9 2   
    13    9   10 1   
    14    9   21 1   
    15   10   11 1   
    16   11   12 1   
    17   11   13 1   
    18   11   22 1   
    19   12   16 1   
    20   13   14 1   
    21   13   23 1   
    22   13   24 1   
    23   14   15 1   
    24   14   16 1   
    25   14   25 1   
    26   15   26 1   
    27   16   17 1   
    28   16   27 1   
    29   17   18 1   
    30   17   28 1   
    31   17   29 1   
    32   18   30 1   
@<TRIPOS>SUBSTRUCTURE
     1 2ND         1 TEMP              0 ****  ****    0 ROOT
