@<TRIPOS>MOLECULE
2ND
   30    32     1     0     0
SMALL
bcc


@<TRIPOS>ATOM
      1 O6          0.0010    0.5560   -0.5660 o         1 2ND     -0.590500
      2 C6          1.2070    0.2750   -0.5490 c         1 2ND      0.634000
      3 N1          1.7600   -0.2840    0.6360 n         1 2ND     -0.496400
      4 C2          3.0980   -0.6280    0.7320 cc        1 2ND      0.495800
      5 N3          4.0250   -0.5040   -0.2050 nd        1 2ND     -0.613100
      6 C4          3.5510    0.0430   -1.3960 cd        1 2ND      0.059800
      7 C5          2.1820    0.4420   -1.6170 cc        1 2ND      0.209800
      8 N7          2.0340    0.9600   -2.9030 nc        1 2ND     -0.591000
      9 C8          3.2620    0.8840   -3.4540 cd        1 2ND      0.414400
     10 N9          4.2280    0.3280   -2.5840 na        1 2ND     -0.219900
     11 C1'         5.6500    0.1460   -2.8130 c3        1 2ND      0.265800
     12 O4'         6.0030    0.6350   -4.1120 os        1 2ND     -0.419600
     13 C2'         6.1230   -1.3220   -2.7350 c3        1 2ND     -0.150400
     14 C3'         6.3780   -1.7440   -4.1860 c3        1 2ND      0.121100
     15 O3'         7.6850   -2.2590   -4.3680 oh        1 2ND     -0.586800
     16 C4'         6.2850   -0.4490   -5.0140 c3        1 2ND      0.089100
     17 C5'         5.1870   -0.5150   -6.0730 c3        1 2ND      0.113400
     18 O5'         5.1500    0.6640   -6.8480 oh        1 2ND     -0.587800
     19 HN1         1.1560   -0.4210    1.4150 hn        1 2ND      0.339500
     20 H2          3.4280   -1.0560    1.7040 h5        1 2ND      0.055800
     21 H8          3.5340    1.2160   -4.4640 h5        1 2ND      0.075100
     22 H1'         6.2030    0.8080   -2.0800 h2        1 2ND      0.104700
     23 H2'1        7.0740   -1.3610   -2.1460 hc        1 2ND      0.085200
     24 H2'2        5.3780   -1.9880   -2.2390 hc        1 2ND      0.085200
     25 H3'         5.6200   -2.5000   -4.5290 h1        1 2ND      0.056700
     26 H1          7.7340   -3.0810   -3.8630 ho        1 2ND      0.410000
     27 H4'         7.2740   -0.1910   -5.4860 h1        1 2ND      0.112700
     28 H5'1        5.4060   -1.3390   -6.8040 h1        1 2ND      0.057200
     29 H5'2        4.1880   -0.6880   -5.5880 h1        1 2ND      0.057200
     30 H5'         5.1030    1.4100   -6.2360 ho        1 2ND      0.410000
@<TRIPOS>BOND
     1    1    2 2   
     2    2    3 1   
     3    2    7 1   
     4    3    4 1   
     5    3   19 1   
     6    4    5 2   
     7    4   20 1   
     8    5    6 1   
     9    6    7 2   
    10    6   10 1   
    11    7    8 1   
    12    8    9 2   
    13    9   10 1   
    14    9   21 1   
    15   10   11 1   
    16   11   12 1   
    17   11   13 1   
    18   11   22 1   
    19   12   16 1   
    20   13   14 1   
    21   13   23 1   
    22   13   24 1   
    23   14   15 1   
    24   14   16 1   
    25   14   25 1   
    26   15   26 1   
    27   16   17 1   
    28   16   27 1   
    29   17   18 1   
    30   17   28 1   
    31   17   29 1   
    32   18   30 1   
@<TRIPOS>SUBSTRUCTURE
     1 2ND         1 TEMP              0 ****  ****    0 ROOT
