@<TRIPOS>MOLECULE
2ND
   30    28     1     0     0
SMALL
bcc


@<TRIPOS>ATOM
      1 O6         -4.5440    0.7350    2.9420 o         1 2ND     -0.316000
      2 C6         -3.3190    0.5990    2.9790 c1        1 2ND      0.381000
      3 N1         -2.6180    0.8510    4.1770 n2        1 2ND     -0.335000
      4 C2         -1.2000    0.7440    4.2050 c2        1 2ND      0.076000
      5 N3         -0.4720    0.3770    2.9980 n1        1 2ND     -0.179000
      6 C4         -1.1960    0.1200    1.7520 c1        1 2ND      0.035000
      7 C5         -2.5590    0.2130    1.7230 c2        1 2ND     -0.216000
      8 N7         -2.9660   -0.0190    0.4530 n2        1 2ND     -0.057000
      9 C8         -1.8620   -0.2560   -0.3090 c1        1 2ND     -0.092000
     10 N9         -0.7700   -0.1690    0.4970 n2        1 2ND     -0.172000
     11 C1'         0.5900   -0.2080    0.0400 c2        1 2ND      0.157000
     12 O4'         0.7770    0.7710   -1.2070 os        1 2ND     -0.268000
     13 C2'         0.8810   -1.3850   -0.3760 c3        1 2ND     -0.194000
     14 C3'         1.8520   -1.1700   -1.5130 c3        1 2ND      0.010000
     15 O3'         3.1320   -1.5250   -1.1270 oh        1 2ND     -0.312000
     16 C4'         1.7850    0.3510   -1.8330 c3        1 2ND     -0.063000
     17 C5'         1.5990    0.5740   -3.3550 c3        1 2ND     -0.033000
     18 O5'         1.7720    1.9710   -3.6610 oh        1 2ND     -0.316000
     19 HN1        -3.0790    1.0840    4.9420 hn        1 2ND      0.254000
     20 H2         -0.7030    0.9210    5.0540 h5        1 2ND      0.187000
     21 H8         -1.8500   -0.3620   -1.2700 DU        1 2ND      0.201000
     22 H1'         1.2000    0.0540    0.7680 h4        1 2ND      0.163000
     23 H2'1        0.0580   -1.8500   -0.7050 hc        1 2ND      0.128000
     24 H2'2        1.3070   -1.9090    0.3460 hc        1 2ND      0.128000
     25 H3'         1.5790   -1.6880   -2.2900 h1        1 2ND      0.090000
     26 H1          3.4800   -2.0950   -1.7300 ho        1 2ND      0.210000
     27 H4'         2.6130    0.8120   -1.5090 h1        1 2ND      0.136000
     28 H5'1        0.6910    0.2880   -3.6200 h1        1 2ND      0.091000
     29 H5'2        2.2580    0.0510   -3.8420 h1        1 2ND      0.091000
     30 H5'         1.5640    2.1180   -4.5300 ho        1 2ND      0.216000
@<TRIPOS>BOND
     1    1    2 1   
     2    2    7 1   
     3    3    4 1   
     4    3   19 1   
     5    4    5 1   
     6    4   20 1   
     7    6    7 1   
     8    6   10 1   
     9    7    8 1   
    10    8    9 1   
    11    9   10 1   
    12   11   12 1   
    13   11   13 1   
    14   11   22 1   
    15   12   16 1   
    16   13   14 1   
    17   13   23 1   
    18   13   24 1   
    19   14   15 1   
    20   14   16 1   
    21   14   25 1   
    22   15   26 1   
    23   16   17 1   
    24   16   27 1   
    25   17   18 1   
    26   17   28 1   
    27   17   29 1   
    28   18   30 1   
@<TRIPOS>SUBSTRUCTURE
     1 2ND         1 TEMP              0 ****  ****    0 ROOT
