@<TRIPOS>MOLECULE
2NG
   57    60     1     0     0
SMALL
bcc


@<TRIPOS>ATOM
      1 OAI        -0.4320    0.1870    0.6610 o         1 2NG     -0.750867
      2 SBN         0.4780    0.2110   -0.4440 s6        1 2NG      1.440100
      3 OAF         1.6850   -0.4440   -0.0880 o         1 2NG     -0.750867
      4 OAG        -0.1020   -0.3190   -1.6260 o         1 2NG     -0.750867
      5 CBI         0.8270    1.9130   -0.7540 ca        1 2NG     -0.282500
      6 CBK         1.6250    2.8450   -0.0150 ca        1 2NG      0.025000
      7 CAR         0.2550    2.3330   -1.9410 ca        1 2NG     -0.081000
      8 CAM         0.4640    3.6170   -2.4770 ca        1 2NG     -0.175000
      9 CAU         1.3040    4.4830   -1.8310 ca        1 2NG     -0.077000
     10 CBJ         1.9220    4.1150   -0.6010 ca        1 2NG      0.028000
     11 CBH         2.8240    5.0430   -0.0040 ca        1 2NG     -0.272500
     12 SBM         3.2310    6.6220   -0.6990 s6        1 2NG      1.452100
     13 OAH         2.0130    7.3460   -0.7780 o         1 2NG     -0.751867
     14 OAE         4.1580    7.2020    0.2090 o         1 2NG     -0.751867
     15 OAD         3.7920    6.3740   -1.9770 o         1 2NG     -0.751867
     16 CAT         3.4130    4.7000    1.1850 ca        1 2NG     -0.054000
     17 CAS         3.0790    3.5100    1.8530 ca        1 2NG     -0.180000
     18 CBF         2.1700    2.6070    1.3100 ca        1 2NG      0.078600
     19 NAY         1.7260    1.5210    2.0930 ns        1 2NG     -0.452100
     20 CBA         2.4640    0.8680    3.0570 c         1 2NG      0.682700
     21 OAC         3.6090    1.2010    3.4330 o         1 2NG     -0.625100
     22 CBD         1.7870   -0.2980    3.7240 ca        1 2NG     -0.109600
     23 CAV         1.8250   -0.3830    5.1190 ca        1 2NG     -0.095000
     24 CAQ         1.1650   -1.2910    2.9670 ca        1 2NG     -0.070000
     25 CAO         0.5720   -2.3730    3.6160 ca        1 2NG     -0.122000
     26 CBB         0.5810   -2.4820    5.0070 ca        1 2NG     -0.124300
     27 CAA        -0.0780   -3.6470    5.6440 c3        1 2NG     -0.043800
     28 CBE         1.2130   -1.4680    5.7750 ca        1 2NG      0.009600
     29 NAX         1.1780   -1.5660    7.1860 ns        1 2NG     -0.455100
     30 CAZ         2.0890   -1.0410    8.0760 c         1 2NG      0.663700
     31 OAB         3.0040   -0.2530    7.7830 o         1 2NG     -0.559100
     32 CBC         1.8990   -1.4680    9.5070 ca        1 2NG     -0.142600
     33 CAW         1.9340   -0.4910   10.5060 ca        1 2NG     -0.019000
     34 CAN         1.7420   -2.8160    9.8400 ca        1 2NG     -0.070000
     35 CAL         1.6080   -3.1960   11.1760 ca        1 2NG     -0.152000
     36 CAP         1.6250   -2.2410   12.1870 ca        1 2NG     -0.065000
     37 CBG         1.7880   -0.8870   11.8440 ca        1 2NG     -0.185200
     38 NBL         1.8100    0.1340   12.9230 no        1 2NG      0.313200
     39 OAK         1.7160   -0.2300   14.0680 o         1 2NG     -0.212000
     40 OAJ         1.9160    1.2940   12.6350 o         1 2NG     -0.212000
     41 H1         -0.3780    1.6360   -2.5220 ha        1 2NG      0.149000
     42 H2         -0.0290    3.9010   -3.4170 ha        1 2NG      0.108000
     43 H3          1.5200    5.4820   -2.2510 ha        1 2NG      0.160000
     44 H4          4.1450    5.3830    1.6540 ha        1 2NG      0.150000
     45 H5          3.5480    3.3170    2.8320 ha        1 2NG      0.145000
     46 H6          0.8290    1.1350    1.8630 hn        1 2NG      0.361500
     47 H7          2.3570    0.3990    5.6880 ha        1 2NG      0.174000
     48 H8          1.1330   -1.2150    1.8580 ha        1 2NG      0.219000
     49 H9          0.0770   -3.1500    3.0140 ha        1 2NG      0.133000
     50 H10         0.6310   -4.1940    6.3160 hc        1 2NG      0.029367
     51 H11        -0.9620   -3.3220    6.2510 hc        1 2NG      0.029367
     52 H12        -0.4430   -4.3690    4.8720 hc        1 2NG      0.029367
     53 H13         0.4770   -2.1680    7.5530 hn        1 2NG      0.308500
     54 H14         2.0860    0.5710   10.2340 ha        1 2NG      0.195000
     55 H15         1.7390   -3.5860    9.0510 ha        1 2NG      0.152000
     56 H16         1.4890   -4.2590   11.4340 ha        1 2NG      0.144000
     57 H17         1.5160   -2.5380   13.2430 ha        1 2NG      0.164000
@<TRIPOS>BOND
     1    1    2 1   
     2    2    3 1   
     3    2    4 1   
     4    2    5 1   
     5    5    6 ar  
     6    5    7 ar  
     7    6   10 ar  
     8    6   18 ar  
     9    7    8 ar  
    10    7   41 1   
    11    8    9 ar  
    12    8   42 1   
    13    9   10 ar  
    14    9   43 1   
    15   10   11 ar  
    16   11   12 1   
    17   11   16 ar  
    18   12   13 1   
    19   12   14 1   
    20   12   15 1   
    21   16   17 ar  
    22   16   44 1   
    23   17   18 ar  
    24   17   45 1   
    25   18   19 1   
    26   19   20 1   
    27   19   46 1   
    28   20   21 2   
    29   20   22 1   
    30   22   23 ar  
    31   22   24 ar  
    32   23   28 ar  
    33   23   47 1   
    34   24   25 ar  
    35   24   48 1   
    36   25   26 ar  
    37   25   49 1   
    38   26   27 1   
    39   26   28 ar  
    40   27   50 1   
    41   27   51 1   
    42   27   52 1   
    43   28   29 1   
    44   29   30 1   
    45   29   53 1   
    46   30   31 2   
    47   30   32 1   
    48   32   33 ar  
    49   32   34 ar  
    50   33   37 ar  
    51   33   54 1   
    52   34   35 ar  
    53   34   55 1   
    54   35   36 ar  
    55   35   56 1   
    56   36   37 ar  
    57   36   57 1   
    58   37   38 1   
    59   38   39 1   
    60   38   40 1   
@<TRIPOS>SUBSTRUCTURE
     1 2NG         1 TEMP              0 ****  ****    0 ROOT
