@<TRIPOS>MOLECULE
2NG
   57    60     1     0     0
SMALL
bcc


@<TRIPOS>ATOM
      1 OAI        -0.3390    0.1020    0.6200 o         1 2NG     -0.750867
      2 SBN         0.5930    0.1600   -0.4650 s6        1 2NG      1.440100
      3 OAF         1.8170   -0.4470   -0.0820 o         1 2NG     -0.750867
      4 OAG         0.0590   -0.3950   -1.6570 o         1 2NG     -0.750867
      5 CBI         0.8810    1.8740   -0.7730 ca        1 2NG     -0.282500
      6 CBK         1.6270    2.8370   -0.0190 ca        1 2NG      0.025000
      7 CAR         0.3190    2.2690   -1.9720 ca        1 2NG     -0.081000
      8 CAM         0.4900    3.5590   -2.5080 ca        1 2NG     -0.175000
      9 CAU         1.2820    4.4580   -1.8460 ca        1 2NG     -0.077000
     10 CBJ         1.8870    4.1170   -0.6020 ca        1 2NG      0.028000
     11 CBH         2.7390    5.0810    0.0110 ca        1 2NG     -0.272500
     12 SBM         3.0990    6.6720   -0.6790 s6        1 2NG      1.452100
     13 OAH         1.8560    7.3490   -0.7860 o         1 2NG     -0.751867
     14 OAE         3.9830    7.2900    0.2470 o         1 2NG     -0.751867
     15 OAD         3.6970    6.4440   -1.9440 o         1 2NG     -0.751867
     16 CAT         3.3150    4.7630    1.2140 ca        1 2NG     -0.054000
     17 CAS         3.0140    3.5620    1.8780 ca        1 2NG     -0.180000
     18 CBF         2.1520    2.6230    1.3180 ca        1 2NG      0.078600
     19 NAY         1.7350    1.5220    2.0940 n         1 2NG     -0.452100
     20 CBA         2.4760    0.9000    3.0760 c         1 2NG      0.682700
     21 OAC         3.5990    1.2780    3.4740 o         1 2NG     -0.625100
     22 CBD         1.8310   -0.2900    3.7320 ca        1 2NG     -0.109600
     23 CAV         1.8440   -0.3710    5.1270 ca        1 2NG     -0.096000
     24 CAQ         1.2650   -1.3080    2.9640 ca        1 2NG     -0.070000
     25 CAO         0.7020   -2.4110    3.6030 ca        1 2NG     -0.122000
     26 CBB         0.6860   -2.5180    4.9940 ca        1 2NG     -0.125300
     27 CAA         0.0590   -3.7070    5.6200 c3        1 2NG     -0.043800
     28 CBE         1.2610   -1.4780    5.7720 ca        1 2NG      0.009600
     29 NAX         1.2010   -1.5750    7.1830 n         1 2NG     -0.455100
     30 CAZ         2.0670   -1.0090    8.0910 c         1 2NG      0.663700
     31 OAB         2.9530   -0.1800    7.8160 o         1 2NG     -0.559100
     32 CBC         1.8660   -1.4420    9.5180 ca        1 2NG     -0.142600
     33 CAW         1.8330   -0.4620   10.5150 ca        1 2NG     -0.019000
     34 CAN         1.7650   -2.7950    9.8510 ca        1 2NG     -0.070000
     35 CAL         1.6180   -3.1790   11.1850 ca        1 2NG     -0.152000
     36 CAP         1.5690   -2.2220   12.1940 ca        1 2NG     -0.065000
     37 CBG         1.6760   -0.8630   11.8510 ca        1 2NG     -0.185200
     38 NBL         1.6250    0.1600   12.9280 no        1 2NG      0.313200
     39 OAK         1.5220   -0.2060   14.0710 o         1 2NG     -0.212000
     40 OAJ         1.6840    1.3230   12.6390 o         1 2NG     -0.212000
     41 H1         -0.2740    1.5460   -2.5650 ha        1 2NG      0.149000
     42 H2          0.0060    3.8220   -3.4580 ha        1 2NG      0.108000
     43 H3          1.4670    5.4640   -2.2640 ha        1 2NG      0.160000
     44 H4          4.0100    5.4750    1.6960 ha        1 2NG      0.150000
     45 H5          3.4690    3.3900    2.8670 ha        1 2NG      0.145000
     46 H6          0.8580    1.1010    1.8470 hn        1 2NG      0.361500
     47 H7          2.3330    0.4320    5.7050 ha        1 2NG      0.174000
     48 H8          1.2540   -1.2350    1.8540 ha        1 2NG      0.219000
     49 H9          0.2510   -3.2080    2.9920 ha        1 2NG      0.133000
     50 H10         0.7760   -4.2240    6.3070 hc        1 2NG      0.029367
     51 H11        -0.8480   -3.4150    6.2080 hc        1 2NG      0.029367
     52 H12        -0.2610   -4.4430    4.8420 hc        1 2NG      0.029367
     53 H13         0.5190   -2.2080    7.5360 hn        1 2NG      0.308500
     54 H14         1.9420    0.6050   10.2450 ha        1 2NG      0.195000
     55 H15         1.8150   -3.5660    9.0640 ha        1 2NG      0.152000
     56 H16         1.5430   -4.2460   11.4440 ha        1 2NG      0.144000
     57 H17         1.4500   -2.5220   13.2480 ha        1 2NG      0.164000
@<TRIPOS>BOND
     1    1    2 1   
     2    2    3 1   
     3    2    4 1   
     4    2    5 1   
     5    5    6 ar  
     6    5    7 ar  
     7    6   10 ar  
     8    6   18 ar  
     9    7    8 ar  
    10    7   41 1   
    11    8    9 ar  
    12    8   42 1   
    13    9   10 ar  
    14    9   43 1   
    15   10   11 ar  
    16   11   12 1   
    17   11   16 ar  
    18   12   13 1   
    19   12   14 1   
    20   12   15 1   
    21   16   17 ar  
    22   16   44 1   
    23   17   18 ar  
    24   17   45 1   
    25   18   19 1   
    26   19   20 1   
    27   19   46 1   
    28   20   21 2   
    29   20   22 1   
    30   22   23 ar  
    31   22   24 ar  
    32   23   28 ar  
    33   23   47 1   
    34   24   25 ar  
    35   24   48 1   
    36   25   26 ar  
    37   25   49 1   
    38   26   27 1   
    39   26   28 ar  
    40   27   50 1   
    41   27   51 1   
    42   27   52 1   
    43   28   29 1   
    44   29   30 1   
    45   29   53 1   
    46   30   31 2   
    47   30   32 1   
    48   32   33 ar  
    49   32   34 ar  
    50   33   37 ar  
    51   33   54 1   
    52   34   35 ar  
    53   34   55 1   
    54   35   36 ar  
    55   35   56 1   
    56   36   37 ar  
    57   36   57 1   
    58   37   38 1   
    59   38   39 1   
    60   38   40 1   
@<TRIPOS>SUBSTRUCTURE
     1 2NG         1 TEMP              0 ****  ****    0 ROOT
