@<TRIPOS>MOLECULE
2NG
   57    60     1     0     0
SMALL
bcc


@<TRIPOS>ATOM
      1 OAI        -0.3840    0.1580    0.6370 o         1 2NG     -0.750867
      2 SBN         0.5400    0.1880   -0.4560 s6        1 2NG      1.440100
      3 OAF         1.7490   -0.4540   -0.0840 o         1 2NG     -0.750867
      4 OAG        -0.0200   -0.3510   -1.6440 o         1 2NG     -0.750867
      5 CBI         0.8750    1.8930   -0.7670 ca        1 2NG     -0.282500
      6 CBK         1.6550    2.8340   -0.0200 ca        1 2NG      0.025000
      7 CAR         0.3140    2.3040   -1.9610 ca        1 2NG     -0.081000
      8 CAM         0.5170    3.5890   -2.4980 ca        1 2NG     -0.175000
      9 CAU         1.3400    4.4650   -1.8440 ca        1 2NG     -0.077000
     10 CBJ         1.9460    4.1060   -0.6050 ca        1 2NG      0.028000
     11 CBH         2.8310    5.0450   -0.0000 ca        1 2NG     -0.272500
     12 SBM         3.2300    6.6260   -0.6940 s6        1 2NG      1.452100
     13 OAH         2.0060    7.3380   -0.7890 o         1 2NG     -0.751867
     14 OAE         4.1400    7.2180    0.2240 o         1 2NG     -0.751867
     15 OAD         3.8100    6.3810   -1.9640 o         1 2NG     -0.751867
     16 CAT         3.4090    4.7110    1.1980 ca        1 2NG     -0.054000
     17 CAS         3.0790    3.5190    1.8650 ca        1 2NG     -0.180000
     18 CBF         2.1860    2.6050    1.3130 ca        1 2NG      0.078600
     19 NAY         1.7430    1.5170    2.0930 n         1 2NG     -0.452100
     20 CBA         2.4750    0.8740    3.0680 c         1 2NG      0.682700
     21 OAC         3.6120    1.2190    3.4570 o         1 2NG     -0.625100
     22 CBD         1.8020   -0.2970    3.7290 ca        1 2NG     -0.109600
     23 CAV         1.8240   -0.3790    5.1240 ca        1 2NG     -0.096000
     24 CAQ         1.1990   -1.2980    2.9670 ca        1 2NG     -0.070000
     25 CAO         0.6090   -2.3840    3.6110 ca        1 2NG     -0.122000
     26 CBB         0.6020   -2.4900    5.0030 ca        1 2NG     -0.124300
     27 CAA        -0.0530   -3.6600    5.6350 c3        1 2NG     -0.043800
     28 CBE         1.2150   -1.4680    5.7760 ca        1 2NG      0.009600
     29 NAX         1.1640   -1.5630    7.1860 n         1 2NG     -0.455100
     30 CAZ         2.0560   -1.0250    8.0870 c         1 2NG      0.663700
     31 OAB         2.9670   -0.2270    7.8030 o         1 2NG     -0.559100
     32 CBC         1.8540   -1.4510    9.5160 ca        1 2NG     -0.142600
     33 CAW         1.8650   -0.4700   10.5120 ca        1 2NG     -0.019000
     34 CAN         1.7080   -2.8000    9.8500 ca        1 2NG     -0.070000
     35 CAL         1.5610   -3.1780   11.1860 ca        1 2NG     -0.152000
     36 CAP         1.5550   -2.2200   12.1940 ca        1 2NG     -0.065000
     37 CBG         1.7060   -0.8650   11.8500 ca        1 2NG     -0.185200
     38 NBL         1.7020    0.1590   12.9260 no        1 2NG      0.313200
     39 OAK         1.5970   -0.2030   14.0710 o         1 2NG     -0.212000
     40 OAJ         1.7980    1.3200   12.6360 o         1 2NG     -0.212000
     41 H1         -0.3050    1.5990   -2.5490 ha        1 2NG      0.149000
     42 H2          0.0320    3.8660   -3.4450 ha        1 2NG      0.108000
     43 H3          1.5510    5.4650   -2.2630 ha        1 2NG      0.160000
     44 H4          4.1280    5.4020    1.6730 ha        1 2NG      0.150000
     45 H5          3.5370    3.3340    2.8490 ha        1 2NG      0.145000
     46 H6          0.8520    1.1210    1.8530 hn        1 2NG      0.361500
     47 H7          2.3410    0.4100    5.6980 ha        1 2NG      0.174000
     48 H8          1.1800   -1.2250    1.8580 ha        1 2NG      0.219000
     49 H9          0.1300   -3.1680    3.0050 ha        1 2NG      0.133000
     50 H10         0.6530   -4.1980    6.3160 hc        1 2NG      0.029367
     51 H11        -0.9470   -3.3420    6.2300 hc        1 2NG      0.029367
     52 H12        -0.4010   -4.3870    4.8600 hc        1 2NG      0.029367
     53 H13         0.4640   -2.1720    7.5460 hn        1 2NG      0.308500
     54 H14         2.0080    0.5920   10.2400 ha        1 2NG      0.195000
     55 H15         1.7240   -3.5720    9.0640 ha        1 2NG      0.152000
     56 H16         1.4520   -4.2420   11.4460 ha        1 2NG      0.144000
     57 H17         1.4360   -2.5150   13.2500 ha        1 2NG      0.164000
@<TRIPOS>BOND
     1    1    2 1   
     2    2    3 1   
     3    2    4 1   
     4    2    5 1   
     5    5    6 ar  
     6    5    7 ar  
     7    6   10 ar  
     8    6   18 ar  
     9    7    8 ar  
    10    7   41 1   
    11    8    9 ar  
    12    8   42 1   
    13    9   10 ar  
    14    9   43 1   
    15   10   11 ar  
    16   11   12 1   
    17   11   16 ar  
    18   12   13 1   
    19   12   14 1   
    20   12   15 1   
    21   16   17 ar  
    22   16   44 1   
    23   17   18 ar  
    24   17   45 1   
    25   18   19 1   
    26   19   20 1   
    27   19   46 1   
    28   20   21 2   
    29   20   22 1   
    30   22   23 ar  
    31   22   24 ar  
    32   23   28 ar  
    33   23   47 1   
    34   24   25 ar  
    35   24   48 1   
    36   25   26 ar  
    37   25   49 1   
    38   26   27 1   
    39   26   28 ar  
    40   27   50 1   
    41   27   51 1   
    42   27   52 1   
    43   28   29 1   
    44   29   30 1   
    45   29   53 1   
    46   30   31 2   
    47   30   32 1   
    48   32   33 ar  
    49   32   34 ar  
    50   33   37 ar  
    51   33   54 1   
    52   34   35 ar  
    53   34   55 1   
    54   35   36 ar  
    55   35   56 1   
    56   36   37 ar  
    57   36   57 1   
    58   37   38 1   
    59   38   39 1   
    60   38   40 1   
@<TRIPOS>SUBSTRUCTURE
     1 2NG         1 TEMP              0 ****  ****    0 ROOT
