@<TRIPOS>MOLECULE
2NI
   40    41     1     0     0
SMALL
bcc


@<TRIPOS>ATOM
      1 C1         -1.2810   -1.4090   -0.1900 ca        1 2NI     -0.080000
      2 C2          0.0920   -1.5840   -0.3570 ca        1 2NI     -0.177000
      3 C3          0.8930   -0.4700   -0.6320 ca        1 2NI      0.131100
      4 C4          0.3280    0.8140   -0.7390 ca        1 2NI     -0.177000
      5 C5         -1.0410    0.9680   -0.5680 ca        1 2NI     -0.080000
      6 C6         -1.8610   -0.1390   -0.2920 cp        1 2NI     -0.079000
      7 C7         -3.3000    0.0360   -0.1130 cp        1 2NI     -0.005000
      8 C8         -4.2010   -0.8960   -0.6500 ca        1 2NI     -0.129000
      9 C9         -5.5730   -0.7330   -0.4810 ca        1 2NI     -0.089000
     10 C10        -6.0630    0.3690    0.2320 ca        1 2NI     -0.020000
     11 C11        -5.1700    1.3050    0.7720 ca        1 2NI     -0.089000
     12 C12        -3.7990    1.1370    0.5980 ca        1 2NI     -0.129000
     13 C13        -7.4630    0.5380    0.4070 cg        1 2NI      0.233800
     14 N1         -8.6100    0.6760    0.5510 n1        1 2NI     -0.362800
     15 O1          2.2580   -0.5200   -0.8400 os        1 2NI     -0.351900
     16 C14         2.8960   -1.7700   -0.5600 c3        1 2NI      0.095400
     17 C15         4.4040   -1.5280   -0.7430 c3        1 2NI      0.092000
     18 N2          5.0610   -0.8340    0.3280 n         1 2NI     -0.469800
     19 C16         5.5310   -1.6280    1.4320 c3        1 2NI      0.079300
     20 C17         5.0620    0.5600    0.4450 c         1 2NI      0.687100
     21 O2          5.6040    1.1170    1.4280 o         1 2NI     -0.621100
     22 N3          4.5870    1.4000   -0.6500 n         1 2NI     -0.306400
     23 O3          4.3240    2.6410   -0.2290 oh        1 2NI     -0.444100
     24 H1         -1.9130   -2.2820    0.0320 ha        1 2NI      0.140500
     25 H2          0.5250   -2.5890   -0.2700 ha        1 2NI      0.147000
     26 H4          0.9750    1.6760   -0.9560 ha        1 2NI      0.147000
     27 H5         -1.4900    1.9710   -0.6560 ha        1 2NI      0.140500
     28 H8         -3.8200   -1.7600   -1.2170 ha        1 2NI      0.143000
     29 H9         -6.2720   -1.4680   -0.9090 ha        1 2NI      0.146500
     30 H11        -5.5520    2.1710    1.3350 ha        1 2NI      0.146500
     31 H12        -3.1000    1.8700    1.0300 ha        1 2NI      0.143000
     32 H141        2.5500   -2.5350   -1.3030 h1        1 2NI      0.052200
     33 H142        2.6450   -2.1050    0.4800 h1        1 2NI      0.052200
     34 H151        4.5640   -0.9820   -1.7160 h1        1 2NI      0.071200
     35 H152        4.8810   -2.5470   -0.8410 h1        1 2NI      0.071200
     36 H161        6.0150   -0.9750    2.2060 h1        1 2NI      0.049033
     37 H162        4.6760   -2.1830    1.9040 h1        1 2NI      0.049033
     38 H163        6.2840   -2.3730    1.0580 h1        1 2NI      0.049033
     39 HN3         3.7150    1.0430   -1.0440 hn        1 2NI      0.301500
     40 HO3         5.1830    3.0260    0.0390 ho        1 2NI      0.441000
@<TRIPOS>BOND
     1    1    2 ar  
     2    1    6 ar  
     3    1   24 1   
     4    2    3 ar  
     5    2   25 1   
     6    3    4 ar  
     7    3   15 1   
     8    4    5 ar  
     9    4   26 1   
    10    5    6 ar  
    11    5   27 1   
    12    6    7 1   
    13    7    8 ar  
    14    7   12 ar  
    15    8    9 ar  
    16    8   28 1   
    17    9   10 ar  
    18    9   29 1   
    19   10   11 ar  
    20   10   13 1   
    21   11   12 ar  
    22   11   30 1   
    23   12   31 1   
    24   13   14 3   
    25   15   16 1   
    26   16   17 1   
    27   16   32 1   
    28   16   33 1   
    29   17   18 1   
    30   17   34 1   
    31   17   35 1   
    32   18   19 1   
    33   18   20 1   
    34   19   36 1   
    35   19   37 1   
    36   19   38 1   
    37   20   21 2   
    38   20   22 1   
    39   22   23 1   
    40   22   39 1   
    41   23   40 1   
@<TRIPOS>SUBSTRUCTURE
     1 2NI         1 TEMP              0 ****  ****    0 ROOT
