@<TRIPOS>MOLECULE
2NI
   42    42     1     0     0
SMALL
bcc


@<TRIPOS>ATOM
      1 C1         -0.0040   -0.4550   -0.1820 ce        1 2NI     -0.201000
      2 C2          1.3360   -0.6430   -0.2190 c2        1 2NI     -0.037700
      3 C3          2.1920   -0.4550    0.9870 c3        1 2NI      0.143500
      4 C4          1.5060    0.3020    2.0730 c2        1 2NI     -0.037700
      5 C5          0.1650    0.4870    2.0800 ce        1 2NI     -0.201000
      6 C6         -0.6720    0.0690    0.9830 ce        1 2NI      0.264000
      7 C7         -2.0840    0.1950    1.0300 cd        1 2NI     -0.153000
      8 C8         -2.9110   -0.5180    0.1160 cd        1 2NI     -0.022500
      9 C9         -4.2900   -0.4090    0.1630 cc        1 2NI     -0.127000
     10 C10        -4.9000    0.4280    1.1160 cc        1 2NI      0.099900
     11 C11        -4.1030    1.1480    2.0260 cc        1 2NI     -0.127000
     12 C12        -2.7240    1.0290    1.9880 cd        1 2NI     -0.022500
     13 C13        -6.3140    0.5460    1.1590 c1        1 2NI     -0.102900
     14 N1         -7.4730    0.6430    1.1950 n1        1 2NI      0.108000
     15 O1          3.4940    0.0440    0.6760 os        1 2NI     -0.383900
     16 C14         3.5140    1.3840    0.2610 c2        1 2NI     -0.063900
     17 C15         4.0250    1.6970   -0.9310 c2        1 2NI     -0.184000
     18 N2          6.3360   -1.2710    1.2850 ny        1 2NI     -0.651800
     19 C16         7.1440   -1.8240    0.1720 c3        1 2NI      0.079100
     20 C17         5.7580   -2.3810    2.1490 c         1 2NI      0.610100
     21 O2          4.5410   -2.5480    2.0380 o         1 2NI     -0.478100
     22 N3          6.5730   -3.0160    3.1150 ns        1 2NI     -0.283400
     23 O3          7.8830   -2.8990    2.9030 oh        1 2NI     -0.449100
     24 H1         -0.6060   -0.6550   -1.0880 ha        1 2NI      0.185500
     25 H2          1.8490   -0.9800   -1.1370 ha        1 2NI      0.180500
     26 H4          2.1430    0.6540    2.9030 ha        1 2NI      0.180500
     27 H5         -0.3090    0.9720    2.9540 ha        1 2NI      0.185500
     28 H8         -2.4620   -1.1990   -0.6270 ha        1 2NI      0.160500
     29 H9         -4.9170   -0.9780   -0.5470 ha        1 2NI      0.190000
     30 H11        -4.5830    1.8100    2.7700 ha        1 2NI      0.190000
     31 H12        -2.1280    1.6230    2.7010 ha        1 2NI      0.160500
     32 H141        4.3560    0.9480   -1.6620 ha        1 2NI      0.151500
     33 H142        3.1430    2.0920    1.0170 h4        1 2NI      0.157000
     34 H151        4.1470    2.7480   -1.2340 ha        1 2NI      0.151500
     35 H152        5.5390   -0.7260    0.9110 hn        1 2NI      0.478800
     36 H161        6.5070   -2.5080   -0.4510 hx        1 2NI      0.120033
     37 H162        7.5190   -0.9760   -0.4640 hx        1 2NI      0.120033
     38 H163        8.0210   -2.3940    0.5890 hx        1 2NI      0.120033
     39 HN3         2.4260   -1.5000    1.4010 h1        1 2NI      0.159700
     40 HO3         8.2780   -2.7090    3.7870 ho        1 2NI      0.489000
     41 H21         6.9240   -0.6540    1.8590 hn        1 2NI      0.478800
     42 H32         6.2970   -3.9950    3.2410 hn        1 2NI      0.363500
@<TRIPOS>BOND
     1    1    2 2   
     2    1    6 1   
     3    1   24 1   
     4    2    3 1   
     5    2   25 1   
     6    3    4 1   
     7    3   15 1   
     8    3   39 1   
     9    4    5 2   
    10    4   26 1   
    11    5    6 1   
    12    5   27 1   
    13    6    7 2   
    14    7    8 1   
    15    7   12 1   
    16    8    9 2   
    17    8   28 1   
    18    9   10 1   
    19    9   29 1   
    20   10   11 1   
    21   10   13 2   
    22   11   12 2   
    23   11   30 1   
    24   12   31 1   
    25   13   14 2   
    26   15   16 1   
    27   16   17 2   
    28   16   33 1   
    29   17   32 1   
    30   17   34 1   
    31   18   19 1   
    32   18   20 1   
    33   18   35 1   
    34   18   41 1   
    35   19   36 1   
    36   19   37 1   
    37   19   38 1   
    38   20   21 2   
    39   20   22 1   
    40   22   23 1   
    41   22   42 1   
    42   23   40 1   
@<TRIPOS>SUBSTRUCTURE
     1 2NI         1 TEMP              0 ****  ****    0 ROOT
