@<TRIPOS>MOLECULE
2NI
   40    34     1     0     0
SMALL
bcc


@<TRIPOS>ATOM
      1 C1         -1.2570   -0.1200   -2.5280 c1        1 2NI     -0.048500
      2 C2          0.1560   -0.1710   -2.4380 c1        1 2NI     -0.102500
      3 C3          0.7570   -0.1890   -1.2240 c1        1 2NI      0.118600
      4 C4         -0.0340   -0.1560   -0.0450 c1        1 2NI     -0.067250
      5 C5         -1.4160   -0.1050   -0.1350 c1        1 2NI     -0.067250
      6 C6         -2.0270   -0.0870   -1.3690 c1        1 2NI     -0.043500
      7 C7         -3.4400   -0.1410   -1.4590 c1        1 2NI     -0.043500
      8 C8         -4.1780    1.0360   -1.7040 c1        1 2NI     -0.048500
      9 C9         -5.5650    0.9980   -1.6890 c1        1 2NI     -0.031500
     10 C10        -6.2340   -0.2170   -1.4300 cg        1 2NI     -0.018000
     11 C11        -5.4870   -1.4040   -1.1830 c1        1 2NI     -0.067250
     12 C12        -4.1240   -1.3710   -1.1970 c1        1 2NI     -0.067250
     13 C13        -7.7380   -0.2650   -1.4280 cg        1 2NI      0.229800
     14 N1         -8.7920   -0.2980   -1.4290 n1        1 2NI     -0.363800
     15 O1          2.2640   -0.3680   -1.1220 os        1 2NI     -0.323400
     16 C14         2.9100    0.6480   -0.4150 c3        1 2NI      0.096400
     17 C15         4.1920    0.1400    0.1060 c3        1 2NI      0.088000
     18 N2          4.1010   -0.0200    1.5920 n         1 2NI     -0.449800
     19 C16         3.5090   -1.2070    2.1620 c3        1 2NI      0.067300
     20 C17         4.5960    0.9730    2.4250 c         1 2NI      0.670100
     21 O2          4.8170    2.1380    1.9660 o         1 2NI     -0.620100
     22 N3          4.9060    0.6790    3.7190 n         1 2NI     -0.304400
     23 O3          5.1510    1.6850    4.6090 oh        1 2NI     -0.441100
     24 H1         -1.7090   -0.1080   -3.4340 ha        1 2NI      0.083000
     25 H2          0.7090   -0.1960   -3.2680 ha        1 2NI      0.091500
     26 H4          0.4190   -0.1700    0.8790 ha        1 2NI      0.085250
     27 H5         -1.9680   -0.0820    0.6930 ha        1 2NI      0.085250
     28 H8         -3.7140    1.8770   -1.8860 ha        1 2NI      0.083000
     29 H9         -6.1090    1.8640   -1.8690 ha        1 2NI      0.088500
     30 H11        -5.9710   -2.2770   -0.9980 ha        1 2NI      0.085250
     31 H12        -3.6290   -2.1640   -1.0320 ha        1 2NI      0.085250
     32 H141        3.0860    1.4400   -1.0380 h1        1 2NI      0.055700
     33 H142        2.3610    0.9280    0.3050 h1        1 2NI      0.055700
     34 H151        4.4040   -0.7890   -0.3390 h1        1 2NI      0.082200
     35 H152        4.9310    0.7980   -0.1170 h1        1 2NI      0.082200
     36 H161        2.7260   -1.5380    1.5490 h1        1 2NI      0.049033
     37 H162        4.1940   -1.9120    2.2320 h1        1 2NI      0.049033
     38 H163        3.1540   -0.9970    3.0780 h1        1 2NI      0.049033
     39 HN3         5.0390   -0.2250    3.9790 hn        1 2NI      0.285500
     40 HO3         5.0090    1.3720    5.4800 ho        1 2NI      0.443000
@<TRIPOS>BOND
     1    1    6 3   
     2    1   24 1   
     3    2    3 3   
     4    2   25 1   
     5    3   15 1   
     6    4    5 3   
     7    4   26 1   
     8    5   27 1   
     9    7    8 3   
    10    8   28 1   
    11    9   10 3   
    12    9   29 1   
    13   10   13 1   
    14   11   12 3   
    15   11   30 1   
    16   12   31 1   
    17   13   14 3   
    18   15   16 1   
    19   16   17 1   
    20   16   32 1   
    21   16   33 1   
    22   17   18 1   
    23   17   34 1   
    24   17   35 1   
    25   18   19 1   
    26   18   20 1   
    27   19   36 1   
    28   19   37 1   
    29   19   38 1   
    30   20   21 2   
    31   20   22 1   
    32   22   23 1   
    33   22   39 1   
    34   23   40 1   
@<TRIPOS>SUBSTRUCTURE
     1 2NI         1 TEMP              0 ****  ****    0 ROOT
