@<TRIPOS>MOLECULE
2NI
   42    42     1     0     0
SMALL
bcc


@<TRIPOS>ATOM
      1 C1       -110.6610  113.8340 -197.9320 ca        1 2NI     -0.101500
      2 C2       -110.8290  113.1690 -196.7220 ca        1 2NI     -0.097500
      3 C3       -112.0910  113.2140 -196.1220 ca        1 2NI     -0.070000
      4 C4       -113.1860  113.8790 -196.6860 ca        1 2NI     -0.097500
      5 C5       -112.9890  114.5330 -197.8990 ca        1 2NI     -0.101500
      6 C6       -111.7340  114.5220 -198.5310 cp        1 2NI      0.040000
      7 C7       -111.5430  115.2130 -199.8030 cq        1 2NI     -0.074000
      8 C8       -110.3570  115.9190 -200.0540 ca        1 2NI     -0.106500
      9 C9       -110.1750  116.5820 -201.2640 ca        1 2NI     -0.089500
     10 C10      -111.1780  116.5380 -202.2430 ca        1 2NI      0.032000
     11 C11      -112.3640  115.8300 -202.0000 ca        1 2NI     -0.089500
     12 C12      -112.5440  115.1750 -200.7850 ca        1 2NI     -0.106500
     13 C13      -110.9920  117.2110 -203.4810 c1        1 2NI     -0.122000
     14 N1       -110.8400  117.7620 -204.4940 n1        1 2NI      0.015000
     15 O1       -112.3770  112.4950 -194.9290 os        1 2NI     -0.009000
     16 C14      -111.4960  112.4540 -193.9710 c2        1 2NI      0.254000
     17 C15      -111.8530  111.6840 -192.7770 c3        1 2NI     -0.287000
     18 N2        254.4600 -257.1700  445.0130 n         1 2NI     -0.302000
     19 C16       254.1760 -257.9800  443.8490 c3        1 2NI     -0.092000
     20 C17       254.5210 -255.8240  444.9140 c2        1 2NI      0.327000
     21 O2        254.3060 -255.0560  443.9760 o         1 2NI     -0.225000
     22 N3        254.9220 -255.0210  446.2110 n4        1 2NI     -0.004000
     23 O3        254.3660 -255.5050  447.3390 oh        1 2NI     -0.213000
     24 H1       -109.6800  113.8070 -198.4360 ha        1 2NI      0.175000
     25 H2       -109.9960  112.6060 -196.2760 ha        1 2NI      0.163500
     26 H4       -114.1680  113.8800 -196.1870 ha        1 2NI      0.163500
     27 H5       -113.8320  115.0740 -198.3640 ha        1 2NI      0.175000
     28 H8       -109.5680  115.9640 -199.2870 ha        1 2NI      0.143000
     29 H9       -109.2440  117.1400 -201.4530 ha        1 2NI      0.162500
     30 H11      -113.1520  115.7920 -202.7690 ha        1 2NI      0.162500
     31 H12      -113.4750  114.6150 -200.6040 ha        1 2NI      0.143000
     32 H141     -111.8190  112.3650 -191.8800 hc        1 2NI      0.176000
     33 H142     -110.5160  112.9720 -194.0650 h4        1 2NI      0.196000
     34 H151     -112.8700  111.2160 -192.8430 hc        1 2NI      0.176000
     35 H152     -111.0860  110.8750 -192.6150 hc        1 2NI      0.176000
     36 H161      253.8140 -257.3450  442.9970 h1        1 2NI      0.130000
     37 H162      255.1110 -258.5220  443.5400 h1        1 2NI      0.130000
     38 H163      253.3810 -258.7240  444.1270 h1        1 2NI      0.130000
     39 HN3       255.9500 -255.0940  446.3540 hn        1 2NI      0.281500
     40 HO3       253.4050 -255.2890  447.3400 ho        1 2NI      0.278000
     41 H21       254.6580 -257.6350  445.8750 hn        1 2NI      0.278000
     42 H32       254.6830 -254.0240  446.0460 hn        1 2NI      0.281500
@<TRIPOS>BOND
     1    1    2 1   
     2    1    6 1   
     3    1   24 1   
     4    2    3 1   
     5    2   25 1   
     6    3    4 1   
     7    3   15 1   
     8    4    5 1   
     9    4   26 1   
    10    5    6 1   
    11    5   27 1   
    12    6    7 1   
    13    7    8 1   
    14    7   12 1   
    15    8    9 1   
    16    8   28 1   
    17    9   10 1   
    18    9   29 1   
    19   10   11 1   
    20   10   13 1   
    21   11   12 1   
    22   11   30 1   
    23   12   31 1   
    24   13   14 1   
    25   15   16 1   
    26   16   17 1   
    27   16   33 1   
    28   17   32 1   
    29   17   34 1   
    30   17   35 1   
    31   18   19 1   
    32   18   20 1   
    33   18   41 1   
    34   19   36 1   
    35   19   37 1   
    36   19   38 1   
    37   20   21 1   
    38   20   22 1   
    39   22   23 1   
    40   22   39 1   
    41   22   42 1   
    42   23   40 1   
@<TRIPOS>SUBSTRUCTURE
     1 2NI         1 TEMP              0 ****  ****    0 ROOT
