@<TRIPOS>MOLECULE
2NI
   42    43     1     0     0
SMALL
bcc


@<TRIPOS>ATOM
      1 C1         -0.0370    0.7880   -0.0900 ca        1 2NI     -0.097000
      2 C2          1.3180    0.6250   -0.3730 ca        1 2NI     -0.137500
      3 C3          2.0460   -0.3110    0.3650 ca        1 2NI     -0.007900
      4 C4          1.4450   -1.1070    1.3520 ca        1 2NI     -0.137500
      5 C5          0.0920   -0.9320    1.6180 ca        1 2NI     -0.097000
      6 C6         -0.6640    0.0180    0.9030 cp        1 2NI      0.038000
      7 C7         -2.0850    0.1910    1.1870 cp        1 2NI     -0.085000
      8 C8         -2.6580    1.4720    1.1750 ca        1 2NI     -0.107000
      9 C9         -4.0120    1.6410    1.4460 ca        1 2NI     -0.088500
     10 C10        -4.8140    0.5250    1.7280 ca        1 2NI      0.040000
     11 C11        -4.2480   -0.7590    1.7350 ca        1 2NI     -0.088500
     12 C12        -2.8920   -0.9220    1.4700 ca        1 2NI     -0.107000
     13 C13        -6.1970    0.6940    2.0040 cg        1 2NI      0.197800
     14 N1         -7.3300    0.8320    2.2310 n1        1 2NI     -0.291800
     15 O1          3.4310   -0.4000    0.1770 os        1 2NI     -0.457900
     16 C14         3.8510   -1.4830   -0.6610 c3        1 2NI      0.098400
     17 C15         5.3760   -1.4080   -0.7050 c3        1 2NI      0.103800
     18 N2          6.0130   -1.3740    0.6760 n4        1 2NI     -0.538200
     19 C16         7.5040   -1.4920    0.5740 c3        1 2NI      0.082100
     20 C17         5.6650   -0.0890    1.3470 c         1 2NI      0.543100
     21 O2          6.0640    1.0020    0.9890 o         1 2NI     -0.286100
     22 N3          4.7320   -0.1260    2.5620 n4        1 2NI     -0.430300
     23 O3          5.0500   -1.2060    3.3090 oh        1 2NI     -0.388300
     24 H1         -0.6280    1.5210   -0.6670 ha        1 2NI      0.174000
     25 H2          1.8050    1.2220   -1.1590 ha        1 2NI      0.140000
     26 H4          2.0190   -1.8810    1.8790 ha        1 2NI      0.140000
     27 H5         -0.4010   -1.5460    2.3910 ha        1 2NI      0.174000
     28 H8         -2.0360    2.3540    0.9590 ha        1 2NI      0.139500
     29 H9         -4.4560    2.6500    1.4390 ha        1 2NI      0.167000
     30 H11        -4.8790   -1.6380    1.9470 ha        1 2NI      0.167000
     31 H12        -2.4600   -1.9340    1.4640 ha        1 2NI      0.139500
     32 H141        3.4550   -1.3400   -1.7060 h1        1 2NI      0.111200
     33 H142        3.4760   -2.4570   -0.2460 h1        1 2NI      0.111200
     34 H151        5.7110   -0.4770   -1.2520 hx        1 2NI      0.148200
     35 H152        5.7820   -2.3240   -1.2300 hx        1 2NI      0.148200
     36 H161        7.9540   -1.4960    1.6040 hx        1 2NI      0.137700
     37 H162        7.9140   -0.6320   -0.0260 hx        1 2NI      0.137700
     38 H163        7.7420   -2.4640    0.0540 hx        1 2NI      0.137700
     39 HN3         4.8610    0.7720    3.0820 hn        1 2NI      0.527800
     40 HO3         4.6180   -1.1330    4.2000 ho        1 2NI      0.526000
     41 H21         5.6510   -2.1730    1.2240 hn        1 2NI      0.487800
     42 H32         3.7330   -0.2000    2.2060 hn        1 2NI      0.527800
@<TRIPOS>BOND
     1    1    2 ar  
     2    1    6 ar  
     3    1   24 1   
     4    2    3 ar  
     5    2   25 1   
     6    3    4 ar  
     7    3   15 1   
     8    4    5 ar  
     9    4   26 1   
    10    5    6 ar  
    11    5   27 1   
    12    6    7 1   
    13    7    8 ar  
    14    7   12 ar  
    15    8    9 ar  
    16    8   28 1   
    17    9   10 ar  
    18    9   29 1   
    19   10   11 ar  
    20   10   13 1   
    21   11   12 ar  
    22   11   30 1   
    23   12   31 1   
    24   13   14 3   
    25   15   16 1   
    26   16   17 1   
    27   16   32 1   
    28   16   33 1   
    29   17   18 1   
    30   17   34 1   
    31   17   35 1   
    32   18   19 1   
    33   18   20 1   
    34   18   41 1   
    35   19   36 1   
    36   19   37 1   
    37   19   38 1   
    38   20   21 2   
    39   20   22 1   
    40   22   23 1   
    41   22   39 1   
    42   22   42 1   
    43   23   40 1   
@<TRIPOS>SUBSTRUCTURE
     1 2NI         1 TEMP              0 ****  ****    0 ROOT
