@<TRIPOS>MOLECULE
2NJ
   35    37     1     0     0
SMALL
bcc


@<TRIPOS>ATOM
      1 O           0.0150    0.1530   -0.1730 o         1 2NJ     -0.625500
      2 C9          1.2510    0.0330   -0.0830 c         1 2NJ      0.695500
      3 N           1.8490   -0.0620    1.1770 n         1 2NJ     -0.392000
      4 C           1.0570    0.1660    2.3580 c3        1 2NJ      0.078300
      5 C8          2.1300   -0.0150   -1.3130 c3        1 2NJ     -0.177400
      6 C7          2.7540   -1.4050   -1.5260 c3        1 2NJ      0.235800
      7 C10         3.6700   -1.3230   -2.7250 ca        1 2NJ     -0.077300
      8 C15         3.2840   -1.9380   -3.9210 ca        1 2NJ     -0.117000
      9 C14         4.1010   -1.8540   -5.0470 ca        1 2NJ     -0.131000
     10 C13         5.3100   -1.1600   -4.9860 ca        1 2NJ     -0.126000
     11 C12         5.7010   -0.5530   -3.7930 ca        1 2NJ     -0.131000
     12 C11         4.8850   -0.6340   -2.6660 ca        1 2NJ     -0.117000
     13 N1          3.4150   -1.9810   -0.3560 nh        1 2NJ     -0.696600
     14 C6          4.0190   -1.0520    0.5440 ca        1 2NJ      0.056600
     15 C1          3.2560   -0.1230    1.3180 ca        1 2NJ      0.024600
     16 C5          5.4150   -1.0880    0.7110 ca        1 2NJ     -0.090000
     17 C4          6.0460   -0.2540    1.6290 ca        1 2NJ     -0.146000
     18 C3          5.2990    0.6340    2.3970 ca        1 2NJ     -0.112000
     19 C2          3.9190    0.7060    2.2460 ca        1 2NJ     -0.153000
     20 H1          1.5150   -0.3720    3.2280 h1        1 2NJ      0.050367
     21 H2          0.9960    1.2630    2.5940 h1        1 2NJ      0.050367
     22 H3          0.0160   -0.2200    2.1820 h1        1 2NJ      0.050367
     23 H4          2.9370    0.7600   -1.2330 hc        1 2NJ      0.086700
     24 H5          1.4930    0.2340   -2.2020 hc        1 2NJ      0.086700
     25 H6          1.9090   -2.1160   -1.7910 h1        1 2NJ      0.065700
     26 H7          2.3350   -2.4920   -3.9760 ha        1 2NJ      0.135000
     27 H8          3.7920   -2.3370   -5.9850 ha        1 2NJ      0.131500
     28 H9          5.9540   -1.0950   -5.8750 ha        1 2NJ      0.131000
     29 H10         6.6560   -0.0100   -3.7390 ha        1 2NJ      0.131500
     30 H11         5.2020   -0.1640   -1.7210 ha        1 2NJ      0.135000
     31 H12         2.7580   -2.5460    0.1550 hn        1 2NJ      0.380800
     32 H13         6.0120   -1.7960    0.1130 ha        1 2NJ      0.153000
     33 H14         7.1390   -0.3040    1.7480 ha        1 2NJ      0.138000
     34 H15         5.8000    1.2880    3.1270 ha        1 2NJ      0.136000
     35 H16         3.3440    1.4160    2.8590 ha        1 2NJ      0.140000
@<TRIPOS>BOND
     1    1    2 2   
     2    2    3 1   
     3    2    5 1   
     4    3    4 1   
     5    3   15 1   
     6    4   20 1   
     7    4   21 1   
     8    4   22 1   
     9    5    6 1   
    10    5   23 1   
    11    5   24 1   
    12    6    7 1   
    13    6   13 1   
    14    6   25 1   
    15    7    8 ar  
    16    7   12 ar  
    17    8    9 ar  
    18    8   26 1   
    19    9   10 ar  
    20    9   27 1   
    21   10   11 ar  
    22   10   28 1   
    23   11   12 ar  
    24   11   29 1   
    25   12   30 1   
    26   13   14 1   
    27   13   31 1   
    28   14   15 ar  
    29   14   16 ar  
    30   15   19 ar  
    31   16   17 ar  
    32   16   32 1   
    33   17   18 ar  
    34   17   33 1   
    35   18   19 ar  
    36   18   34 1   
    37   19   35 1   
@<TRIPOS>SUBSTRUCTURE
     1 2NJ         1 TEMP              0 ****  ****    0 ROOT
