@<TRIPOS>MOLECULE
2NJ
   35    37     1     0     0
SMALL
bcc


@<TRIPOS>ATOM
      1 O           0.0150    0.1460   -0.1690 o         1 2NJ     -0.625500
      2 C9          1.2510    0.0270   -0.0800 c         1 2NJ      0.695500
      3 N           1.8500   -0.0670    1.1810 n         1 2NJ     -0.392000
      4 C           1.0570    0.1600    2.3610 c3        1 2NJ      0.078300
      5 C8          2.1300   -0.0200   -1.3090 c3        1 2NJ     -0.177400
      6 C7          2.7550   -1.4090   -1.5220 c3        1 2NJ      0.235800
      7 C10         3.6710   -1.3250   -2.7220 ca        1 2NJ     -0.077300
      8 C15         3.2860   -1.9400   -3.9180 ca        1 2NJ     -0.117000
      9 C14         4.1030   -1.8540   -5.0450 ca        1 2NJ     -0.131000
     10 C13         5.3110   -1.1600   -4.9830 ca        1 2NJ     -0.126000
     11 C12         5.7020   -0.5530   -3.7900 ca        1 2NJ     -0.131000
     12 C11         4.8860   -0.6350   -2.6630 ca        1 2NJ     -0.117000
     13 N1          3.4170   -1.9840   -0.3530 nh        1 2NJ     -0.696600
     14 C6          4.0200   -1.0550    0.5470 ca        1 2NJ      0.056600
     15 C1          3.2570   -0.1260    1.3210 ca        1 2NJ      0.024600
     16 C5          5.4160   -1.0890    0.7140 ca        1 2NJ     -0.090000
     17 C4          6.0470   -0.2540    1.6310 ca        1 2NJ     -0.146000
     18 C3          5.2990    0.6330    2.4000 ca        1 2NJ     -0.112000
     19 C2          3.9180    0.7030    2.2490 ca        1 2NJ     -0.153000
     20 H1          1.5160   -0.3770    3.2320 h1        1 2NJ      0.050367
     21 H2          0.0170   -0.2270    2.1860 h1        1 2NJ      0.050367
     22 H3          0.9950    1.2560    2.5980 h1        1 2NJ      0.050367
     23 H4          2.9360    0.7570   -1.2300 hc        1 2NJ      0.086700
     24 H5          1.4930    0.2300   -2.1990 hc        1 2NJ      0.086700
     25 H6          1.9110   -2.1200   -1.7880 h1        1 2NJ      0.065700
     26 H7          2.3370   -2.4950   -3.9740 ha        1 2NJ      0.135000
     27 H8          3.7930   -2.3380   -5.9830 ha        1 2NJ      0.131500
     28 H9          5.9540   -1.0940   -5.8720 ha        1 2NJ      0.131000
     29 H10         6.6560   -0.0090   -3.7360 ha        1 2NJ      0.131500
     30 H11         5.2020   -0.1650   -1.7180 ha        1 2NJ      0.135000
     31 H12         2.7610   -2.5490    0.1580 hn        1 2NJ      0.380800
     32 H13         6.0150   -1.7960    0.1160 ha        1 2NJ      0.153000
     33 H14         7.1400   -0.3030    1.7510 ha        1 2NJ      0.138000
     34 H15         5.7980    1.2880    3.1300 ha        1 2NJ      0.136000
     35 H16         3.3420    1.4130    2.8630 ha        1 2NJ      0.140000
@<TRIPOS>BOND
     1    1    2 2   
     2    2    3 1   
     3    2    5 1   
     4    3    4 1   
     5    3   15 1   
     6    4   20 1   
     7    4   21 1   
     8    4   22 1   
     9    5    6 1   
    10    5   23 1   
    11    5   24 1   
    12    6    7 1   
    13    6   13 1   
    14    6   25 1   
    15    7    8 ar  
    16    7   12 ar  
    17    8    9 ar  
    18    8   26 1   
    19    9   10 ar  
    20    9   27 1   
    21   10   11 ar  
    22   10   28 1   
    23   11   12 ar  
    24   11   29 1   
    25   12   30 1   
    26   13   14 1   
    27   13   31 1   
    28   14   15 ar  
    29   14   16 ar  
    30   15   19 ar  
    31   16   17 ar  
    32   16   32 1   
    33   17   18 ar  
    34   17   33 1   
    35   18   19 ar  
    36   18   34 1   
    37   19   35 1   
@<TRIPOS>SUBSTRUCTURE
     1 2NJ         1 TEMP              0 ****  ****    0 ROOT
