@<TRIPOS>MOLECULE
2NJ
   35    37     1     0     0
SMALL
bcc


@<TRIPOS>ATOM
      1 O           0.0150    0.1460   -0.1710 o         1 2NJ     -0.625500
      2 C9          1.2510    0.0290   -0.0810 c         1 2NJ      0.695500
      3 N           1.8500   -0.0590    1.1790 n         1 2NJ     -0.392000
      4 C           1.0580    0.1740    2.3590 c3        1 2NJ      0.078300
      5 C8          2.1290   -0.0240   -1.3110 c3        1 2NJ     -0.177400
      6 C7          2.7550   -1.4130   -1.5180 c3        1 2NJ      0.235800
      7 C10         3.6710   -1.3350   -2.7180 ca        1 2NJ     -0.077300
      8 C15         3.2860   -1.9570   -3.9110 ca        1 2NJ     -0.117000
      9 C14         4.1020   -1.8760   -5.0380 ca        1 2NJ     -0.131000
     10 C13         5.3090   -1.1800   -4.9810 ca        1 2NJ     -0.126000
     11 C12         5.7000   -0.5660   -3.7910 ca        1 2NJ     -0.131000
     12 C11         4.8840   -0.6430   -2.6630 ca        1 2NJ     -0.117000
     13 N1          3.4180   -1.9820   -0.3470 nu        1 2NJ     -0.696600
     14 C6          4.0210   -1.0480    0.5490 ca        1 2NJ      0.056600
     15 C1          3.2570   -0.1160    1.3190 ca        1 2NJ      0.024600
     16 C5          5.4170   -1.0810    0.7150 ca        1 2NJ     -0.090000
     17 C4          6.0480   -0.2420    1.6280 ca        1 2NJ     -0.146000
     18 C3          5.3000    0.6490    2.3930 ca        1 2NJ     -0.112000
     19 C2          3.9190    0.7170    2.2420 ca        1 2NJ     -0.153000
     20 H1          0.0180   -0.2150    2.1860 h1        1 2NJ      0.050367
     21 H2          0.9960    1.2710    2.5900 h1        1 2NJ      0.050367
     22 H3          1.5180   -0.3590    3.2320 h1        1 2NJ      0.050367
     23 H4          2.9350    0.7540   -1.2360 hc        1 2NJ      0.086700
     24 H5          1.4910    0.2210   -2.2010 hc        1 2NJ      0.086700
     25 H6          1.9110   -2.1260   -1.7800 h1        1 2NJ      0.065700
     26 H7          2.3380   -2.5130   -3.9630 ha        1 2NJ      0.135000
     27 H8          3.7930   -2.3650   -5.9740 ha        1 2NJ      0.131500
     28 H9          5.9520   -1.1180   -5.8700 ha        1 2NJ      0.131000
     29 H10         6.6540   -0.0200   -3.7400 ha        1 2NJ      0.131500
     30 H11         5.2000   -0.1680   -1.7210 ha        1 2NJ      0.135000
     31 H12         2.7620   -2.5450    0.1680 hn        1 2NJ      0.380800
     32 H13         6.0160   -1.7910    0.1200 ha        1 2NJ      0.153000
     33 H14         7.1410   -0.2890    1.7470 ha        1 2NJ      0.138000
     34 H15         5.8000    1.3080    3.1200 ha        1 2NJ      0.136000
     35 H16         3.3430    1.4300    2.8530 ha        1 2NJ      0.140000
@<TRIPOS>BOND
     1    1    2 2   
     2    2    3 1   
     3    2    5 1   
     4    3    4 1   
     5    3   15 1   
     6    4   20 1   
     7    4   21 1   
     8    4   22 1   
     9    5    6 1   
    10    5   23 1   
    11    5   24 1   
    12    6    7 1   
    13    6   13 1   
    14    6   25 1   
    15    7    8 ar  
    16    7   12 ar  
    17    8    9 ar  
    18    8   26 1   
    19    9   10 ar  
    20    9   27 1   
    21   10   11 ar  
    22   10   28 1   
    23   11   12 ar  
    24   11   29 1   
    25   12   30 1   
    26   13   14 1   
    27   13   31 1   
    28   14   15 ar  
    29   14   16 ar  
    30   15   19 ar  
    31   16   17 ar  
    32   16   32 1   
    33   17   18 ar  
    34   17   33 1   
    35   18   19 ar  
    36   18   34 1   
    37   19   35 1   
@<TRIPOS>SUBSTRUCTURE
     1 2NJ         1 TEMP              0 ****  ****    0 ROOT
