@<TRIPOS>MOLECULE
2NK
   49    52     1     0     0
SMALL
bcc


@<TRIPOS>ATOM
      1 C1          0.0990    0.2880    0.0050 ca        1 2NK      0.407200
      2 N1          1.4400    0.3340    0.0310 nb        1 2NK     -0.663000
      3 C2          2.0360    0.2270    1.2360 ca        1 2NK      0.398200
      4 C3          1.3260    0.0830    2.4370 ca        1 2NK     -0.242300
      5 C4         -0.0790    0.0450    2.4060 cp        1 2NK      0.031000
      6 C5         -0.7160    0.1360    1.1550 cq        1 2NK     -0.155300
      7 C6         -2.1640    0.0620    0.9720 cq        1 2NK     -0.019000
      8 C7         -0.8040   -0.0680    3.6700 cp        1 2NK     -0.097000
      9 C8         -2.8160    1.0560    0.2340 ca        1 2NK     -0.129500
     10 C9         -4.2000    0.9880    0.0140 ca        1 2NK      0.090900
     11 C10        -4.9400   -0.1000    0.5360 ca        1 2NK      0.062100
     12 C11        -4.2690   -1.1000    1.2750 ca        1 2NK      0.090900
     13 C12        -2.8870   -1.0170    1.4920 ca        1 2NK     -0.129500
     14 F1         -4.8260    1.9540   -0.6940 f         1 2NK     -0.129400
     15 C13        -1.7950    0.8580    4.0210 ca        1 2NK     -0.083000
     16 C14        -2.4520    0.7740    5.2410 ca        1 2NK     -0.177000
     17 C15        -2.1420   -0.2560    6.1640 ca        1 2NK      0.157600
     18 C16        -1.1440   -1.1880    5.7970 ca        1 2NK     -0.177000
     19 C17        -0.4830   -1.0830    4.5790 ca        1 2NK     -0.083000
     20 O1         -6.2890   -0.1220    0.2930 oh        1 2NK     -0.473100
     21 F2         -4.9840   -2.1420    1.7690 f         1 2NK     -0.129400
     22 N2         -2.7640   -0.2710    7.4340 nh        1 2NK     -0.639000
     23 C18        -4.2180   -0.1900    7.4290 c3        1 2NK      0.187300
     24 C19        -4.8030    0.0100    8.8410 c3        1 2NK      0.164300
     25 N3         -4.3020   -0.9590    9.8050 n3        1 2NK     -0.732600
     26 C20        -2.8480   -1.0240    9.8070 c3        1 2NK      0.164300
     27 C21        -2.2530   -1.2290    8.3990 c3        1 2NK      0.187300
     28 C22        -4.8490   -0.7580   11.1270 c3        1 2NK      0.157100
     29 H1         -0.3680    0.3710   -0.9940 h4        1 2NK      0.027100
     30 H2          3.1400    0.2620    1.2300 h4        1 2NK      0.025100
     31 H3          1.8590    0.0100    3.3940 ha        1 2NK      0.150000
     32 H4         -2.2500    1.9050   -0.1790 ha        1 2NK      0.162500
     33 H5         -2.3800   -1.8000    2.0760 ha        1 2NK      0.162500
     34 H6         -2.0540    1.6670    3.3200 ha        1 2NK      0.137500
     35 H7         -3.2080    1.5350    5.4870 ha        1 2NK      0.138500
     36 H8         -0.8700   -2.0150    6.4690 ha        1 2NK      0.138500
     37 H9          0.2980   -1.8150    4.3220 ha        1 2NK      0.137500
     38 H10        -6.6500   -0.9290    0.6960 ho        1 2NK      0.433000
     39 H11        -4.6700   -1.1200    6.9780 h1        1 2NK      0.045700
     40 H12        -4.5340    0.6910    6.8050 h1        1 2NK      0.045700
     41 H13        -4.6010    1.0710    9.1710 h1        1 2NK      0.040200
     42 H14        -5.9190   -0.1230    8.7680 h1        1 2NK      0.040200
     43 H16        -2.3880   -0.0980   10.2620 h1        1 2NK      0.040200
     44 H17        -2.5430   -1.9070   10.4350 h1        1 2NK      0.040200
     45 H18        -2.4560   -2.2910    8.0730 h1        1 2NK      0.045700
     46 H19        -1.1380   -1.0880    8.4790 h1        1 2NK      0.045700
     47 H20        -4.5560    0.2250   11.5880 h1        1 2NK      0.034033
     48 H21        -4.4900   -1.5850   11.7940 h1        1 2NK      0.034033
     49 H22        -5.9670   -0.8040   11.0650 h1        1 2NK      0.034033
@<TRIPOS>BOND
     1    1    2 ar  
     2    1    6 2   
     3    1   29 1   
     4    2    3 ar  
     5    3    4 ar  
     6    3   30 1   
     7    4    5 ar  
     8    4   31 1   
     9    5    6 1   
    10    5    8 1   
    11    6    7 1   
    12    7    9 1   
    13    7   13 2   
    14    8   15 ar  
    15    8   19 ar  
    16    9   10 ar  
    17    9   32 1   
    18   10   11 ar  
    19   10   14 1   
    20   11   12 ar  
    21   11   20 1   
    22   12   13 ar  
    23   12   21 1   
    24   13   33 1   
    25   15   16 ar  
    26   15   34 1   
    27   16   17 ar  
    28   16   35 1   
    29   17   18 ar  
    30   17   22 1   
    31   18   19 ar  
    32   18   36 1   
    33   19   37 1   
    34   20   38 1   
    35   22   23 1   
    36   22   27 1   
    37   23   24 1   
    38   23   39 1   
    39   23   40 1   
    40   24   25 1   
    41   24   41 1   
    42   24   42 1   
    43   25   26 1   
    44   25   28 1   
    45   26   27 1   
    46   26   43 1   
    47   26   44 1   
    48   27   45 1   
    49   27   46 1   
    50   28   47 1   
    51   28   48 1   
    52   28   49 1   
@<TRIPOS>SUBSTRUCTURE
     1 2NK         1 TEMP              0 ****  ****    0 ROOT
