@<TRIPOS>MOLECULE
2NK
   49    52     1     0     0
SMALL
bcc


@<TRIPOS>ATOM
      1 C1          0.0940    0.2840    0.0020 ca        1 2NK      0.407200
      2 N1          1.4350    0.3300    0.0270 nb        1 2NK     -0.663000
      3 C2          2.0320    0.2240    1.2310 ca        1 2NK      0.398200
      4 C3          1.3240    0.0820    2.4330 ca        1 2NK     -0.242300
      5 C4         -0.0810    0.0440    2.4040 cp        1 2NK      0.032000
      6 C5         -0.7190    0.1330    1.1530 cq        1 2NK     -0.155300
      7 C6         -2.1680    0.0590    0.9720 cq        1 2NK     -0.019000
      8 C7         -0.8050   -0.0680    3.6690 cp        1 2NK     -0.097000
      9 C8         -2.8210    1.0530    0.2340 ca        1 2NK     -0.129500
     10 C9         -4.2050    0.9840    0.0150 ca        1 2NK      0.090900
     11 C10        -4.9440   -0.1030    0.5380 ca        1 2NK      0.062100
     12 C11        -4.2720   -1.1030    1.2760 ca        1 2NK      0.090900
     13 C12        -2.8900   -1.0200    1.4920 ca        1 2NK     -0.129500
     14 F1         -4.8320    1.9500   -0.6930 f         1 2NK     -0.129400
     15 C13        -1.7970    0.8570    4.0190 ca        1 2NK     -0.083000
     16 C14        -2.4520    0.7730    5.2400 ca        1 2NK     -0.177000
     17 C15        -2.1410   -0.2550    6.1630 ca        1 2NK      0.157600
     18 C16        -1.1420   -1.1860    5.7970 ca        1 2NK     -0.177000
     19 C17        -0.4830   -1.0820    4.5780 ca        1 2NK     -0.083000
     20 O1         -6.2940   -0.1270    0.2960 oh        1 2NK     -0.473100
     21 F2         -4.9870   -2.1450    1.7710 f         1 2NK     -0.129400
     22 N2         -2.7620   -0.2680    7.4340 nh        1 2NK     -0.639000
     23 C18        -4.2150   -0.1890    7.4310 c3        1 2NK      0.187300
     24 C19        -4.8000    0.0120    8.8430 c3        1 2NK      0.164300
     25 N3         -4.2960   -0.9550    9.8080 n3        1 2NK     -0.732600
     26 C20        -2.8420   -1.0180    9.8080 c3        1 2NK      0.164300
     27 C21        -2.2490   -1.2240    8.4000 c3        1 2NK      0.187300
     28 C22        -4.8420   -0.7530   11.1300 c3        1 2NK      0.157100
     29 H1         -0.3740    0.3660   -0.9970 h4        1 2NK      0.027100
     30 H2          3.1370    0.2600    1.2240 h4        1 2NK      0.025100
     31 H3          1.8580    0.0100    3.3900 ha        1 2NK      0.150000
     32 H4         -2.2550    1.9020   -0.1800 ha        1 2NK      0.162500
     33 H5         -2.3820   -1.8030    2.0750 ha        1 2NK      0.162500
     34 H6         -2.0570    1.6650    3.3170 ha        1 2NK      0.137500
     35 H7         -3.2090    1.5340    5.4850 ha        1 2NK      0.138500
     36 H8         -0.8670   -2.0130    6.4690 ha        1 2NK      0.138500
     37 H9          0.2990   -1.8140    4.3210 ha        1 2NK      0.137500
     38 H10        -6.6540   -0.9330    0.7000 ho        1 2NK      0.433000
     39 H11        -4.5340    0.6900    6.8050 h1        1 2NK      0.045700
     40 H12        -4.6680   -1.1210    6.9810 h1        1 2NK      0.045700
     41 H13        -4.5990    1.0740    9.1710 h1        1 2NK      0.040200
     42 H14        -5.9150   -0.1230    8.7710 h1        1 2NK      0.040200
     43 H16        -2.5360   -1.9000   10.4370 h1        1 2NK      0.040200
     44 H17        -2.3830   -0.0910   10.2620 h1        1 2NK      0.040200
     45 H18        -2.4510   -2.2870    8.0760 h1        1 2NK      0.045700
     46 H19        -1.1340   -1.0830    8.4790 h1        1 2NK      0.045700
     47 H20        -5.9610   -0.8000   11.0690 h1        1 2NK      0.034033
     48 H21        -4.5500    0.2320   11.5890 h1        1 2NK      0.034033
     49 H22        -4.4820   -1.5790   11.7980 h1        1 2NK      0.034033
@<TRIPOS>BOND
     1    1    2 ar  
     2    1    6 2   
     3    1   29 1   
     4    2    3 ar  
     5    3    4 ar  
     6    3   30 1   
     7    4    5 ar  
     8    4   31 1   
     9    5    6 1   
    10    5    8 1   
    11    6    7 1   
    12    7    9 1   
    13    7   13 2   
    14    8   15 ar  
    15    8   19 ar  
    16    9   10 ar  
    17    9   32 1   
    18   10   11 ar  
    19   10   14 1   
    20   11   12 ar  
    21   11   20 1   
    22   12   13 ar  
    23   12   21 1   
    24   13   33 1   
    25   15   16 ar  
    26   15   34 1   
    27   16   17 ar  
    28   16   35 1   
    29   17   18 ar  
    30   17   22 1   
    31   18   19 ar  
    32   18   36 1   
    33   19   37 1   
    34   20   38 1   
    35   22   23 1   
    36   22   27 1   
    37   23   24 1   
    38   23   39 1   
    39   23   40 1   
    40   24   25 1   
    41   24   41 1   
    42   24   42 1   
    43   25   26 1   
    44   25   28 1   
    45   26   27 1   
    46   26   43 1   
    47   26   44 1   
    48   27   45 1   
    49   27   46 1   
    50   28   47 1   
    51   28   48 1   
    52   28   49 1   
@<TRIPOS>SUBSTRUCTURE
     1 2NK         1 TEMP              0 ****  ****    0 ROOT
