@<TRIPOS>MOLECULE
2NK
   49    52     1     0     0
SMALL
bcc


@<TRIPOS>ATOM
      1 C1          0.0960    0.2790    0.0030 ca        1 2NK      0.407200
      2 N1          1.4370    0.3270    0.0280 nb        1 2NK     -0.663000
      3 C2          2.0340    0.2240    1.2330 ca        1 2NK      0.398200
      4 C3          1.3250    0.0820    2.4350 ca        1 2NK     -0.242300
      5 C4         -0.0800    0.0420    2.4050 cp        1 2NK      0.032000
      6 C5         -0.7180    0.1290    1.1530 cq        1 2NK     -0.155300
      7 C6         -2.1660    0.0530    0.9710 cq        1 2NK     -0.019000
      8 C7         -0.8050   -0.0680    3.6690 cp        1 2NK     -0.097000
      9 C8         -2.8200    1.0450    0.2320 ca        1 2NK     -0.129500
     10 C9         -4.2040    0.9740    0.0120 ca        1 2NK      0.090900
     11 C10        -4.9420   -0.1140    0.5350 ca        1 2NK      0.062100
     12 C11        -4.2690   -1.1120    1.2760 ca        1 2NK      0.090900
     13 C12        -2.8870   -1.0270    1.4920 ca        1 2NK     -0.129500
     14 F1         -4.8310    1.9390   -0.6970 f         1 2NK     -0.129400
     15 C13        -1.7990    0.8560    4.0180 ca        1 2NK     -0.083000
     16 C14        -2.4540    0.7740    5.2380 ca        1 2NK     -0.177000
     17 C15        -2.1420   -0.2520    6.1640 ca        1 2NK      0.157600
     18 C16        -1.1410   -1.1830    5.8000 ca        1 2NK     -0.177000
     19 C17        -0.4810   -1.0800    4.5810 ca        1 2NK     -0.083000
     20 O1         -6.2910   -0.1390    0.2930 oh        1 2NK     -0.473100
     21 F2         -4.9830   -2.1540    1.7710 f         1 2NK     -0.129400
     22 N2         -2.7640   -0.2640    7.4340 nh        1 2NK     -0.639000
     23 C18        -4.2170   -0.1880    7.4300 c3        1 2NK      0.187300
     24 C19        -4.8030    0.0160    8.8410 c3        1 2NK      0.164300
     25 N3         -4.2980   -0.9480    9.8080 n3        1 2NK     -0.732600
     26 C20        -2.8440   -1.0090    9.8090 c3        1 2NK      0.164300
     27 C21        -2.2490   -1.2170    8.4020 c3        1 2NK      0.187300
     28 C22        -4.8450   -0.7440   11.1300 c3        1 2NK      0.157100
     29 H1         -0.3710    0.3590   -0.9960 h4        1 2NK      0.027100
     30 H2          3.1380    0.2610    1.2270 h4        1 2NK      0.025100
     31 H3          1.8580    0.0120    3.3930 ha        1 2NK      0.150000
     32 H4         -2.2550    1.8940   -0.1820 ha        1 2NK      0.162500
     33 H5         -2.3790   -1.8090    2.0770 ha        1 2NK      0.162500
     34 H6         -2.0590    1.6620    3.3140 ha        1 2NK      0.137500
     35 H7         -3.2130    1.5340    5.4810 ha        1 2NK      0.138500
     36 H8         -0.8650   -2.0070    6.4740 ha        1 2NK      0.138500
     37 H9          0.3010   -1.8120    4.3260 ha        1 2NK      0.137500
     38 H10        -6.6510   -0.9460    0.6970 ho        1 2NK      0.433000
     39 H11        -4.5370    0.6900    6.8020 h1        1 2NK      0.045700
     40 H12        -4.6680   -1.1210    6.9810 h1        1 2NK      0.045700
     41 H13        -4.6040    1.0790    9.1660 h1        1 2NK      0.040200
     42 H14        -5.9180   -0.1210    8.7690 h1        1 2NK      0.040200
     43 H16        -2.5370   -1.8890   10.4410 h1        1 2NK      0.040200
     44 H17        -2.3870   -0.0810   10.2610 h1        1 2NK      0.040200
     45 H18        -2.4500   -2.2810    8.0800 h1        1 2NK      0.045700
     46 H19        -1.1350   -1.0740    8.4810 h1        1 2NK      0.045700
     47 H20        -4.5550    0.2420   11.5870 h1        1 2NK      0.034033
     48 H21        -5.9640   -0.7930   11.0680 h1        1 2NK      0.034033
     49 H22        -4.4840   -1.5680   11.8000 h1        1 2NK      0.034033
@<TRIPOS>BOND
     1    1    2 ar  
     2    1    6 2   
     3    1   29 1   
     4    2    3 ar  
     5    3    4 ar  
     6    3   30 1   
     7    4    5 ar  
     8    4   31 1   
     9    5    6 1   
    10    5    8 1   
    11    6    7 1   
    12    7    9 1   
    13    7   13 2   
    14    8   15 ar  
    15    8   19 ar  
    16    9   10 ar  
    17    9   32 1   
    18   10   11 ar  
    19   10   14 1   
    20   11   12 ar  
    21   11   20 1   
    22   12   13 ar  
    23   12   21 1   
    24   13   33 1   
    25   15   16 ar  
    26   15   34 1   
    27   16   17 ar  
    28   16   35 1   
    29   17   18 ar  
    30   17   22 1   
    31   18   19 ar  
    32   18   36 1   
    33   19   37 1   
    34   20   38 1   
    35   22   23 1   
    36   22   27 1   
    37   23   24 1   
    38   23   39 1   
    39   23   40 1   
    40   24   25 1   
    41   24   41 1   
    42   24   42 1   
    43   25   26 1   
    44   25   28 1   
    45   26   27 1   
    46   26   43 1   
    47   26   44 1   
    48   27   45 1   
    49   27   46 1   
    50   28   47 1   
    51   28   48 1   
    52   28   49 1   
@<TRIPOS>SUBSTRUCTURE
     1 2NK         1 TEMP              0 ****  ****    0 ROOT
