@<TRIPOS>MOLECULE
2NL
   35    36     1     0     0
SMALL
bcc


@<TRIPOS>ATOM
      1 C1          1.3110    1.6780    0.5960 c         1 2NL      0.504100
      2 C2          2.4190    1.8450   -0.4340 c3        1 2NL      0.064400
      3 C3          3.9500    0.0790    0.0810 ca        1 2NL      0.078100
      4 C7          4.8460   -0.2390    2.3060 ca        1 2NL      0.198600
      5 C8          4.0870    0.5270    1.3970 ca        1 2NL     -0.267000
      6 C9          3.8450    0.5300    4.4440 ca        1 2NL      0.688200
      7 C10         4.1220    0.8250    5.8210 ca        1 2NL     -0.280300
      8 C11         3.0850    1.2540    6.6420 ca        1 2NL      0.099400
      9 C12         1.7890    1.3860    6.1130 ca        1 2NL     -0.256300
     10 C13         1.6090    1.0760    4.7650 ca        1 2NL      0.430200
     11 CL          3.3800    1.6120    8.2640 cl        1 2NL     -0.020400
     12 N2          2.5800    0.6540    3.9280 nb        1 2NL     -0.825000
     13 N1          4.9320    0.1260    3.6550 nh        1 2NL     -0.745300
     14 C6          5.5640   -1.3600    1.8220 ca        1 2NL     -0.179000
     15 C5          5.4820   -1.7200    0.4800 ca        1 2NL     -0.059000
     16 C4          4.6560   -1.0280   -0.4050 ca        1 2NL     -0.145000
     17 O1          3.0420    0.6420   -0.8160 os        1 2NL     -0.310900
     18 O           0.5140    2.5530    0.9040 o         1 2NL     -0.415100
     19 N           1.1900    0.3570    1.3070 n4        1 2NL     -0.689800
     20 C          -0.2030    0.0070    1.6470 c3        1 2NL      0.085100
     21 H1          3.1470    2.6070   -0.0400 h1        1 2NL      0.137200
     22 H2          1.9450    2.2220   -1.3900 h1        1 2NL      0.137200
     23 H3          3.6780    1.4970    1.7150 ha        1 2NL      0.148000
     24 H4          5.1430    0.7220    6.2200 ha        1 2NL      0.175000
     25 H5          0.9480    1.7230    6.7350 ha        1 2NL      0.179000
     26 H6          0.6060    1.1670    4.3060 h4        1 2NL      0.011100
     27 H7          5.7150   -0.2330    4.1610 hn        1 2NL      0.460800
     28 H8          6.1980   -1.9520    2.5010 ha        1 2NL      0.158000
     29 H9          6.0670   -2.5790    0.1120 ha        1 2NL      0.165000
     30 H10         4.5560   -1.3330   -1.4580 ha        1 2NL      0.174000
     31 H11         1.7730    0.4070    2.1880 hn        1 2NL      0.491300
     32 H12        -0.8010   -0.1340    0.7080 hx        1 2NL      0.105700
     33 H13        -0.6600    0.8360    2.2530 hx        1 2NL      0.105700
     34 H14        -0.2040   -0.9440    2.2450 hx        1 2NL      0.105700
     35 HN3         1.5980   -0.3730    0.7090 hn        1 2NL      0.491300
@<TRIPOS>BOND
     1    1    2 1   
     2    1   18 2   
     3    1   19 1   
     4    2   17 1   
     5    2   21 1   
     6    2   22 1   
     7    3    5 ar  
     8    3   16 ar  
     9    3   17 1   
    10    4    5 ar  
    11    4   13 1   
    12    4   14 ar  
    13    5   23 1   
    14    6    7 ar  
    15    6   12 ar  
    16    6   13 1   
    17    7    8 ar  
    18    7   24 1   
    19    8    9 ar  
    20    8   11 1   
    21    9   10 ar  
    22    9   25 1   
    23   10   12 ar  
    24   10   26 1   
    25   13   27 1   
    26   14   15 ar  
    27   14   28 1   
    28   15   16 ar  
    29   15   29 1   
    30   16   30 1   
    31   19   20 1   
    32   19   31 1   
    33   19   35 1   
    34   20   32 1   
    35   20   33 1   
    36   20   34 1   
@<TRIPOS>SUBSTRUCTURE
     1 2NL         1 TEMP              0 ****  ****    0 ROOT
