@<TRIPOS>MOLECULE
2NL
   35    36     1     0     0
SMALL
bcc


@<TRIPOS>ATOM
      1 C1          1.1700    1.6020    0.6770 c         1 2NL      0.504100
      2 C2          2.2140    1.8030   -0.4110 c3        1 2NL      0.064400
      3 C3          3.8380    0.1000    0.0310 ca        1 2NL      0.078100
      4 C7          4.8630   -0.1660    2.2060 ca        1 2NL      0.198600
      5 C8          4.0270    0.5640    1.3350 ca        1 2NL     -0.267000
      6 C9          3.9480    0.5820    4.3900 ca        1 2NL      0.688200
      7 C10         4.2870    0.8980    5.7480 ca        1 2NL     -0.280300
      8 C11         3.2790    1.2930    6.6220 ca        1 2NL      0.099400
      9 C12         1.9530    1.3720    6.1620 ca        1 2NL     -0.256300
     10 C13         1.7130    1.0440    4.8270 ca        1 2NL      0.430200
     11 Cl          3.6460    1.6750    8.2230 cl        1 2NL     -0.020400
     12 N2          2.6540    0.6540    3.9420 nb        1 2NL     -0.825000
     13 N1          5.0060    0.2130    3.5460 nu        1 2NL     -0.745300
     14 C6          5.5960   -1.2620    1.6900 ca        1 2NL     -0.179000
     15 C5          5.4570   -1.6350    0.3580 ca        1 2NL     -0.059000
     16 C4          4.5590   -0.9820   -0.4860 ca        1 2NL     -0.145000
     17 O1          2.8620    0.6220   -0.8200 os        1 2NL     -0.310900
     18 O           0.3580    2.4480    1.0220 o         1 2NL     -0.415100
     19 N           1.1380    0.2830    1.4010 ny        1 2NL     -0.689800
     20 C          -0.2200   -0.1170    1.8180 c3        1 2NL      0.085100
     21 H1          1.6750    2.1540   -1.3430 h1        1 2NL      0.137200
     22 H2          2.9330    2.5950   -0.0620 h1        1 2NL      0.137200
     23 H3          3.5980    1.5210    1.6680 ha        1 2NL      0.148000
     24 H4          5.3310    0.8380    6.0930 ha        1 2NL      0.175000
     25 H5          1.1340    1.6810    6.8260 ha        1 2NL      0.179000
     26 H6          0.6840    1.0930    4.4230 h4        1 2NL      0.011100
     27 H7          5.8290   -0.1110    4.0120 hn        1 2NL      0.460800
     28 H8          6.2890   -1.8230    2.3380 ha        1 2NL      0.158000
     29 H9          6.0550   -2.4740   -0.0370 ha        1 2NL      0.165000
     30 H10         4.4150   -1.2990   -1.5300 ha        1 2NL      0.174000
     31 H11         1.5410   -0.4360    0.7860 hn        1 2NL      0.491300
     32 H12        -0.8620   -0.2880    0.9130 hx        1 2NL      0.105700
     33 H13        -0.1530   -1.0630    2.4200 hx        1 2NL      0.105700
     34 H14        -0.6750    0.6990    2.4430 hx        1 2NL      0.105700
     35 HN3         1.7650    0.3620    2.2490 hn        1 2NL      0.491300
@<TRIPOS>BOND
     1    1    2 1   
     2    1   18 2   
     3    1   19 1   
     4    2   17 1   
     5    2   21 1   
     6    2   22 1   
     7    3    5 ar  
     8    3   16 ar  
     9    3   17 1   
    10    4    5 ar  
    11    4   13 1   
    12    4   14 ar  
    13    5   23 1   
    14    6    7 ar  
    15    6   12 ar  
    16    6   13 1   
    17    7    8 ar  
    18    7   24 1   
    19    8    9 ar  
    20    8   11 1   
    21    9   10 ar  
    22    9   25 1   
    23   10   12 ar  
    24   10   26 1   
    25   13   27 1   
    26   14   15 ar  
    27   14   28 1   
    28   15   16 ar  
    29   15   29 1   
    30   16   30 1   
    31   19   20 1   
    32   19   31 1   
    33   19   35 1   
    34   20   32 1   
    35   20   33 1   
    36   20   34 1   
@<TRIPOS>SUBSTRUCTURE
     1 2NL         1 TEMP              0 ****  ****    0 ROOT
