@<TRIPOS>MOLECULE
2NL
   36    37     1     0     0
SMALL
bcc


@<TRIPOS>ATOM
      1 C1          0.1750    0.8810   -0.6620 c         1 2NL      0.511100
      2 C2          0.9930    1.2020    0.5770 c3        1 2NL      0.059400
      3 C3          2.8730    0.0290    1.4460 ca        1 2NL      0.087100
      4 C7          4.5690   -0.4280    3.0880 ca        1 2NL     -0.014400
      5 C8          3.2060   -0.3240    2.7600 ca        1 2NL     -0.079000
      6 C9          4.9380    0.2920    5.4180 ca        1 2NL      0.453200
      7 C10         6.1490    0.7000    6.0080 ca        1 2NL     -0.203300
      8 C11         6.0870    1.7470    6.9490 ca        1 2NL      0.063400
      9 C12         4.8500    2.3260    7.2480 ca        1 2NL     -0.180300
     10 C13         3.7010    1.8380    6.5880 ca        1 2NL      0.445200
     11 CL          7.4950    2.2770    7.6940 cl        1 2NL      0.031600
     12 N2          3.7210    0.8470    5.6860 nb        1 2NL     -0.666000
     13 N1          4.9570   -0.8340    4.4460 n4        1 2NL     -0.615100
     14 C6          5.5670   -0.1540    2.1350 ca        1 2NL     -0.091000
     15 C5          5.1960    0.2080    0.8400 ca        1 2NL     -0.075000
     16 C4          3.8520    0.3000    0.4820 ca        1 2NL     -0.110000
     17 O1          1.5140   -0.0050    1.1260 os        1 2NL     -0.357900
     18 O           0.0880    1.5780   -1.6570 o         1 2NL     -0.362100
     19 N          -0.6350   -0.3930   -0.6190 n4        1 2NL     -0.663800
     20 C          -1.2200   -0.7680   -1.9280 c3        1 2NL      0.078100
     21 H1          1.7940    1.9380    0.2890 h1        1 2NL      0.128700
     22 H2          0.3090    1.6580    1.3500 h1        1 2NL      0.128700
     23 H3          2.4070   -0.5120    3.4980 ha        1 2NL      0.188000
     24 H4          7.1180    0.2330    5.7680 ha        1 2NL      0.181000
     25 H5          4.7600    3.1440    7.9840 ha        1 2NL      0.204000
     26 H6          2.7000    2.2680    6.8000 h4        1 2NL      0.069100
     27 H7          4.3040   -1.5630    4.7730 hn        1 2NL      0.474300
     28 H8          6.6400   -0.2210    2.3860 ha        1 2NL      0.174000
     29 H9          5.9810    0.4200    0.0910 ha        1 2NL      0.191000
     30 H10         3.5730    0.5800   -0.5470 ha        1 2NL      0.168000
     31 H11        -1.3890   -0.2690    0.0700 hn        1 2NL      0.471800
     32 H12        -1.8790    0.0660   -2.3000 hx        1 2NL      0.121700
     33 H13        -1.8260   -1.7060   -1.8030 hx        1 2NL      0.121700
     34 H14        -0.3960   -0.9400   -2.6720 hx        1 2NL      0.121700
     35 H121        5.9100   -1.2240    4.4240 hn        1 2NL      0.474300
     36 HN3        -0.0190   -1.1460   -0.2790 hn        1 2NL      0.471800
@<TRIPOS>BOND
     1    1    2 1   
     2    1   18 2   
     3    1   19 1   
     4    2   17 1   
     5    2   21 1   
     6    2   22 1   
     7    3    5 ar  
     8    3   16 ar  
     9    3   17 1   
    10    4    5 ar  
    11    4   13 1   
    12    4   14 ar  
    13    5   23 1   
    14    6    7 ar  
    15    6   12 ar  
    16    6   13 1   
    17    7    8 ar  
    18    7   24 1   
    19    8    9 ar  
    20    8   11 1   
    21    9   10 ar  
    22    9   25 1   
    23   10   12 ar  
    24   10   26 1   
    25   13   27 1   
    26   13   35 1   
    27   14   15 ar  
    28   14   28 1   
    29   15   16 ar  
    30   15   29 1   
    31   16   30 1   
    32   19   20 1   
    33   19   31 1   
    34   19   36 1   
    35   20   32 1   
    36   20   33 1   
    37   20   34 1   
@<TRIPOS>SUBSTRUCTURE
     1 2NL         1 TEMP              0 ****  ****    0 ROOT
