@<TRIPOS>MOLECULE
2NM
   26    27     1     0     0
SMALL
bcc


@<TRIPOS>ATOM
      1 C1          0.0760    0.0090   -0.0030 ca        1 2NM      0.121100
      2 C2          1.4740    0.0390   -0.0270 ca        1 2NM     -0.196000
      3 C3          2.1710    0.0040    1.1810 ca        1 2NM     -0.097000
      4 C7         -0.6050   -0.1420    3.6900 cc        1 2NM      0.352800
      5 C8         -0.0690    0.3020    4.9620 cc        1 2NM     -0.201300
      6 C9         -1.0950    0.0500    5.8840 cd        1 2NM     -0.219600
      7 C10        -1.1520    0.3030    7.3700 c3        1 2NM      0.723200
      8 F2         -1.9770    1.3410    7.7290 f         1 2NM     -0.228633
      9 F          -1.6220   -0.7630    8.1000 f         1 2NM     -0.228633
     10 F1          0.0610    0.6080    7.9310 f         1 2NM     -0.228633
     11 N          -2.1590   -0.5060    5.1620 na        1 2NM      0.024400
     12 N1         -1.8790   -0.6270    3.8750 nd        1 2NM     -0.468800
     13 C5          0.0880   -0.0860    2.4140 ca        1 2NM     -0.090500
     14 C4          1.4930   -0.0580    2.3930 ca        1 2NM     -0.150000
     15 C6         -0.6280   -0.0550    1.2150 ca        1 2NM     -0.127000
     16 O          -0.7280    0.0380   -1.1270 os        1 2NM     -0.325900
     17 C          -0.0530    0.0930   -2.3790 c3        1 2NM      0.113700
     18 H1          2.0260    0.0890   -0.9760 ha        1 2NM      0.139000
     19 H2          3.2720    0.0250    1.1710 ha        1 2NM      0.135000
     20 H3          0.9050    0.7400    5.1530 ha        1 2NM      0.183000
     21 H4         -3.0270   -0.8240    5.5320 hn        1 2NM      0.338700
     22 H5          2.0550   -0.0920    3.3370 ha        1 2NM      0.135000
     23 H6         -1.7270   -0.0780    1.1980 ha        1 2NM      0.163000
     24 H7          0.5570    1.0260   -2.4580 h1        1 2NM      0.044700
     25 H8          0.5910   -0.8090   -2.5210 h1        1 2NM      0.044700
     26 H9         -0.8890    0.1030   -3.1240 h1        1 2NM      0.044700
@<TRIPOS>BOND
     1    1    2 ar  
     2    1   15 ar  
     3    1   16 1   
     4    2    3 ar  
     5    2   18 1   
     6    3   14 ar  
     7    3   19 1   
     8    4    5 1   
     9    4   12 2   
    10    4   13 1   
    11    5    6 2   
    12    5   20 1   
    13    6    7 1   
    14    6   11 1   
    15    7    8 1   
    16    7    9 1   
    17    7   10 1   
    18   11   12 1   
    19   11   21 1   
    20   13   14 ar  
    21   13   15 ar  
    22   14   22 1   
    23   15   23 1   
    24   16   17 1   
    25   17   24 1   
    26   17   25 1   
    27   17   26 1   
@<TRIPOS>SUBSTRUCTURE
     1 2NM         1 TEMP              0 ****  ****    0 ROOT
