@<TRIPOS>MOLECULE
2NM
   26    27     1     0     0
SMALL
bcc


@<TRIPOS>ATOM
      1 C1          0.0950    0.0610   -0.0010 ca        1 2NM      0.121100
      2 C2          1.4680   -0.2080   -0.0200 ca        1 2NM     -0.196000
      3 C3          2.1280   -0.4360    1.1880 ca        1 2NM     -0.097000
      4 C7         -0.6430   -0.0740    3.6810 cc        1 2NM      0.352800
      5 C8         -0.0380    0.1980    4.9710 cc        1 2NM     -0.201300
      6 C9         -1.1040    0.1390    5.8800 cd        1 2NM     -0.219600
      7 C10        -1.1220    0.3440    7.3730 c3        1 2NM      0.723200
      8 F2         -1.8270   -0.6150    8.0610 f         1 2NM     -0.228633
      9 F           0.1210    0.3490    7.9510 f         1 2NM     -0.228633
     10 F1         -1.6980    1.5270    7.7690 f         1 2NM     -0.228633
     11 N          -2.2550   -0.1480    5.1330 na        1 2NM      0.024400
     12 N1         -1.9930   -0.2800    3.8440 nd        1 2NM     -0.468800
     13 C5          0.0600   -0.1220    2.4100 ca        1 2NM     -0.090500
     14 C4          1.4380   -0.3960    2.3940 ca        1 2NM     -0.150000
     15 C6         -0.6190    0.1060    1.2110 ca        1 2NM     -0.127000
     16 O          -0.6700    0.3040   -1.1260 os        1 2NM     -0.325900
     17 C           0.0140    0.2580   -2.3730 c3        1 2NM      0.113700
     18 H1          2.0280   -0.2430   -0.9640 ha        1 2NM      0.139000
     19 H2          3.2070   -0.6520    1.1820 ha        1 2NM      0.135000
     20 H3          1.0060    0.4080    5.1810 ha        1 2NM      0.183000
     21 H4         -3.1750   -0.2860    5.4890 hn        1 2NM      0.338700
     22 H5          1.9700   -0.5840    3.3380 ha        1 2NM      0.135000
     23 H6         -1.6980    0.3200    1.1900 ha        1 2NM      0.163000
     24 H7          0.8100    1.0400   -2.4150 h1        1 2NM      0.044700
     25 H8          0.4500   -0.7550   -2.5470 h1        1 2NM      0.044700
     26 H9         -0.7920    0.4750   -3.1190 h1        1 2NM      0.044700
@<TRIPOS>BOND
     1    1    2 ar  
     2    1   15 ar  
     3    1   16 1   
     4    2    3 ar  
     5    2   18 1   
     6    3   14 ar  
     7    3   19 1   
     8    4    5 1   
     9    4   12 2   
    10    4   13 1   
    11    5    6 2   
    12    5   20 1   
    13    6    7 1   
    14    6   11 1   
    15    7    8 1   
    16    7    9 1   
    17    7   10 1   
    18   11   12 1   
    19   11   21 1   
    20   13   14 ar  
    21   13   15 ar  
    22   14   22 1   
    23   15   23 1   
    24   16   17 1   
    25   17   24 1   
    26   17   25 1   
    27   17   26 1   
@<TRIPOS>SUBSTRUCTURE
     1 2NM         1 TEMP              0 ****  ****    0 ROOT
