@<TRIPOS>MOLECULE
2NP
   24    23     1     0     0
SMALL
bcc


@<TRIPOS>ATOM
      1 C1         -0.2960    0.1060    3.5840 c         1 2NP      0.889600
      2 O11         0.3020   -0.4750    4.5390 o         1 2NP     -0.857800
      3 O12        -1.5130    0.4440    3.6290 o         1 2NP     -0.857800
      4 C2          0.5140    0.4620    2.2960 c3        1 2NP      0.029500
      5 N2          1.9560    0.2950    2.4410 n3        1 2NP     -0.898800
      6 C3         -0.0880   -0.3040    1.1130 c3        1 2NP     -0.069400
      7 C4          0.4400    0.1710   -0.2250 c3        1 2NP     -0.076400
      8 C5         -0.1920   -0.5780   -1.3820 c3        1 2NP     -0.043200
      9 C6          0.3030   -0.1880   -2.7290 ce        1 2NP     -0.142400
     10 C8          1.1190    0.8420   -2.9670 c2        1 2NP     -0.271000
     11 C7         -0.1710   -1.0680   -3.8770 c         1 2NP      0.895800
     12 O71        -0.3800   -0.5330   -5.0070 o         1 2NP     -0.854300
     13 O72        -0.3280   -2.3080   -3.6690 o         1 2NP     -0.854300
     14 H21         0.3490    1.5650    2.1140 h1        1 2NP      0.039700
     15 HN21        2.1650    0.2620    3.4260 hn        1 2NP      0.327300
     16 HN22        2.2250   -0.5950    2.0610 hn        1 2NP      0.327300
     17 H31         0.1100   -1.4020    1.2290 hc        1 2NP      0.041200
     18 H32        -1.2000   -0.1590    1.1570 hc        1 2NP      0.041200
     19 H41         0.2370    1.2690   -0.3290 hc        1 2NP      0.027700
     20 H42         1.5530    0.0380   -0.2640 hc        1 2NP      0.027700
     21 H51        -0.0210   -1.6830   -1.2610 hc        1 2NP      0.050700
     22 H52        -1.3050   -0.4220   -1.3610 hc        1 2NP      0.050700
     23 H81         1.4310    1.0850   -3.9910 ha        1 2NP      0.088000
     24 H82         1.5120    1.4990   -2.1840 ha        1 2NP      0.088000
@<TRIPOS>BOND
     1    1    2 1   
     2    1    3 1   
     3    1    4 1   
     4    4    5 1   
     5    4    6 1   
     6    4   14 1   
     7    5   15 1   
     8    5   16 1   
     9    6    7 1   
    10    6   17 1   
    11    6   18 1   
    12    7    8 1   
    13    7   19 1   
    14    7   20 1   
    15    8    9 1   
    16    8   21 1   
    17    8   22 1   
    18    9   10 2   
    19    9   11 1   
    20   10   23 1   
    21   10   24 1   
    22   11   12 1   
    23   11   13 1   
@<TRIPOS>SUBSTRUCTURE
     1 2NP         1 TEMP              0 ****  ****    0 ROOT
