@<TRIPOS>MOLECULE
2NP
   25    24     1     0     0
SMALL
bcc


@<TRIPOS>ATOM
      1 C1         -0.0640   -0.1010    0.3360 c         1 2NP      0.922600
      2 O11        -0.8850   -0.8440   -0.2350 o         1 2NP     -0.791300
      3 O12        -0.2640    0.6830    1.3060 o         1 2NP     -0.791300
      4 C2          1.4110   -0.0960   -0.2410 c3        1 2NP     -0.038500
      5 N2          2.3220    0.5690    0.7490 n4        1 2NP     -0.824600
      6 C3          1.8960   -1.4940   -0.6200 c3        1 2NP     -0.082400
      7 C4          3.3990   -1.4920   -0.7560 c3        1 2NP     -0.114400
      8 C5          4.0400   -2.6650   -1.4570 c3        1 2NP     -0.016200
      9 C6          5.5260   -2.5750   -1.3180 ce        1 2NP     -0.159400
     10 C8          6.2920   -3.6670   -1.3400 c2        1 2NP     -0.249000
     11 C7          6.1500   -1.1930   -1.1560 c         1 2NP      0.908800
     12 O71         5.7670   -0.4490   -0.1970 o         1 2NP     -0.849300
     13 O72         7.0270   -0.8340   -1.9870 o         1 2NP     -0.849300
     14 H21         1.4050    0.5600   -1.1570 hx        1 2NP      0.077700
     15 HN21        1.8040    1.3610    1.1520 hn        1 2NP      0.451800
     16 HN22        2.5320   -0.0940    1.4960 hn        1 2NP      0.451800
     17 H31         1.5600   -2.2360    0.1490 hc        1 2NP      0.066700
     18 H32         1.3900   -1.7700   -1.5820 hc        1 2NP      0.066700
     19 H41         3.7200   -0.5660   -1.3120 hc        1 2NP      0.061700
     20 H42         3.8660   -1.4500    0.2700 hc        1 2NP      0.061700
     21 H51         3.7710   -2.6580   -2.5470 hc        1 2NP      0.028700
     22 H52         3.6590   -3.6300   -1.0280 hc        1 2NP      0.028700
     23 H81         5.8850   -4.6810   -1.4390 ha        1 2NP      0.093000
     24 H82         7.3850   -3.6010   -1.2690 ha        1 2NP      0.093000
     25 H23         3.2020    0.8550    0.3110 hn        1 2NP      0.451800
@<TRIPOS>BOND
     1    1    2 1   
     2    1    3 1   
     3    1    4 1   
     4    4    5 1   
     5    4    6 1   
     6    4   14 1   
     7    5   15 1   
     8    5   16 1   
     9    5   25 1   
    10    6    7 1   
    11    6   17 1   
    12    6   18 1   
    13    7    8 1   
    14    7   19 1   
    15    7   20 1   
    16    8    9 1   
    17    8   21 1   
    18    8   22 1   
    19    9   10 2   
    20    9   11 1   
    21   10   23 1   
    22   10   24 1   
    23   11   12 1   
    24   11   13 1   
@<TRIPOS>SUBSTRUCTURE
     1 2NP         1 TEMP              0 ****  ****    0 ROOT
