@<TRIPOS>MOLECULE
2NP
   25    24     1     0     0
SMALL
bcc


@<TRIPOS>ATOM
      1 C1         -0.0680    0.0290    0.1080 c         1 2NP      0.922600
      2 O11        -0.8770   -0.6860   -0.5140 o         1 2NP     -0.791300
      3 O12        -0.3020    0.8250    1.0600 o         1 2NP     -0.791300
      4 C2          1.4400   -0.0250   -0.3710 c3        1 2NP     -0.038500
      5 N2          2.3090    0.6120    0.6750 n4        1 2NP     -0.824600
      6 C3          1.8960   -1.4410   -0.7130 c3        1 2NP     -0.082400
      7 C4          3.4040   -1.4970   -0.7490 c3        1 2NP     -0.114400
      8 C5          4.0450   -2.6960   -1.4030 c3        1 2NP     -0.016200
      9 C6          5.5210   -2.6610   -1.1660 ce        1 2NP     -0.159400
     10 C8          6.2460   -3.7810   -1.1340 c2        1 2NP     -0.249000
     11 C7          6.1850   -1.3020   -0.9680 c         1 2NP      0.908800
     12 O71         5.7670   -0.5390   -0.0380 o         1 2NP     -0.849300
     13 O72         7.1270   -0.9810   -1.7400 o         1 2NP     -0.849300
     14 H21         1.5190    0.6260   -1.2870 hx        1 2NP      0.077700
     15 HN21        3.2260    0.8620    0.2940 hn        1 2NP      0.451800
     16 HN22        2.4440   -0.0540    1.4370 hn        1 2NP      0.451800
     17 H31         1.4450   -1.7040   -1.7050 hc        1 2NP      0.066700
     18 H32         1.4830   -2.1660    0.0350 hc        1 2NP      0.066700
     19 H41         3.8040   -1.4660    0.3050 hc        1 2NP      0.061700
     20 H42         3.7950   -0.5870   -1.2860 hc        1 2NP      0.061700
     21 H51         3.6010   -3.6430   -0.9970 hc        1 2NP      0.028700
     22 H52         3.8490   -2.6860   -2.5080 hc        1 2NP      0.028700
     23 H81         5.8090   -4.7790   -1.2570 ha        1 2NP      0.093000
     24 H82         7.3330   -3.7550   -0.9910 ha        1 2NP      0.093000
     25 H23         1.7960    1.4260    1.0400 hn        1 2NP      0.451800
@<TRIPOS>BOND
     1    1    2 1   
     2    1    3 1   
     3    1    4 1   
     4    4    5 1   
     5    4    6 1   
     6    4   14 1   
     7    5   15 1   
     8    5   16 1   
     9    5   25 1   
    10    6    7 1   
    11    6   17 1   
    12    6   18 1   
    13    7    8 1   
    14    7   19 1   
    15    7   20 1   
    16    8    9 1   
    17    8   21 1   
    18    8   22 1   
    19    9   10 2   
    20    9   11 1   
    21   10   23 1   
    22   10   24 1   
    23   11   12 1   
    24   11   13 1   
@<TRIPOS>SUBSTRUCTURE
     1 2NP         1 TEMP              0 ****  ****    0 ROOT
