@<TRIPOS>MOLECULE
2NP
   24    21     1     0     0
SMALL
bcc


@<TRIPOS>ATOM
      1 C1         -2.5900    0.9220    1.8910 c1        1 2NP      0.309000
      2 O11        -3.2900    1.7300    1.2260 o         1 2NP     -0.579000
      3 O12        -3.1450    0.0750    2.6390 os        1 2NP     -0.606000
      4 C2         -1.0820    0.9720    1.7940 c3        1 2NP     -0.118000
      5 N2         -0.5250    1.0620    3.1000 n3        1 2NP     -0.331000
      6 C3         -0.5800   -0.2830    1.1170 c3        1 2NP     -0.148000
      7 C4          0.1640    0.0890   -0.1470 c3        1 2NP     -0.155000
      8 C5          0.7260   -1.1610   -0.7880 c3        1 2NP     -0.126000
      9 C6          1.3990   -0.7990   -2.0940 c2        1 2NP     -0.119000
     10 C8          2.7000   -0.4510   -2.1070 c1        1 2NP     -0.271000
     11 C7          0.6100   -0.8290   -3.3840 c2        1 2NP      0.346000
     12 O71         0.3210   -1.9310   -3.9200 o         1 2NP     -0.589000
     13 O72         0.2450    0.2480   -3.9240 o         1 2NP     -0.589000
     14 H21        -0.8150    1.7530    1.2710 h1        1 2NP      0.079000
     15 HN21        0.1730    1.6540    3.0930 hn        1 2NP      0.122500
     16 HN22       -1.1670    1.3530    3.6860 hn        1 2NP      0.122500
     17 H31         0.0230   -0.7600    1.7220 hc        1 2NP      0.080500
     18 H32        -1.3380   -0.8580    0.8920 hc        1 2NP      0.080500
     19 H41        -0.4510    0.5260   -0.7700 hc        1 2NP      0.067000
     20 H42         0.8950    0.7000    0.0730 hc        1 2NP      0.067000
     21 H51         1.3800   -1.5690   -0.1860 hc        1 2NP      0.090000
     22 H52         0.0010   -1.7940   -0.9590 hc        1 2NP      0.090000
     23 H81         3.2100   -0.4310   -1.2730 DU        1 2NP      0.076000
     24 H82         3.1350   -0.2170   -2.9510 ha        1 2NP      0.100000
@<TRIPOS>BOND
     1    1    2 1   
     2    1    4 1   
     3    4    5 1   
     4    4    6 1   
     5    4   14 1   
     6    5   15 1   
     7    5   16 1   
     8    6    7 1   
     9    6   17 1   
    10    6   18 1   
    11    7    8 1   
    12    7   19 1   
    13    7   20 1   
    14    8    9 1   
    15    8   21 1   
    16    8   22 1   
    17    9   10 1   
    18    9   11 1   
    19   10   24 1   
    20   11   12 1   
    21   11   13 1   
@<TRIPOS>SUBSTRUCTURE
     1 2NP         1 TEMP              0 ****  ****    0 ROOT
