@<TRIPOS>MOLECULE
2NP
   25    24     1     0     0
SMALL
bcc


@<TRIPOS>ATOM
      1 C1          0.1660    0.1250   -0.0740 c         1 2NP      0.919600
      2 O11        -0.7830   -0.6760   -0.2090 o         1 2NP     -0.798300
      3 O12         0.1150    1.3210    0.3230 o         1 2NP     -0.798300
      4 C2          1.6010   -0.4050   -0.4840 c3        1 2NP     -0.039500
      5 N2          2.6540    0.5290   -0.0010 nz        1 2NP     -0.830600
      6 C3          1.8020   -1.8330    0.0040 c3        1 2NP     -0.078400
      7 C4          3.2310   -2.3300   -0.0200 c3        1 2NP     -0.095400
      8 C5          3.8930   -2.2410   -1.3830 c3        1 2NP     -0.027200
      9 C6          5.3770   -2.1900   -1.2720 ce        1 2NP     -0.182400
     10 C8          6.1470   -3.2330   -1.5930 c2        1 2NP     -0.216000
     11 C7          6.0020   -0.8960   -0.7920 c         1 2NP      0.914800
     12 O71         5.2830   -0.0500   -0.1570 o         1 2NP     -0.849800
     13 O72         7.2210   -0.6850   -1.0170 o         1 2NP     -0.849800
     14 H21         1.6370   -0.3790   -1.6110 hx        1 2NP      0.074700
     15 HN21        2.9100    0.3000    0.9590 hn        1 2NP      0.457467
     16 HN22        2.2650    1.4780   -0.0210 hn        1 2NP      0.457467
     17 H31         1.4040   -1.9170    1.0510 hc        1 2NP      0.062700
     18 H32         1.1500   -2.4790   -0.6420 hc        1 2NP      0.062700
     19 H41         3.8560   -1.7580    0.7210 hc        1 2NP      0.051200
     20 H42         3.2360   -3.4010    0.3170 hc        1 2NP      0.051200
     21 H51         3.5540   -1.3170   -1.9250 hc        1 2NP      0.026700
     22 H52         3.5710   -3.1180   -2.0080 hc        1 2NP      0.026700
     23 H81         5.7420   -4.1910   -1.9420 ha        1 2NP      0.102500
     24 H82         7.2420   -3.1680   -1.5260 ha        1 2NP      0.102500
     25 H23         3.5220    0.4440   -0.5720 hn        1 2NP      0.457467
@<TRIPOS>BOND
     1    1    2 1   
     2    1    3 1   
     3    1    4 1   
     4    4    5 1   
     5    4    6 1   
     6    4   14 1   
     7    5   15 1   
     8    5   16 1   
     9    5   25 1   
    10    6    7 1   
    11    6   17 1   
    12    6   18 1   
    13    7    8 1   
    14    7   19 1   
    15    7   20 1   
    16    8    9 1   
    17    8   21 1   
    18    8   22 1   
    19    9   10 2   
    20    9   11 1   
    21   10   23 1   
    22   10   24 1   
    23   11   12 1   
    24   11   13 1   
@<TRIPOS>SUBSTRUCTURE
     1 2NP         1 TEMP              0 ****  ****    0 ROOT
