@<TRIPOS>MOLECULE
2NQ
   54    58     1     0     0
SMALL
bcc


@<TRIPOS>ATOM
      1 N1          0.5690   -2.8250   -1.0830 nb        1 2NQ     -0.630000
      2 N2         -4.4150    3.1970   -1.8890 nb        1 2NQ     -0.667000
      3 C1          1.1450   -0.0980   -1.4910 ca        1 2NQ     -0.137000
      4 C2          2.2060   -1.0220   -1.3520 ca        1 2NQ      0.073300
      5 C3          4.1650    0.8040    0.6600 ca        1 2NQ     -0.417500
      6 C4          3.1160    1.4180    1.3580 ca        1 2NQ      0.015000
      7 C5          3.0850    1.4380    2.7460 ca        1 2NQ     -0.195000
      8 C6          5.2010    0.2160    2.7820 ca        1 2NQ     -0.195000
      9 C7         -1.2110    1.4750   -2.4490 ca        1 2NQ     -0.106000
     10 C8         -3.4240    2.2400   -1.7720 ca        1 2NQ      0.409600
     11 C9         -2.4350    0.2310   -0.7700 ca        1 2NQ     -0.084000
     12 C10        -4.7460    0.9830   -0.1120 ca        1 2NQ      0.174600
     13 C11        -5.1110   -1.4040    0.1310 c3        1 2NQ      0.143800
     14 C12        -5.0750   -2.5560    1.1440 c3        1 2NQ      0.124400
     15 C13        -5.7770    0.0880    1.9070 c3        1 2NQ      0.143800
     16 O1         -5.9700   -2.3290    2.2270 os        1 2NQ     -0.411600
     17 C14        -5.7170   -1.0930    2.8860 c3        1 2NQ      0.124400
     18 N3         -4.8780   -0.1160    0.7790 nh        1 2NQ     -0.638000
     19 C15        -3.5280    1.1260   -0.8830 ca        1 2NQ     -0.148300
     20 C16        -5.7130    1.9710   -0.2410 ca        1 2NQ     -0.304300
     21 C17        -5.4900    3.0550   -1.1380 ca        1 2NQ      0.433200
     22 C18        -2.2370    2.3750   -2.5640 ca        1 2NQ     -0.168300
     23 C19        -1.2950    0.3910   -1.5350 cp        1 2NQ     -0.056000
     24 C20        -0.1780   -0.5390   -1.4090 cp        1 2NQ     -0.110300
     25 C21        -0.4100   -1.9190   -1.2050 ca        1 2NQ      0.390200
     26 C22         1.8460   -2.3930   -1.1480 ca        1 2NQ      0.448300
     27 CL1         3.0870   -3.5670   -0.9920 cl        1 2NQ     -0.150000
     28 N4          3.5430   -0.6290   -1.4230 nh        1 2NQ     -0.764500
     29 S1          4.2060    0.8150   -1.0180 sy        1 2NQ      1.522200
     30 O2          3.4080    1.8760   -1.4830 o         1 2NQ     -0.645800
     31 O3          5.5480    0.7740   -1.4490 o         1 2NQ     -0.645800
     32 C23         4.1330    0.8300    3.4660 ca        1 2NQ      0.198900
     33 F1          4.1150    0.8380    4.8160 f         1 2NQ     -0.125900
     34 C24         5.2030    0.2120    1.3940 ca        1 2NQ      0.015000
     35 H1          1.3540    0.9750   -1.6620 ha        1 2NQ      0.183000
     36 H2          2.3040    1.9070    0.7890 ha        1 2NQ      0.160000
     37 H3          2.2590    1.9220    3.2870 ha        1 2NQ      0.161000
     38 H4          6.0190   -0.2490    3.3510 ha        1 2NQ      0.161000
     39 H5         -0.3050    1.5850   -3.0670 ha        1 2NQ      0.147000
     40 H6         -2.4810   -0.5900   -0.0360 ha        1 2NQ      0.149000
     41 H8         -6.1120   -1.4180   -0.3920 h1        1 2NQ      0.050700
     42 H9         -5.4490   -3.4990    0.6650 h1        1 2NQ      0.058700
     43 H10        -4.0360   -2.7060    1.5380 h1        1 2NQ      0.058700
     44 H11        -6.8490    0.2090    1.5720 h1        1 2NQ      0.050700
     45 H12        -5.4650    1.0260    2.4430 h1        1 2NQ      0.050700
     46 H13        -4.7210   -1.1360    3.4000 h1        1 2NQ      0.058700
     47 H14        -6.5410   -1.0060    3.6420 h1        1 2NQ      0.058700
     48 H15        -6.6560    1.9470    0.3220 ha        1 2NQ      0.147000
     49 H16        -6.2640    3.8400   -1.2390 h4        1 2NQ      0.024100
     50 H17        -2.1620    3.2220   -3.2660 ha        1 2NQ      0.157000
     51 H18        -1.4390   -2.3190   -1.1470 h4        1 2NQ      0.033100
     52 H19         4.1520   -1.3650   -1.7190 hn        1 2NQ      0.464800
     53 H20         6.0490   -0.2510    0.8540 ha        1 2NQ      0.160000
     54 H7         -4.3120   -1.5700   -0.6430 h1        1 2NQ      0.050700
@<TRIPOS>BOND
     1    1   25 ar  
     2    1   26 ar  
     3    2   10 ar  
     4    2   21 ar  
     5    3    4 ar  
     6    3   24 ar  
     7    3   35 1   
     8    4   26 ar  
     9    4   28 1   
    10    5    6 ar  
    11    5   29 1   
    12    5   34 ar  
    13    6    7 ar  
    14    6   36 1   
    15    7   32 ar  
    16    7   37 1   
    17    8   32 ar  
    18    8   34 ar  
    19    8   38 1   
    20    9   22 ar  
    21    9   23 ar  
    22    9   39 1   
    23   10   19 ar  
    24   10   22 ar  
    25   11   19 ar  
    26   11   23 ar  
    27   11   40 1   
    28   12   18 1   
    29   12   19 ar  
    30   12   20 ar  
    31   13   14 1   
    32   13   18 1   
    33   13   41 1   
    34   13   54 1   
    35   14   16 1   
    36   14   42 1   
    37   14   43 1   
    38   15   17 1   
    39   15   18 1   
    40   15   44 1   
    41   15   45 1   
    42   16   17 1   
    43   17   46 1   
    44   17   47 1   
    45   20   21 ar  
    46   20   48 1   
    47   21   49 1   
    48   22   50 1   
    49   23   24 1   
    50   24   25 ar  
    51   25   51 1   
    52   26   27 1   
    53   28   29 1   
    54   28   52 1   
    55   29   30 2   
    56   29   31 2   
    57   32   33 1   
    58   34   53 1   
@<TRIPOS>SUBSTRUCTURE
     1 2NQ         1 TEMP              0 ****  ****    0 ROOT
