@<TRIPOS>MOLECULE
2NQ
   54    46     1     0     0
SMALL
bcc


@<TRIPOS>ATOM
      1 N1         -3.0270    1.7250   -0.2670 n1        1 2NQ     -0.101000
      2 N2          4.2120    2.3770   -2.5700 n1        1 2NQ     -0.138000
      3 C1         -1.2920   -0.3760   -0.6980 c1        1 2NQ     -0.141000
      4 C2         -2.6200   -0.6200   -0.4640 c1        1 2NQ      0.065000
      5 C3         -5.2080   -3.9090   -0.7020 c1        1 2NQ     -0.862000
      6 C4         -6.3820   -3.8820    0.0430 c1        1 2NQ     -0.111000
      7 C5         -7.5100   -4.5570   -0.4110 c1        1 2NQ     -0.111000
      8 C6         -6.2910   -5.2850   -2.3550 c1        1 2NQ     -0.196000
      9 C7          0.6340    1.4660   -2.3250 c1        1 2NQ     -0.093500
     10 C8          2.9890    2.0010   -2.0280 c1        1 2NQ      0.011000
     11 C9          1.6560    1.2840   -0.1420 c1        1 2NQ     -0.079000
     12 C10         4.0210    1.7850    0.1280 c1        1 2NQ      0.067000
     13 C11         4.7850    0.9660    2.2950 c3        1 2NQ     -0.101500
     14 C12         5.4520    1.3140    3.6150 c3        1 2NQ     -0.054500
     15 C13         3.9250    3.0890    2.1860 c3        1 2NQ     -0.101500
     16 O1          5.5010    2.5700    3.7900 os        1 2NQ     -0.268000
     17 C14         4.5990    3.4190    3.5080 c3        1 2NQ     -0.054500
     18 N3          4.7740    2.1500    1.2990 n3        1 2NQ     -0.214000
     19 C15         2.8920    1.7060   -0.6840 c1        1 2NQ     -0.075000
     20 C16         5.2290    2.1570   -0.4110 c1        1 2NQ     -0.111000
     21 C17         5.3240    2.4550   -1.7700 c1        1 2NQ     -0.111000
     22 C18         1.8530    1.8820   -2.8610 c1        1 2NQ     -0.103000
     23 C19         0.5360    1.1670   -0.9650 c1        1 2NQ     -0.046000
     24 C20        -0.8260    0.9140   -0.7180 c1        1 2NQ     -0.046000
     25 C21        -1.7000    1.9700   -0.5010 c1        1 2NQ     -0.093500
     26 C22        -3.4930    0.4400   -0.2470 c1        1 2NQ     -0.051000
     27 CL1        -5.1660    0.1270    0.1250 cl        1 2NQ      0.009000
     28 N4         -3.6820   -1.5280   -0.8250 n3        1 2NQ     -0.818000
     29 S1         -3.7620   -3.0310   -0.1240 s6        1 2NQ      2.871000
     30 O2         -2.5600   -3.7860   -0.3670 o         1 2NQ     -0.928000
     31 O3         -3.7480   -2.9370    1.3130 o         1 2NQ     -0.928000
     32 C23        -7.4640   -5.2580   -1.6100 c1        1 2NQ      0.166000
     33 F1         -8.5590   -5.8930   -2.0580 f         1 2NQ     -0.089000
     34 C24        -5.1630   -4.6100   -1.9010 c2        1 2NQ      0.016000
     35 H1         -0.6760   -1.1220   -0.8510 ha        1 2NQ      0.180000
     36 H2         -6.4150   -3.3870    0.8890 ha        1 2NQ      0.162000
     37 H3         -8.3390   -4.5380    0.1140 ha        1 2NQ      0.162000
     38 H4         -6.2590   -5.7800   -3.2010 DU        1 2NQ      0.162000
     39 H5         -0.1520    1.3830   -2.9020 ha        1 2NQ      0.158000
     40 H6          1.5860    1.0740    0.8120 ha        1 2NQ      0.151000
     41 H7          3.8570    0.6910    2.4710 h1        1 2NQ      0.104000
     42 H8          5.2660    0.2120    1.8850 h1        1 2NQ      0.104000
     43 H9          6.3670    0.9530    3.6180 h1        1 2NQ      0.094250
     44 H10         4.9430    0.9060    4.3510 h1        1 2NQ      0.094250
     45 H11         3.7620    3.9260    1.6960 h1        1 2NQ      0.104000
     46 H12         3.0620    2.6560    2.3700 h1        1 2NQ      0.104000
     47 H13         3.9240    3.4210    4.2230 h1        1 2NQ      0.094250
     48 H14         5.0060    4.3130    3.4470 h1        1 2NQ      0.094250
     49 H15         6.0250    2.2140    0.1600 ha        1 2NQ      0.162000
     50 H16         6.1880    2.7210   -2.1560 ha        1 2NQ      0.162000
     51 H17         1.9220    2.0910   -3.8150 ha        1 2NQ      0.155000
     52 H18        -1.3670    2.8910   -0.5150 ha        1 2NQ      0.158000
     53 H19        -4.2910   -1.2890   -1.4690 hn        1 2NQ      0.255000
     54 H20        -4.3350   -4.6300   -2.4260 ha        1 2NQ      0.163000
@<TRIPOS>BOND
     1    1   26 1   
     2    2   10 1   
     3    3    4 1   
     4    3   35 1   
     5    4   28 1   
     6    5   29 1   
     7    5   34 1   
     8    6    7 1   
     9    6   36 1   
    10    7   37 1   
    11    8   32 1   
    12    8   34 1   
    13    9   23 1   
    14    9   39 1   
    15   10   22 1   
    16   11   19 1   
    17   11   40 1   
    18   12   18 1   
    19   12   19 1   
    20   13   14 1   
    21   13   18 1   
    22   13   41 1   
    23   13   42 1   
    24   14   16 1   
    25   14   43 1   
    26   14   44 1   
    27   15   17 1   
    28   15   18 1   
    29   15   45 1   
    30   15   46 1   
    31   16   17 1   
    32   17   47 1   
    33   17   48 1   
    34   20   21 1   
    35   20   49 1   
    36   21   50 1   
    37   22   51 1   
    38   24   25 1   
    39   25   52 1   
    40   26   27 1   
    41   28   29 1   
    42   28   53 1   
    43   29   30 1   
    44   29   31 1   
    45   32   33 1   
    46   34   54 1   
@<TRIPOS>SUBSTRUCTURE
     1 2NQ         1 TEMP              0 ****  ****    0 ROOT
