@<TRIPOS>MOLECULE
2NQ
   54    58     1     0     0
SMALL
bcc


@<TRIPOS>ATOM
      1 N1          0.0230   -1.0570    0.4620 nb        1 2NQ     -0.630000
      2 N2          7.8310   -0.7700    1.2960 nb        1 2NQ     -0.667000
      3 C1          1.5320   -0.1770    2.6720 ca        1 2NQ     -0.137000
      4 C2          0.1200   -0.1260    2.7260 ca        1 2NQ      0.074300
      5 C3         -0.1880    2.9010    4.1270 ca        1 2NQ     -0.417500
      6 C4          0.9310    3.4620    3.4950 ca        1 2NQ      0.015000
      7 C5          0.8520    4.6770    2.8280 ca        1 2NQ     -0.195000
      8 C6         -1.5140    4.8170    3.4250 ca        1 2NQ     -0.195000
      9 C7          4.3910   -1.0490    2.5710 ca        1 2NQ     -0.106000
     10 C8          6.4490   -0.7700    1.2970 ca        1 2NQ      0.409600
     11 C9          4.2650   -0.4110    0.2380 ca        1 2NQ     -0.084000
     12 C10         6.3860   -0.1800   -1.0990 ca        1 2NQ      0.174600
     13 C11         4.9750   -1.0130   -2.8880 c3        1 2NQ      0.143800
     14 C12         4.0660   -0.5710   -4.0430 c3        1 2NQ      0.124400
     15 C13         6.3350    0.9470   -3.2590 c3        1 2NQ      0.143800
     16 O1          4.7720    0.2180   -4.9940 os        1 2NQ     -0.411600
     17 C14         5.3910    1.3540   -4.3990 c3        1 2NQ      0.124400
     18 N3          5.6450    0.1290   -2.2700 nh        1 2NQ     -0.638000
     19 C15         5.6770   -0.4600    0.1340 ca        1 2NQ     -0.148300
     20 C16         7.7740   -0.1720   -1.0590 ca        1 2NQ     -0.304300
     21 C17         8.4400   -0.4670    0.1660 ca        1 2NQ      0.433200
     22 C18         5.7590   -1.0790    2.5140 ca        1 2NQ     -0.168300
     23 C19         3.6230   -0.7010    1.4280 cp        1 2NQ     -0.056000
     24 C20         2.1690   -0.6470    1.5210 cp        1 2NQ     -0.110300
     25 C21         1.3620   -1.0790    0.4420 ca        1 2NQ      0.390200
     26 C22        -0.5880   -0.5880    1.5710 ca        1 2NQ      0.448300
     27 Cl1        -2.3030   -0.5710    1.5810 cl        1 2NQ     -0.150000
     28 N4         -0.5600    0.3400    3.8530 nu        1 2NQ     -0.764500
     29 S1         -0.0700    1.4480    4.9570 sy        1 2NQ      1.522200
     30 O2          1.2760    1.2360    5.3090 o         1 2NQ     -0.645800
     31 O3         -1.0240    1.4280    5.9940 o         1 2NQ     -0.645800
     32 C23        -0.3800    5.3600    2.7880 ca        1 2NQ      0.198900
     33 F1         -0.4740    6.5410    2.1400 f         1 2NQ     -0.125900
     34 C24        -1.4020    3.6000    4.0840 ca        1 2NQ      0.015000
     35 H1          2.1400    0.1550    3.5350 ha        1 2NQ      0.183000
     36 H2          1.8990    2.9290    3.5420 ha        1 2NQ      0.160000
     37 H3          1.7340    5.1110    2.3350 ha        1 2NQ      0.161000
     38 H4         -2.4690    5.3610    3.3970 ha        1 2NQ      0.161000
     39 H5          3.8700   -1.2950    3.5110 ha        1 2NQ      0.147000
     40 H6          3.6670   -0.1050   -0.6360 ha        1 2NQ      0.149000
     41 H8          5.7270   -1.7540   -3.2880 h1        1 2NQ      0.050700
     42 H9          3.1840    0.0040   -3.6570 h1        1 2NQ      0.058700
     43 H10         3.7220   -1.4670   -4.6240 h1        1 2NQ      0.058700
     44 H11         7.2150    0.4030   -3.7110 h1        1 2NQ      0.050700
     45 H12         6.7150    1.8730   -2.7480 h1        1 2NQ      0.050700
     46 H13         5.9780    1.8210   -5.2330 h1        1 2NQ      0.058700
     47 H14         4.6050    2.0640   -4.0320 h1        1 2NQ      0.058700
     48 H15         8.3860    0.0500   -1.9440 ha        1 2NQ      0.147000
     49 H16         9.5470   -0.4600    0.1930 h4        1 2NQ      0.024100
     50 H17         6.3510   -1.3390    3.4070 ha        1 2NQ      0.157000
     51 H18         1.8180   -1.4720   -0.4860 h4        1 2NQ      0.033100
     52 H19        -1.4820   -0.0410    3.9370 hn        1 2NQ      0.464800
     53 H20        -2.2840    3.1810    4.6010 ha        1 2NQ      0.160000
     54 H7          4.3530   -1.5340   -2.1100 h1        1 2NQ      0.050700
@<TRIPOS>BOND
     1    1   25 ar  
     2    1   26 ar  
     3    2   10 ar  
     4    2   21 ar  
     5    3    4 ar  
     6    3   24 ar  
     7    3   35 1   
     8    4   26 ar  
     9    4   28 1   
    10    5    6 ar  
    11    5   29 1   
    12    5   34 ar  
    13    6    7 ar  
    14    6   36 1   
    15    7   32 ar  
    16    7   37 1   
    17    8   32 ar  
    18    8   34 ar  
    19    8   38 1   
    20    9   22 ar  
    21    9   23 ar  
    22    9   39 1   
    23   10   19 ar  
    24   10   22 ar  
    25   11   19 ar  
    26   11   23 ar  
    27   11   40 1   
    28   12   18 1   
    29   12   19 ar  
    30   12   20 ar  
    31   13   14 1   
    32   13   18 1   
    33   13   41 1   
    34   13   54 1   
    35   14   16 1   
    36   14   42 1   
    37   14   43 1   
    38   15   17 1   
    39   15   18 1   
    40   15   44 1   
    41   15   45 1   
    42   16   17 1   
    43   17   46 1   
    44   17   47 1   
    45   20   21 ar  
    46   20   48 1   
    47   21   49 1   
    48   22   50 1   
    49   23   24 1   
    50   24   25 ar  
    51   25   51 1   
    52   26   27 1   
    53   28   29 1   
    54   28   52 1   
    55   29   30 2   
    56   29   31 2   
    57   32   33 1   
    58   34   53 1   
@<TRIPOS>SUBSTRUCTURE
     1 2NQ         1 TEMP              0 ****  ****    0 ROOT
