@<TRIPOS>MOLECULE
2NQ
   54    58     1     0     0
SMALL
bcc


@<TRIPOS>ATOM
      1 N1          0.0170   -1.0440    0.4380 nb        1 2NQ     -0.630000
      2 N2          7.8260   -0.7930    1.2750 nb        1 2NQ     -0.667000
      3 C1          1.5290   -0.1990    2.6600 ca        1 2NQ     -0.137000
      4 C2          0.1170   -0.1440    2.7140 ca        1 2NQ      0.074300
      5 C3         -0.1790    2.8650    4.1570 ca        1 2NQ     -0.417500
      6 C4          0.9420    3.4300    3.5330 ca        1 2NQ      0.015000
      7 C5          0.8680    4.6540    2.8830 ca        1 2NQ     -0.195000
      8 C6         -1.4980    4.7950    3.4820 ca        1 2NQ     -0.195000
      9 C7          4.3850   -1.0790    2.5460 ca        1 2NQ     -0.106000
     10 C8          6.4440   -0.7890    1.2750 ca        1 2NQ      0.409600
     11 C9          4.2610   -0.4090    0.2220 ca        1 2NQ     -0.084000
     12 C10         6.3820   -0.1670   -1.1120 ca        1 2NQ      0.174600
     13 C11         4.9690   -0.9710   -2.9120 c3        1 2NQ      0.143800
     14 C12         4.0610   -0.5110   -4.0610 c3        1 2NQ      0.124400
     15 C13         6.3340    0.9890   -3.2560 c3        1 2NQ      0.143800
     16 O1          4.7700    0.2890   -5.0010 os        1 2NQ     -0.411600
     17 C14         5.3920    1.4140   -4.3920 c3        1 2NQ      0.124400
     18 N3          5.6420    0.1600   -2.2790 nh        1 2NQ     -0.638000
     19 C15         5.6730   -0.4610    0.1170 ca        1 2NQ     -0.148300
     20 C16         7.7700   -0.1630   -1.0720 ca        1 2NQ     -0.304300
     21 C17         8.4360   -0.4770    0.1480 ca        1 2NQ      0.433200
     22 C18         5.7530   -1.1130    2.4880 ca        1 2NQ     -0.168300
     23 C19         3.6180   -0.7130    1.4080 cp        1 2NQ     -0.056000
     24 C20         2.1640   -0.6560    1.5020 cp        1 2NQ     -0.110300
     25 C21         1.3560   -1.0700    0.4170 ca        1 2NQ      0.390200
     26 C22        -0.5920   -0.5890    1.5530 ca        1 2NQ      0.448300
     27 CL1        -2.3080   -0.5660    1.5630 cl        1 2NQ     -0.150000
     28 N4         -0.5610    0.3080    3.8470 nh        1 2NQ     -0.764500
     29 S1         -0.0670    1.3990    4.9670 sy        1 2NQ      1.522200
     30 O2          1.2780    1.1770    5.3160 o         1 2NQ     -0.645800
     31 O3         -1.0220    1.3680    6.0030 o         1 2NQ     -0.645800
     32 C23        -0.3620    5.3430    2.8530 ca        1 2NQ      0.198900
     33 F1         -0.4510    6.5330    2.2210 f         1 2NQ     -0.125900
     34 C24        -1.3910    3.5690    4.1240 ca        1 2NQ      0.015000
     35 H1          2.1380    0.1190    3.5260 ha        1 2NQ      0.183000
     36 H2          1.9080    2.8930    3.5730 ha        1 2NQ      0.160000
     37 H3          1.7520    5.0920    2.3970 ha        1 2NQ      0.161000
     38 H4         -2.4510    5.3430    3.4610 ha        1 2NQ      0.161000
     39 H5          3.8640   -1.3360    3.4830 ha        1 2NQ      0.147000
     40 H6          3.6640   -0.0900   -0.6480 ha        1 2NQ      0.149000
     41 H8          5.7180   -1.7090   -3.3220 h1        1 2NQ      0.050700
     42 H9          3.7140   -1.3980   -4.6540 h1        1 2NQ      0.058700
     43 H10         3.1810    0.0610   -3.6680 h1        1 2NQ      0.058700
     44 H11         6.7170    1.9080   -2.7330 h1        1 2NQ      0.050700
     45 H12         7.2130    0.4490   -3.7160 h1        1 2NQ      0.050700
     46 H13         4.6070    2.1220   -4.0150 h1        1 2NQ      0.058700
     47 H14         5.9800    1.8910   -5.2190 h1        1 2NQ      0.058700
     48 H15         8.3830    0.0680   -1.9540 ha        1 2NQ      0.147000
     49 H16         9.5420   -0.4740    0.1760 h4        1 2NQ      0.024100
     50 H17         6.3440   -1.3860    3.3770 ha        1 2NQ      0.157000
     51 H18         1.8100   -1.4520   -0.5160 h4        1 2NQ      0.033100
     52 H19        -1.4840   -0.0700    3.9270 hn        1 2NQ      0.464800
     53 H20        -2.2750    3.1460    4.6350 ha        1 2NQ      0.160000
     54 H7          4.3450   -1.5000   -2.1410 h1        1 2NQ      0.050700
@<TRIPOS>BOND
     1    1   25 ar  
     2    1   26 ar  
     3    2   10 ar  
     4    2   21 ar  
     5    3    4 ar  
     6    3   24 ar  
     7    3   35 1   
     8    4   26 ar  
     9    4   28 1   
    10    5    6 ar  
    11    5   29 1   
    12    5   34 ar  
    13    6    7 ar  
    14    6   36 1   
    15    7   32 ar  
    16    7   37 1   
    17    8   32 ar  
    18    8   34 ar  
    19    8   38 1   
    20    9   22 ar  
    21    9   23 ar  
    22    9   39 1   
    23   10   19 ar  
    24   10   22 ar  
    25   11   19 ar  
    26   11   23 ar  
    27   11   40 1   
    28   12   18 1   
    29   12   19 ar  
    30   12   20 ar  
    31   13   14 1   
    32   13   18 1   
    33   13   41 1   
    34   13   54 1   
    35   14   16 1   
    36   14   42 1   
    37   14   43 1   
    38   15   17 1   
    39   15   18 1   
    40   15   44 1   
    41   15   45 1   
    42   16   17 1   
    43   17   46 1   
    44   17   47 1   
    45   20   21 ar  
    46   20   48 1   
    47   21   49 1   
    48   22   50 1   
    49   23   24 1   
    50   24   25 ar  
    51   25   51 1   
    52   26   27 1   
    53   28   29 1   
    54   28   52 1   
    55   29   30 2   
    56   29   31 2   
    57   32   33 1   
    58   34   53 1   
@<TRIPOS>SUBSTRUCTURE
     1 2NQ         1 TEMP              0 ****  ****    0 ROOT
