@<TRIPOS>MOLECULE
2NQ
   55    58     1     0     0
SMALL
bcc


@<TRIPOS>ATOM
      1 N1          0.2470    1.3150    0.3370 nb        1 2NQ     -0.618000
      2 N2          7.9420    0.0790    1.1130 nb        1 2NQ     -0.668000
      3 C1          1.5660   -0.0980    2.3860 ca        1 2NQ     -0.102000
      4 C2          0.1650    0.0650    2.4280 ca        1 2NQ     -0.102700
      5 C3         -0.6770    2.3980    4.6820 ca        1 2NQ     -0.617500
      6 C4          0.6240    2.9530    4.8180 ca        1 2NQ      0.058500
      7 C5          0.9390    4.2010    4.3270 ca        1 2NQ     -0.196500
      8 C6         -1.3630    4.4380    3.5150 ca        1 2NQ     -0.196500
      9 C7          4.5230    0.3570    2.4360 ca        1 2NQ     -0.120000
     10 C8          6.5620    0.1160    1.1240 ca        1 2NQ      0.422600
     11 C9          4.3690    0.1520    0.0260 ca        1 2NQ     -0.052000
     12 C10         6.4680   -0.1560   -1.3280 ca        1 2NQ      0.178600
     13 C11         5.0240   -1.5220   -2.7170 c3        1 2NQ      0.140800
     14 C12         4.1050   -1.4820   -3.9460 c3        1 2NQ      0.124900
     15 C13         6.3960    0.1830   -3.7390 c3        1 2NQ      0.140800
     16 O1          4.8050   -1.0680   -5.1110 os        1 2NQ     -0.403600
     17 C14         5.4410    0.1940   -4.9410 c3        1 2NQ      0.124900
     18 N3          5.7120   -0.2460   -2.5250 nh        1 2NQ     -0.642000
     19 C15         5.7760    0.0250   -0.0670 ca        1 2NQ     -0.155300
     20 C16         7.8570   -0.1700   -1.3030 ca        1 2NQ     -0.293300
     21 C17         8.5390   -0.0430   -0.0590 ca        1 2NQ      0.451200
     22 C18         5.8870    0.2660    2.3810 ca        1 2NQ     -0.156300
     23 C19         3.7430    0.3170    1.2490 cp        1 2NQ     -0.098000
     24 C20         2.2960    0.4570    1.3310 cp        1 2NQ     -0.088300
     25 C21         1.5770    1.1630    0.3310 ca        1 2NQ      0.426200
     26 C22        -0.4530    0.7700    1.3570 ca        1 2NQ      0.468300
     27 CL1        -2.1560    0.9350    1.3410 cl        1 2NQ     -0.131000
     28 N4         -0.5990   -0.4510    3.5210 nh        1 2NQ     -0.874200
     29 S1         -1.0330    1.0000    5.2840 s4        1 2NQ      1.662300
     30 O2         -0.0940    0.4040    6.0690 o         1 2NQ     -0.434900
     31 O3         -2.3470    0.6470    5.3080 o         1 2NQ     -0.434900
     32 C23        -0.0560    4.9630    3.6640 ca        1 2NQ      0.295900
     33 F1          0.2400    6.1750    3.1810 f         1 2NQ     -0.071900
     34 C24        -1.6530    3.1860    4.0140 ca        1 2NQ      0.058500
     35 H1          2.0910   -0.6740    3.1670 ha        1 2NQ      0.165000
     36 H2          1.4030    2.3650    5.3440 ha        1 2NQ      0.177000
     37 H3          1.9540    4.6200    4.4450 ha        1 2NQ      0.195000
     38 H4         -2.1340    5.0370    2.9990 ha        1 2NQ      0.195000
     39 H5          4.0190    0.4780    3.4060 ha        1 2NQ      0.123000
     40 H6          3.7630    0.1260   -0.8950 ha        1 2NQ      0.151000
     41 H9          3.7450   -2.5170   -4.1870 h1        1 2NQ      0.060450
     42 H10         3.2320   -0.8000   -3.7670 h1        1 2NQ      0.060450
     43 H11         6.7910    1.2230   -3.5750 h1        1 2NQ      0.052950
     44 H12         7.2650   -0.4930   -3.9890 h1        1 2NQ      0.052950
     45 H13         6.0210    0.3440   -5.8900 h1        1 2NQ      0.060450
     46 H14         4.6660    0.9960   -4.8290 h1        1 2NQ      0.060450
     47 H15         8.4590   -0.2830   -2.2170 ha        1 2NQ      0.159000
     48 H16         9.6470   -0.0590   -0.0430 h4        1 2NQ      0.037100
     49 H17         6.4920    0.3120    3.3020 ha        1 2NQ      0.163000
     50 H18         2.1060    1.6310   -0.5250 h4        1 2NQ      0.061100
     51 H19        -0.1080   -1.2280    3.9450 hn        1 2NQ      0.423800
     52 H20        -2.6790    2.7810    3.8960 ha        1 2NQ      0.177000
     53 H7          5.7650   -2.3620   -2.8530 h1        1 2NQ      0.052950
     54 H42        -1.5010   -0.7770    3.1970 hn        1 2NQ      0.423800
     55 H8          4.4090   -1.7440   -1.8030 h1        1 2NQ      0.052950
@<TRIPOS>BOND
     1    1   25 ar  
     2    1   26 ar  
     3    2   10 ar  
     4    2   21 ar  
     5    3    4 ar  
     6    3   24 ar  
     7    3   35 1   
     8    4   26 ar  
     9    4   28 1   
    10    5    6 ar  
    11    5   29 1   
    12    5   34 ar  
    13    6    7 ar  
    14    6   36 1   
    15    7   32 ar  
    16    7   37 1   
    17    8   32 ar  
    18    8   34 ar  
    19    8   38 1   
    20    9   22 ar  
    21    9   23 ar  
    22    9   39 1   
    23   10   19 ar  
    24   10   22 ar  
    25   11   19 ar  
    26   11   23 ar  
    27   11   40 1   
    28   12   18 1   
    29   12   19 ar  
    30   12   20 ar  
    31   13   14 1   
    32   13   18 1   
    33   13   53 1   
    34   13   55 1   
    35   14   16 1   
    36   14   41 1   
    37   14   42 1   
    38   15   17 1   
    39   15   18 1   
    40   15   43 1   
    41   15   44 1   
    42   16   17 1   
    43   17   45 1   
    44   17   46 1   
    45   20   21 ar  
    46   20   47 1   
    47   21   48 1   
    48   22   49 1   
    49   23   24 1   
    50   24   25 ar  
    51   25   50 1   
    52   26   27 1   
    53   28   51 1   
    54   28   54 1   
    55   29   30 1   
    56   29   31 1   
    57   32   33 1   
    58   34   52 1   
@<TRIPOS>SUBSTRUCTURE
     1 2NQ         1 TEMP              0 ****  ****    0 ROOT
