@<TRIPOS>MOLECULE
2NR
   53    56     1     0     0
SMALL
bcc


@<TRIPOS>ATOM
      1 F           0.4750   -2.5170   -1.4990 f         1 2NR     -0.142900
      2 C8          1.2310   -1.6490   -0.7830 ca        1 2NR      0.170900
      3 C9          1.3520   -1.8470    0.6040 ca        1 2NR     -0.199000
      4 C10         2.1270   -0.9720    1.3570 ca        1 2NR     -0.047000
      5 C11         2.7820    0.0970    0.7530 ca        1 2NR     -0.214000
      6 C12         2.6560    0.3000   -0.6280 ca        1 2NR      0.176100
      7 O2          3.2580    1.3430   -1.2970 os        1 2NR     -0.332900
      8 C13         4.1410    2.1670   -0.5370 c3        1 2NR      0.109700
      9 C7          1.8800   -0.5710   -1.4310 cp        1 2NR     -0.131000
     10 C6          1.7410   -0.3480   -2.8630 cp        1 2NR      0.015000
     11 C5          1.4720    0.9240   -3.3930 ca        1 2NR     -0.043000
     12 C4          1.3350    1.1550   -4.7690 ca        1 2NR     -0.134000
     13 C3          1.4560    0.1410   -5.7130 ca        1 2NR     -0.036000
     14 C2          1.7240   -1.1480   -5.2320 ca        1 2NR      0.028400
     15 C1          1.8620   -1.3610   -3.8140 ca        1 2NR      0.078100
     16 N1          1.8970   -2.3770   -5.9020 nc        1 2NR     -0.445100
     17 C14         2.1300   -3.2560   -4.9250 cd        1 2NR      0.514500
     18 O1          2.1270   -2.7200   -3.6030 os        1 2NR     -0.280700
     19 N2          2.3630   -4.6890   -4.9920 n4        1 2NR     -0.527400
     20 C15         1.1940   -5.4360   -5.4810 ca        1 2NR     -0.044400
     21 C20         0.9590   -5.5110   -6.8580 ca        1 2NR     -0.169000
     22 C19        -0.1350   -6.2520   -7.3230 ca        1 2NR      0.114100
     23 O3         -0.4180   -6.4040   -8.6630 os        1 2NR     -0.298900
     24 C21         0.3000   -5.5740   -9.5740 c3        1 2NR      0.104200
     25 C18        -1.0000   -6.9070   -6.4180 ca        1 2NR      0.159100
     26 O4         -2.0840   -7.6780   -6.7110 os        1 2NR     -0.278900
     27 C22        -2.5080   -7.7870   -8.0720 c3        1 2NR      0.115700
     28 C17        -0.7390   -6.7910   -5.0180 ca        1 2NR      0.114100
     29 C16         0.3470   -6.0570   -4.5460 ca        1 2NR     -0.169000
     30 O5         -1.6320   -7.4590   -4.2190 os        1 2NR     -0.298900
     31 C23        -1.4780   -7.3020   -2.8100 c3        1 2NR      0.104200
     32 H1          0.8260   -2.6880    1.0790 ha        1 2NR      0.159000
     33 H2          2.2200   -1.1240    2.4450 ha        1 2NR      0.155000
     34 H3          3.3890    0.7780    1.3680 ha        1 2NR      0.157000
     35 H4          3.5780    2.7130    0.2580 h1        1 2NR      0.056700
     36 H5          4.9670    1.5590   -0.0950 h1        1 2NR      0.056700
     37 H6          4.5400    2.8820   -1.3010 h1        1 2NR      0.056700
     38 H7          1.3780    1.7730   -2.6910 ha        1 2NR      0.173000
     39 H8          1.1220    2.1820   -5.1130 ha        1 2NR      0.163000
     40 H9          1.3450    0.3350   -6.7900 ha        1 2NR      0.170000
     41 H10         3.1590   -4.8560   -5.6270 hn        1 2NR      0.480800
     42 H11         1.6140   -4.9900   -7.5750 ha        1 2NR      0.164500
     43 H12         0.1780   -4.4950   -9.3130 h1        1 2NR      0.059033
     44 H13         1.3780   -5.8630   -9.5960 h1        1 2NR      0.059033
     45 H14        -0.1880   -5.8020  -10.5570 h1        1 2NR      0.059033
     46 H15        -3.4270   -8.4250   -7.9880 h1        1 2NR      0.065700
     47 H16        -2.7530   -6.7810   -8.4880 h1        1 2NR      0.065700
     48 H17        -1.7220   -8.2930   -8.6830 h1        1 2NR      0.065700
     49 H18         0.5220   -5.9660   -3.4630 ha        1 2NR      0.164500
     50 H19        -2.3360   -7.8960   -2.3990 h1        1 2NR      0.059033
     51 H20        -0.5040   -7.7320   -2.4720 h1        1 2NR      0.059033
     52 H21        -1.5650   -6.2270   -2.5190 h1        1 2NR      0.059033
     53 H22         2.6020   -5.0120   -4.0400 hn        1 2NR      0.480800
@<TRIPOS>BOND
     1    1    2 1   
     2    2    3 ar  
     3    2    9 ar  
     4    3    4 ar  
     5    3   32 1   
     6    4    5 ar  
     7    4   33 1   
     8    5    6 ar  
     9    5   34 1   
    10    6    7 1   
    11    6    9 ar  
    12    7    8 1   
    13    8   35 1   
    14    8   36 1   
    15    8   37 1   
    16    9   10 1   
    17   10   11 ar  
    18   10   15 ar  
    19   11   12 ar  
    20   11   38 1   
    21   12   13 ar  
    22   12   39 1   
    23   13   14 ar  
    24   13   40 1   
    25   14   15 ar  
    26   14   16 1   
    27   15   18 1   
    28   16   17 2   
    29   17   18 1   
    30   17   19 1   
    31   19   20 1   
    32   19   41 1   
    33   19   53 1   
    34   20   21 ar  
    35   20   29 ar  
    36   21   22 ar  
    37   21   42 1   
    38   22   23 1   
    39   22   25 ar  
    40   23   24 1   
    41   24   43 1   
    42   24   44 1   
    43   24   45 1   
    44   25   26 1   
    45   25   28 ar  
    46   26   27 1   
    47   27   46 1   
    48   27   47 1   
    49   27   48 1   
    50   28   29 ar  
    51   28   30 1   
    52   29   49 1   
    53   30   31 1   
    54   31   50 1   
    55   31   51 1   
    56   31   52 1   
@<TRIPOS>SUBSTRUCTURE
     1 2NR         1 TEMP              0 ****  ****    0 ROOT
