@<TRIPOS>MOLECULE
2NR
   52    55     1     0     0
SMALL
bcc


@<TRIPOS>ATOM
      1 F           0.3470   -1.6900   -0.5700 f         1 2NR     -0.129900
      2 C8          1.5080   -1.0840   -0.2270 ca        1 2NR      0.175900
      3 C9          2.0050   -1.2750    1.0770 ca        1 2NR     -0.204000
      4 C10         3.1900   -0.6600    1.4590 ca        1 2NR     -0.066000
      5 C11         3.8890    0.1510    0.5680 ca        1 2NR     -0.223000
      6 C12         3.3930    0.3440   -0.7280 ca        1 2NR      0.162100
      7 O2          4.0080    1.1580   -1.6580 os        1 2NR     -0.319900
      8 C13         5.3200    1.6070   -1.3350 c3        1 2NR      0.111700
      9 C7          2.1970   -0.2780   -1.1610 cp        1 2NR     -0.096000
     10 C6          1.6970   -0.0800   -2.5160 cp        1 2NR     -0.002000
     11 C5          1.4980    1.2090   -3.0390 ca        1 2NR     -0.091000
     12 C4          1.0130    1.4180   -4.3330 ca        1 2NR     -0.143000
     13 C3          0.7030    0.3630   -5.1910 ca        1 2NR     -0.077000
     14 C2          0.8950   -0.9350   -4.7150 ca        1 2NR      0.078400
     15 C1          1.3890   -1.1270   -3.3790 ca        1 2NR      0.047100
     16 N1          0.6910   -2.1950   -5.3210 nc        1 2NR     -0.597100
     17 C14         1.0470   -3.0920   -4.3870 cd        1 2NR      0.732500
     18 O1          1.4900   -2.5000   -3.1470 os        1 2NR     -0.327700
     19 N2          1.1530   -4.4770   -4.3930 nu        1 2NR     -0.648600
     20 C15         0.3540   -5.2710   -5.2510 ca        1 2NR      0.186600
     21 C20         0.2200   -4.9650   -6.6160 ca        1 2NR     -0.245000
     22 C19        -0.5200   -5.8160   -7.4450 ca        1 2NR      0.155600
     23 O3         -0.6870   -5.6060   -8.7980 os        1 2NR     -0.311900
     24 C21        -0.2760   -4.3360   -9.2960 c3        1 2NR      0.110200
     25 C18        -1.1260   -6.9830   -6.9380 ca        1 2NR      0.029100
     26 O4         -1.9690   -7.7600   -7.7080 os        1 2NR     -0.307900
     27 C22        -1.2860   -8.5680   -8.6690 c3        1 2NR      0.114700
     28 C17        -0.9500   -7.2960   -5.5730 ca        1 2NR      0.155600
     29 C16        -0.2350   -6.4440   -4.7280 ca        1 2NR     -0.245000
     30 O5         -1.5230   -8.4820   -5.1650 os        1 2NR     -0.311900
     31 C23        -1.5600   -8.7150   -3.7600 c3        1 2NR      0.110200
     32 H1          1.4450   -1.9100    1.7780 ha        1 2NR      0.151000
     33 H2          3.5800   -0.8110    2.4770 ha        1 2NR      0.139000
     34 H3          4.8220    0.6320    0.8900 ha        1 2NR      0.143000
     35 H4          5.6490    2.1310   -2.2690 h1        1 2NR      0.047367
     36 H5          5.2870    2.3200   -0.4760 h1        1 2NR      0.047367
     37 H6          5.9940    0.7460   -1.1080 h1        1 2NR      0.047367
     38 H7          1.7500    2.0750   -2.4060 ha        1 2NR      0.146000
     39 H8          0.8740    2.4510   -4.6870 ha        1 2NR      0.136000
     40 H9          0.3220    0.5440   -6.2060 ha        1 2NR      0.150000
     41 H10         1.2960   -4.8590   -3.4770 hn        1 2NR      0.441800
     42 H11         0.6920   -4.0650   -7.0380 ha        1 2NR      0.156500
     43 H12        -0.7670   -3.5070   -8.7320 h1        1 2NR      0.047867
     44 H13         0.8360   -4.2420   -9.2490 h1        1 2NR      0.047867
     45 H14        -0.6250   -4.3540  -10.3600 h1        1 2NR      0.047867
     46 H15        -0.7070   -7.9240   -9.3760 h1        1 2NR      0.041367
     47 H16        -2.1150   -9.0990   -9.1990 h1        1 2NR      0.041367
     48 H17        -0.6120   -9.2940   -8.1560 h1        1 2NR      0.041367
     49 H18        -0.1280   -6.6920   -3.6620 ha        1 2NR      0.156500
     50 H19        -2.1540   -9.6600   -3.6740 h1        1 2NR      0.047867
     51 H20        -2.0720   -7.8770   -3.2290 h1        1 2NR      0.047867
     52 H21        -0.5270   -8.8620   -3.3610 h1        1 2NR      0.047867
@<TRIPOS>BOND
     1    1    2 1   
     2    2    3 ar  
     3    2    9 ar  
     4    3    4 ar  
     5    3   32 1   
     6    4    5 ar  
     7    4   33 1   
     8    5    6 ar  
     9    5   34 1   
    10    6    7 1   
    11    6    9 ar  
    12    7    8 1   
    13    8   35 1   
    14    8   36 1   
    15    8   37 1   
    16    9   10 1   
    17   10   11 ar  
    18   10   15 ar  
    19   11   12 ar  
    20   11   38 1   
    21   12   13 ar  
    22   12   39 1   
    23   13   14 ar  
    24   13   40 1   
    25   14   15 ar  
    26   14   16 1   
    27   15   18 1   
    28   16   17 2   
    29   17   18 1   
    30   17   19 1   
    31   19   20 1   
    32   19   41 1   
    33   20   21 ar  
    34   20   29 ar  
    35   21   22 ar  
    36   21   42 1   
    37   22   23 1   
    38   22   25 ar  
    39   23   24 1   
    40   24   43 1   
    41   24   44 1   
    42   24   45 1   
    43   25   26 1   
    44   25   28 ar  
    45   26   27 1   
    46   27   46 1   
    47   27   47 1   
    48   27   48 1   
    49   28   29 ar  
    50   28   30 1   
    51   29   49 1   
    52   30   31 1   
    53   31   50 1   
    54   31   51 1   
    55   31   52 1   
@<TRIPOS>SUBSTRUCTURE
     1 2NR         1 TEMP              0 ****  ****    0 ROOT
