@<TRIPOS>MOLECULE
2NS
   51    55     1     0     0
SMALL
bcc


@<TRIPOS>ATOM
      1 C23        -0.2460   -0.4190    0.6100 c3        1 2NS      0.109200
      2 O4          1.1260   -0.1200    0.3710 os        1 2NS     -0.309400
      3 C17         1.9520   -0.1130    1.4730 ca        1 2NS      0.156100
      4 C16         1.4990   -0.2080    2.7920 ca        1 2NS     -0.242500
      5 C18         3.3290    0.0180    1.1890 ca        1 2NS      0.033100
      6 O3          3.7560   -0.0320   -0.1230 os        1 2NS     -0.307900
      7 C22         4.2240    1.2220   -0.6250 c3        1 2NS      0.114700
      8 C19         4.2380    0.0820    2.2650 ca        1 2NS      0.156100
      9 O2          5.5580    0.2560    1.9070 os        1 2NS     -0.309400
     10 C21         6.5080    0.2700    2.9690 c3        1 2NS      0.109200
     11 C20         3.7990   -0.0190    3.5910 ca        1 2NS     -0.242500
     12 C15         2.4270   -0.1670    3.8550 ca        1 2NS      0.178600
     13 N4          1.9520   -0.3650    5.1770 nu        1 2NS     -0.647600
     14 C14         2.3580    0.4700    6.2110 cc        1 2NS      0.730500
     15 O1          1.4650    0.4330    7.3460 os        1 2NS     -0.345700
     16 N3          3.4440    1.2360    6.4000 nd        1 2NS     -0.593100
     17 C2          3.3060    1.7530    7.7080 ca        1 2NS      0.085400
     18 C3          4.1170    2.6130    8.4500 ca        1 2NS     -0.083000
     19 C4          3.6900    2.9510    9.7350 ca        1 2NS     -0.133000
     20 C5          2.5000    2.4620   10.2780 ca        1 2NS     -0.114000
     21 C6          1.6520    1.5930    9.5670 cp        1 2NS      0.000000
     22 C1          2.0870    1.2570    8.2890 ca        1 2NS      0.022100
     23 C7          0.4120    1.1160   10.1630 cp        1 2NS     -0.045000
     24 C12        -0.0020   -0.2240   10.0780 ca        1 2NS     -0.054200
     25 N1          0.5670   -1.3540    9.4830 na        1 2NS     -0.277300
     26 C13        -0.3200   -2.4200    9.7360 cc        1 2NS      0.416700
     27 N2         -1.3830   -2.0670   10.4730 nd        1 2NS     -0.566100
     28 C11        -1.2280   -0.6840   10.7130 ca        1 2NS      0.060400
     29 C10        -2.0220    0.2250   11.4220 ca        1 2NS     -0.059000
     30 C9         -1.6040    1.5460   11.4880 ca        1 2NS     -0.158000
     31 C8         -0.4180    1.9830   10.8780 ca        1 2NS     -0.097000
     32 H1         -0.6830   -0.4520   -0.4200 h1        1 2NS      0.048700
     33 H2         -0.3570   -1.4070    1.1180 h1        1 2NS      0.048700
     34 H3         -0.7240    0.3900    1.2140 h1        1 2NS      0.048700
     35 H4          0.4230   -0.3140    2.9940 ha        1 2NS      0.156000
     36 H5          4.5350    0.9830   -1.6720 h1        1 2NS      0.042033
     37 H6          5.0930    1.5800   -0.0220 h1        1 2NS      0.042033
     38 H7          3.4010    1.9750   -0.6160 h1        1 2NS      0.042033
     39 H8          6.3160    1.1270    3.6590 h1        1 2NS      0.048700
     40 H9          6.4900   -0.6980    3.5270 h1        1 2NS      0.048700
     41 H10         7.4840    0.4000    2.4350 h1        1 2NS      0.048700
     42 H11         4.5270    0.0110    4.4140 ha        1 2NS      0.156000
     43 H12         0.9830   -0.6150    5.2390 hn        1 2NS      0.439800
     44 H13         5.0530    3.0090    8.0350 ha        1 2NS      0.154000
     45 H14         4.3130    3.6270   10.3420 ha        1 2NS      0.140000
     46 H15         2.2100    2.7590   11.2990 ha        1 2NS      0.145000
     47 H16         1.3280   -1.3480    8.8560 hn        1 2NS      0.314700
     48 H17        -0.1150   -3.4330    9.3690 h5        1 2NS      0.068800
     49 H19        -2.9500   -0.1080   11.9090 ha        1 2NS      0.150000
     50 H20        -2.2160    2.2800   12.0350 ha        1 2NS      0.135000
     51 H21        -0.1350    3.0440   10.9610 ha        1 2NS      0.135000
@<TRIPOS>BOND
     1    1    2 1   
     2    1   32 1   
     3    1   33 1   
     4    1   34 1   
     5    2    3 1   
     6    3    4 ar  
     7    3    5 ar  
     8    4   12 ar  
     9    4   35 1   
    10    5    6 1   
    11    5    8 ar  
    12    6    7 1   
    13    7   36 1   
    14    7   37 1   
    15    7   38 1   
    16    8    9 1   
    17    8   11 ar  
    18    9   10 1   
    19   10   39 1   
    20   10   40 1   
    21   10   41 1   
    22   11   12 ar  
    23   11   42 1   
    24   12   13 1   
    25   13   14 1   
    26   13   43 1   
    27   14   15 1   
    28   14   16 2   
    29   15   22 1   
    30   16   17 1   
    31   17   18 ar  
    32   17   22 ar  
    33   18   19 ar  
    34   18   44 1   
    35   19   20 ar  
    36   19   45 1   
    37   20   21 ar  
    38   20   46 1   
    39   21   22 ar  
    40   21   23 1   
    41   23   24 ar  
    42   23   31 ar  
    43   24   25 1   
    44   24   28 ar  
    45   25   26 1   
    46   25   47 1   
    47   26   27 2   
    48   26   48 1   
    49   27   28 1   
    50   28   29 ar  
    51   29   30 ar  
    52   29   49 1   
    53   30   31 ar  
    54   30   50 1   
    55   31   51 1   
@<TRIPOS>SUBSTRUCTURE
     1 2NS         1 TEMP              0 ****  ****    0 ROOT
