@<TRIPOS>MOLECULE
2NS
   52    56     1     0     0
SMALL
bcc


@<TRIPOS>ATOM
      1 C23        -0.7250   -0.2310    2.2350 c3        1 2NS      0.104200
      2 O4          0.4940    0.1000    1.5710 os        1 2NS     -0.297900
      3 C17         1.6540   -0.0650    2.2860 ca        1 2NS      0.114100
      4 C16         1.7190   -0.5770    3.5800 ca        1 2NS     -0.170000
      5 C18         2.8350    0.3360    1.5890 ca        1 2NS      0.162100
      6 O3          2.5980    0.8020    0.3320 os        1 2NS     -0.277900
      7 C22         3.6960    1.2760   -0.4520 c3        1 2NS      0.115700
      8 C19         4.0820    0.2070    2.2430 ca        1 2NS      0.114100
      9 O2          5.1920    0.5980    1.5270 os        1 2NS     -0.297900
     10 C21         6.4370    0.6270    2.2240 c3        1 2NS      0.104200
     11 C20         4.1580   -0.3070    3.5440 ca        1 2NS     -0.170000
     12 C15         2.9810   -0.7050    4.1870 ca        1 2NS     -0.049400
     13 N4          3.0600   -1.2810    5.5380 n4        1 2NS     -0.528400
     14 C14         3.2130   -0.2710    6.5730 cc        1 2NS      0.517500
     15 O1          2.0390   -0.0330    7.3460 os        1 2NS     -0.277700
     16 N3          4.2700    0.4840    6.8850 nd        1 2NS     -0.447100
     17 C2          3.8150    1.3020    7.9410 ca        1 2NS      0.032400
     18 C3          4.4540    2.3050    8.6820 ca        1 2NS     -0.039000
     19 C4          3.7000    2.9550    9.6550 ca        1 2NS     -0.129000
     20 C5          2.3560    2.6380    9.9010 ca        1 2NS     -0.064000
     21 C6          1.6770    1.6350    9.1910 cp        1 2NS      0.004000
     22 C1          2.4380    0.9860    8.2200 ca        1 2NS      0.063100
     23 C7          0.2760    1.3310    9.4370 cp        1 2NS     -0.081000
     24 C12        -0.1630    0.0350    9.7410 ca        1 2NS     -0.061200
     25 N1          0.5090   -1.1890    9.8770 na        1 2NS     -0.296300
     26 C13        -0.4870   -2.1350   10.2300 cc        1 2NS      0.417700
     27 N2         -1.7240   -1.6290   10.2450 nd        1 2NS     -0.539100
     28 C11        -1.5730   -0.2540    9.9510 ca        1 2NS      0.064400
     29 C10        -2.5140    0.7760    9.8580 ca        1 2NS     -0.040000
     30 C9         -2.0560    2.0590    9.5750 ca        1 2NS     -0.152000
     31 C8         -0.6970    2.3340    9.3730 ca        1 2NS     -0.081000
     32 H1         -0.7500   -1.3170    2.4910 h1        1 2NS      0.059533
     33 H2         -0.8630    0.4000    3.1460 h1        1 2NS      0.059533
     34 H3         -1.5000    0.0120    1.4620 h1        1 2NS      0.059533
     35 H4          0.7950   -0.8670    4.1040 ha        1 2NS      0.165000
     36 H5          4.1940    2.1370    0.0550 h1        1 2NS      0.066033
     37 H6          4.4210    0.4500   -0.6450 h1        1 2NS      0.066033
     38 H7          3.1920    1.6010   -1.3990 h1        1 2NS      0.066033
     39 H8          7.1410    1.0480    1.4600 h1        1 2NS      0.059533
     40 H9          6.7460   -0.4060    2.5140 h1        1 2NS      0.059533
     41 H10         6.3770    1.2950    3.1170 h1        1 2NS      0.059533
     42 H11         5.1350   -0.3850    4.0480 ha        1 2NS      0.165000
     43 H12         3.8720   -1.9170    5.5850 hn        1 2NS      0.482300
     44 H13         5.5070    2.5670    8.4960 ha        1 2NS      0.173000
     45 H14         4.1730    3.7510   10.2540 ha        1 2NS      0.166000
     46 H15         1.8040    3.1930   10.6800 ha        1 2NS      0.170000
     47 H16         1.4690   -1.2750   10.0840 hn        1 2NS      0.296700
     48 H17        -0.2310   -3.1830   10.4320 h5        1 2NS      0.076800
     49 H19        -3.5840    0.5710   10.0110 ha        1 2NS      0.165000
     50 H20        -2.7800    2.8870    9.5090 ha        1 2NS      0.150000
     51 H21        -0.3860    3.3670    9.1530 ha        1 2NS      0.141000
     52 H42         2.1930   -1.8050    5.7380 hn        1 2NS      0.482300
@<TRIPOS>BOND
     1    1    2 1   
     2    1   32 1   
     3    1   33 1   
     4    1   34 1   
     5    2    3 1   
     6    3    4 ar  
     7    3    5 ar  
     8    4   12 ar  
     9    4   35 1   
    10    5    6 1   
    11    5    8 ar  
    12    6    7 1   
    13    7   36 1   
    14    7   37 1   
    15    7   38 1   
    16    8    9 1   
    17    8   11 ar  
    18    9   10 1   
    19   10   39 1   
    20   10   40 1   
    21   10   41 1   
    22   11   12 ar  
    23   11   42 1   
    24   12   13 1   
    25   13   14 1   
    26   13   43 1   
    27   13   52 1   
    28   14   15 1   
    29   14   16 2   
    30   15   22 1   
    31   16   17 1   
    32   17   18 ar  
    33   17   22 ar  
    34   18   19 ar  
    35   18   44 1   
    36   19   20 ar  
    37   19   45 1   
    38   20   21 ar  
    39   20   46 1   
    40   21   22 ar  
    41   21   23 1   
    42   23   24 ar  
    43   23   31 ar  
    44   24   25 1   
    45   24   28 ar  
    46   25   26 1   
    47   25   47 1   
    48   26   27 2   
    49   26   48 1   
    50   27   28 1   
    51   28   29 ar  
    52   29   30 ar  
    53   29   49 1   
    54   30   31 ar  
    55   30   50 1   
    56   31   51 1   
@<TRIPOS>SUBSTRUCTURE
     1 2NS         1 TEMP              0 ****  ****    0 ROOT
