@<TRIPOS>MOLECULE
2NT
   48    48     1     0     0
SMALL
bcc


@<TRIPOS>ATOM
      1 P           0.1970    5.9070    0.6730 p4        1 2NT      1.677200
      2 OP3         1.6740    5.6820    0.8780 os        1 2NT     -1.241000
      3 OP2        -0.4640    6.1300    2.0060 o         1 2NT     -0.919000
      4 O5'        -0.4540    4.6120   -0.0420 os        1 2NT     -0.553200
      5 C5'        -0.1490    3.3020    0.4890 c3        1 2NT      0.228400
      6 C4'        -1.4240    2.4230    0.4640 c3        1 2NT      0.036100
      7 O4'        -1.6970    1.9030   -0.9980 os        1 2NT     -0.381600
      8 C1'        -1.3280    0.4430   -0.9810 c3        1 2NT      0.309500
      9 N1         -0.4500    0.1280   -2.1140 n         1 2NT     -0.369000
     10 C6         -0.0580    1.1590   -3.0130 cc        1 2NT      0.075600
     11 C2         -0.1190   -1.2670   -2.4130 c         1 2NT      0.803500
     12 O2         -0.5730   -2.1510   -1.7330 o         1 2NT     -0.738500
     13 N3          0.7900   -1.5870   -3.5170 n         1 2NT     -0.594500
     14 C4          1.2640   -0.5490   -4.3740 c         1 2NT      0.718700
     15 O4          1.9520   -0.8300   -5.3580 o         1 2NT     -0.670500
     16 C5          0.8230    0.8400   -4.1570 cd        1 2NT     -0.300400
     17 C5M         1.1780    1.9300   -5.1810 c3        1 2NT     -0.025900
     18 C2'        -0.6910    0.2620    0.1550 c3        1 2NT      0.069100
     19 O2'        -0.9770   -1.0780    0.6860 os        1 2NT     -0.418600
     20 CB'        -0.0810   -1.4990    1.7090 c3        1 2NT      0.094400
     21 CC'        -0.2570   -2.9740    1.9480 c3        1 2NT      0.129400
     22 OD'         0.4480   -3.3610    3.1660 os        1 2NT     -0.266100
     23 NE'         0.8810   -4.6630    3.0570 n3        1 2NT     -0.600700
     24 CF'         0.7360   -5.3240    4.3200 c3        1 2NT      0.348600
     25 OG'         1.3520   -6.5980    4.2590 oh        1 2NT     -0.643800
     26 C3'        -1.2460    1.3820    1.1600 c3        1 2NT      0.091100
     27 O3'        -2.5390    0.9360    1.7570 oh        1 2NT     -0.605800
     28 OP1        -0.0130    7.1310   -0.2090 o         1 2NT     -0.967800
     29 H5'         0.5500    2.8810   -0.0600 h1        1 2NT     -0.004800
     30 H5''        0.1660    3.3880    1.4020 h1        1 2NT     -0.004800
     31 H4'        -2.1820    2.9210    0.7910 h1        1 2NT      0.166700
     32 H1'        -2.1330   -0.1110   -1.0100 h2        1 2NT      0.087700
     33 H6         -0.3570    2.0900   -2.8620 h4        1 2NT      0.296000
     34 HN3         0.9960   -2.4680   -3.7030 hn        1 2NT      0.325500
     35 H71         2.1540    1.9360   -5.3290 hc        1 2NT      0.052367
     36 H72         0.7190    1.7440   -6.0330 hc        1 2NT      0.052367
     37 H73         0.8890    2.8150   -4.8360 hc        1 2NT      0.052367
     38 H2'         0.2540    0.3730    0.0260 h1        1 2NT      0.061700
     39 HB'1        0.8310   -1.3220    1.4320 h1        1 2NT      0.047200
     40 HB'2       -0.2750   -1.0060    2.5390 h1        1 2NT      0.047200
     41 HC'1        0.1090   -3.4740    1.1850 h1        1 2NT      0.057200
     42 HC'2       -1.2010   -3.1750    2.0420 h1        1 2NT      0.057200
     43 HE'         1.7640   -4.6730    2.8050 hn        1 2NT      0.391800
     44 HF'1       -0.2150   -5.4300    4.5250 h2        1 2NT      0.053700
     45 HF'2        1.1700   -4.7790    5.0330 h2        1 2NT      0.053700
     46 HG'         1.3160   -6.9900    5.0750 ho        1 2NT      0.429000
     47 H3'        -0.6060    1.5520    1.8490 h1        1 2NT      0.089700
     48 HO3'       -2.7240    1.4400    2.4950 ho        1 2NT      0.407000
@<TRIPOS>BOND
     1    1    3 1   
     2    1    4 1   
     3    1   28 2   
     4    4    5 1   
     5    5    6 1   
     6    5   29 1   
     7    5   30 1   
     8    6    7 1   
     9    6   26 1   
    10    6   31 1   
    11    7    8 1   
    12    8    9 1   
    13    8   18 1   
    14    8   32 1   
    15    9   10 1   
    16    9   11 1   
    17   10   16 2   
    18   10   33 1   
    19   11   12 2   
    20   11   13 1   
    21   13   14 1   
    22   13   34 1   
    23   14   15 2   
    24   14   16 1   
    25   16   17 1   
    26   17   35 1   
    27   17   36 1   
    28   17   37 1   
    29   18   19 1   
    30   18   26 1   
    31   18   38 1   
    32   19   20 1   
    33   20   21 1   
    34   20   39 1   
    35   20   40 1   
    36   21   22 1   
    37   21   41 1   
    38   21   42 1   
    39   22   23 1   
    40   23   24 1   
    41   23   43 1   
    42   24   25 1   
    43   24   44 1   
    44   24   45 1   
    45   25   46 1   
    46   26   27 1   
    47   26   47 1   
    48   27   48 1   
@<TRIPOS>SUBSTRUCTURE
     1 2NT         1 TEMP              0 ****  ****    0 ROOT
