@<TRIPOS>MOLECULE
2NT
   48    49     1     0     0
SMALL
bcc


@<TRIPOS>ATOM
      1 P           3.9200   -1.0180   -3.7020 p5        1 2NT      1.428800
      2 OP3         3.1000   -0.3320   -4.9410 oh        1 2NT     -0.782400
      3 OP2         3.0270   -1.9290   -2.9580 o         1 2NT     -0.841500
      4 O5'         4.1080    0.3410   -2.7830 os        1 2NT     -0.580200
      5 C5'         2.9990    0.7710   -2.0550 c3        1 2NT      0.185400
      6 C4'         3.2930    0.7020   -0.5480 c3        1 2NT      0.083100
      7 O4'         2.6790    1.8350    0.0960 os        1 2NT     -0.425600
      8 C1'         1.6940    1.4080    1.0620 c3        1 2NT      0.325500
      9 N1          0.5010    2.2340    1.0160 n         1 2NT     -0.322400
     10 C6         -0.7310    1.6730    0.7960 c1        1 2NT     -0.134900
     11 C2          0.6560    3.6230    1.2720 c         1 2NT      0.728100
     12 O2          1.7420    4.1580    1.6150 o         1 2NT     -0.678100
     13 N3         -0.4920    4.4290    1.1890 n         1 2NT     -0.597500
     14 C4         -1.7820    3.9040    0.9380 c         1 2NT      0.679300
     15 O4         -2.7230    4.7370    0.8920 o         1 2NT     -0.707100
     16 C5         -1.8630    2.4660    0.7820 ce        1 2NT     -0.498500
     17 C5M        -3.1970    1.8750    0.5720 c3        1 2NT      0.033100
     18 C2'         1.4470   -0.1060    0.7880 c3        1 2NT      0.078100
     19 O2'         1.2490   -0.7380    2.0460 os        1 2NT     -0.420600
     20 CB'         0.3070   -1.8050    2.0100 c3        1 2NT      0.116400
     21 CC'        -1.1190   -1.3330    1.7720 c3        1 2NT      0.000400
     22 OD'        -1.8070   -1.1220    3.0300 os        1 2NT     -0.243100
     23 NE'        -1.9330    0.1180    3.5020 n3        1 2NT     -0.581700
     24 CF'        -0.7170    0.5820    4.1990 c3        1 2NT      0.303600
     25 OG'        -0.3550   -0.2630    5.2840 oh        1 2NT     -0.616800
     26 C3'         2.7530   -0.5800    0.1160 c3        1 2NT      0.080100
     27 O3'         3.6710   -1.1120    1.0510 oh        1 2NT     -0.591800
     28 OP1         5.2290   -1.3390   -4.3090 o         1 2NT     -0.841500
     29 H5'         2.8010    1.8490   -2.3180 h1        1 2NT      0.041200
     30 H5''        2.0970    0.1500   -2.3090 h1        1 2NT      0.041200
     31 H4'         4.3970    0.8090   -0.3710 h1        1 2NT      0.074700
     32 H1'         2.1750    1.5550    2.0770 h2        1 2NT      0.054700
     33 H6          3.6870   -0.0280   -5.6220 ho        1 2NT      0.420000
     34 HN3        -0.3730    5.4050    1.3220 hn        1 2NT      0.306500
     35 H71        -3.1170    0.7700    0.4220 hc        1 2NT      0.006033
     36 H72        -3.6930    2.3220   -0.3260 hc        1 2NT      0.006033
     37 H73        -3.8610    2.0680    1.4530 hc        1 2NT      0.006033
     38 H2'         0.5810   -0.2550    0.0900 h1        1 2NT      0.112700
     39 HB'1        0.6030   -2.5410    1.2170 h1        1 2NT      0.045200
     40 HB'2        0.4080   -2.2750    3.0260 h1        1 2NT      0.045200
     41 HC'1       -1.7160   -2.1510    1.2910 h1        1 2NT      0.098700
     42 HC'2       -1.1400   -0.3950    1.1300 h1        1 2NT      0.098700
     43 HE'        -2.1130    0.7860    2.7450 hn        1 2NT      0.396800
     44 HF'1        0.1700    0.6750    3.5020 h2        1 2NT      0.063200
     45 HF'2       -0.9590    1.5720    4.6770 h2        1 2NT      0.063200
     46 HG'        -0.2590   -1.1570    4.9310 ho        1 2NT      0.404000
     47 H3'         2.5890   -1.4060   -0.6320 h1        1 2NT      0.147700
     48 HO3'        3.6780   -0.5150    1.8090 ho        1 2NT      0.391000
@<TRIPOS>BOND
     1    1    2 1   
     2    1    3 1   
     3    1    4 1   
     4    1   28 1   
     5    2   33 1   
     6    4    5 1   
     7    5    6 1   
     8    5   29 1   
     9    5   30 1   
    10    6    7 1   
    11    6   26 1   
    12    6   31 1   
    13    7    8 1   
    14    8    9 1   
    15    8   18 1   
    16    8   32 1   
    17    9   10 2   
    18    9   11 1   
    19   10   16 2   
    20   11   12 2   
    21   11   13 1   
    22   13   14 1   
    23   13   34 1   
    24   14   15 2   
    25   14   16 1   
    26   16   17 1   
    27   17   35 1   
    28   17   36 1   
    29   17   37 1   
    30   18   19 1   
    31   18   26 1   
    32   18   38 1   
    33   19   20 1   
    34   20   21 1   
    35   20   39 1   
    36   20   40 1   
    37   21   22 1   
    38   21   41 1   
    39   21   42 1   
    40   22   23 1   
    41   23   24 1   
    42   23   43 1   
    43   24   25 1   
    44   24   44 1   
    45   24   45 1   
    46   25   46 1   
    47   26   27 1   
    48   26   47 1   
    49   27   48 1   
@<TRIPOS>SUBSTRUCTURE
     1 2NT         1 TEMP              0 ****  ****    0 ROOT
