@<TRIPOS>MOLECULE
2NW
   19    20     1     0     0
SMALL
bcc


@<TRIPOS>ATOM
      1 BR         -0.0210    0.0850    0.0830 br        1 2NW     -0.084100
      2 CAI         1.8420    0.0570   -0.0120 ca        1 2NW     -0.274200
      3 CAG         2.5800    0.0630    1.2070 ca        1 2NW      0.481200
      4 NAH         3.8940    0.0340    1.2920 nb        1 2NW     -0.696000
      5 CAK         4.6160    0.0030    0.1120 ca        1 2NW      0.434600
      6 CAE         6.0460   -0.0300    0.1830 ca        1 2NW     -0.174300
      7 CAC         6.8010   -0.0570   -0.9630 ca        1 2NW     -0.111000
      8 CAD         6.1790   -0.0490   -2.2300 ca        1 2NW     -0.140000
      9 CAF         4.8080   -0.0190   -2.3300 ca        1 2NW     -0.103000
     10 CAL         3.9920    0.0030   -1.1720 ca        1 2NW     -0.189300
     11 CAJ         2.5400    0.0310   -1.2290 ca        1 2NW      0.262600
     12 NAA         1.8820    0.0760   -2.4330 nh        1 2NW     -0.852200
     13 H1          2.0340    0.0900    2.1720 h4        1 2NW      0.033100
     14 H2          6.5270   -0.0320    1.1750 ha        1 2NW      0.154000
     15 H3          7.9000   -0.0820   -0.9040 ha        1 2NW      0.137000
     16 H4          6.8040   -0.0660   -3.1350 ha        1 2NW      0.135000
     17 H5          4.3590   -0.0050   -3.3350 ha        1 2NW      0.124000
     18 H6          2.3730   -0.1550   -3.2600 hn        1 2NW      0.431800
     19 H7          0.8960   -0.0420   -2.4420 hn        1 2NW      0.431800
@<TRIPOS>BOND
     1    1    2 1   
     2    2    3 ar  
     3    2   11 ar  
     4    3    4 ar  
     5    3   13 1   
     6    4    5 ar  
     7    5    6 ar  
     8    5   10 ar  
     9    6    7 ar  
    10    6   14 1   
    11    7    8 ar  
    12    7   15 1   
    13    8    9 ar  
    14    8   16 1   
    15    9   10 ar  
    16    9   17 1   
    17   10   11 ar  
    18   11   12 1   
    19   12   18 1   
    20   12   19 1   
@<TRIPOS>SUBSTRUCTURE
     1 2NW         1 TEMP              0 ****  ****    0 ROOT
