@<TRIPOS>MOLECULE
2NW
   19    20     1     0     0
SMALL
bcc


@<TRIPOS>ATOM
      1 Br         -0.0200    0.0850    0.0810 br        1 2NW     -0.084100
      2 CAI         1.8430    0.0550   -0.0140 ca        1 2NW     -0.274200
      3 CAG         2.5810    0.0550    1.2060 ca        1 2NW      0.481200
      4 NAH         3.8950    0.0250    1.2910 nb        1 2NW     -0.696000
      5 CAK         4.6180   -0.0020    0.1120 ca        1 2NW      0.434600
      6 CAE         6.0480   -0.0370    0.1830 ca        1 2NW     -0.174300
      7 CAC         6.8030   -0.0590   -0.9630 ca        1 2NW     -0.111000
      8 CAD         6.1820   -0.0450   -2.2300 ca        1 2NW     -0.140000
      9 CAF         4.8110   -0.0130   -2.3310 ca        1 2NW     -0.103000
     10 CAL         3.9940    0.0040   -1.1730 ca        1 2NW     -0.189300
     11 CAJ         2.5420    0.0350   -1.2310 ca        1 2NW      0.262600
     12 NAA         1.8840    0.0860   -2.4350 nv        1 2NW     -0.853200
     13 H1          2.0350    0.0780    2.1710 h4        1 2NW      0.033100
     14 H2          6.5280   -0.0440    1.1740 ha        1 2NW      0.154000
     15 H3          7.9020   -0.0850   -0.9040 ha        1 2NW      0.137000
     16 H4          6.8070   -0.0580   -3.1350 ha        1 2NW      0.135000
     17 H5          4.3620    0.0070   -3.3360 ha        1 2NW      0.124000
     18 H6          0.8990   -0.0300   -2.4440 hn        1 2NW      0.431800
     19 H7          2.3760   -0.1410   -3.2630 hn        1 2NW      0.431800
@<TRIPOS>BOND
     1    1    2 1   
     2    2    3 ar  
     3    2   11 ar  
     4    3    4 ar  
     5    3   13 1   
     6    4    5 ar  
     7    5    6 ar  
     8    5   10 ar  
     9    6    7 ar  
    10    6   14 1   
    11    7    8 ar  
    12    7   15 1   
    13    8    9 ar  
    14    8   16 1   
    15    9   10 ar  
    16    9   17 1   
    17   10   11 ar  
    18   11   12 1   
    19   12   18 1   
    20   12   19 1   
@<TRIPOS>SUBSTRUCTURE
     1 2NW         1 TEMP              0 ****  ****    0 ROOT
