@<TRIPOS>MOLECULE
2NW
   19    20     1     0     0
SMALL
bcc


@<TRIPOS>ATOM
      1 BR         -2.7020   -0.0780    0.0080 br        1 2NW     -0.084100
      2 CAI        -0.8500   -0.3050    0.0110 ca        1 2NW     -0.274200
      3 CAG        -0.3330   -1.6340    0.0040 ca        1 2NW      0.481200
      4 NAH         0.9470   -1.9430   -0.0050 nb        1 2NW     -0.696000
      5 CAK         1.8620   -0.9050   -0.0030 ca        1 2NW      0.434600
      6 CAE         3.2580   -1.2210   -0.0150 ca        1 2NW     -0.174300
      7 CAC         4.2000   -0.2220   -0.0080 ca        1 2NW     -0.111000
      8 CAD         3.8060    1.1330    0.0140 ca        1 2NW     -0.140000
      9 CAF         2.4720    1.4680    0.0250 ca        1 2NW     -0.103000
     10 CAL         1.4680    0.4670    0.0120 ca        1 2NW     -0.189300
     11 CAJ         0.0470    0.7740    0.0190 ca        1 2NW      0.262600
     12 NAA        -0.3940    2.0720    0.0770 nh        1 2NW     -0.853200
     13 H1         -1.0370   -2.4900    0.0050 h4        1 2NW      0.033100
     14 H2          3.5620   -2.2800   -0.0290 ha        1 2NW      0.154000
     15 H3          5.2730   -0.4690   -0.0170 ha        1 2NW      0.137000
     16 H4          4.5770    1.9170    0.0240 ha        1 2NW      0.135000
     17 H5          2.2030    2.5340    0.0510 ha        1 2NW      0.124000
     18 H6         -1.3610    2.2520   -0.0560 hn        1 2NW      0.431800
     19 H7          0.2360    2.8060   -0.1300 hn        1 2NW      0.431800
@<TRIPOS>BOND
     1    1    2 1   
     2    2    3 ar  
     3    2   11 ar  
     4    3    4 ar  
     5    3   13 1   
     6    4    5 ar  
     7    5    6 ar  
     8    5   10 ar  
     9    6    7 ar  
    10    6   14 1   
    11    7    8 ar  
    12    7   15 1   
    13    8    9 ar  
    14    8   16 1   
    15    9   10 ar  
    16    9   17 1   
    17   10   11 ar  
    18   11   12 1   
    19   12   18 1   
    20   12   19 1   
@<TRIPOS>SUBSTRUCTURE
     1 2NW         1 TEMP              0 ****  ****    0 ROOT
