@<TRIPOS>MOLECULE
2NW
   19    16     1     0     0
SMALL
bcc


@<TRIPOS>ATOM
      1 BR         -4.1220   -0.0260    0.3050 br        1 2NW      0.056000
      2 CAI        -2.2100   -0.0260    0.3050 c2        1 2NW     -0.349000
      3 CAG        -1.8850   -0.0260    1.6590 c2        1 2NW      0.016000
      4 NAH        -0.5770   -0.0260    2.0480 n1        1 2NW     -0.170000
      5 CAK         0.4300   -0.0260    1.0970 c1        1 2NW     -0.041500
      6 CAE         1.7800   -0.0260    1.4990 c1        1 2NW     -0.106000
      7 CAC         2.7890   -0.0260    0.5450 c1        1 2NW     -0.125500
      8 CAD         2.4670   -0.0260   -0.8100 c1        1 2NW     -0.125500
      9 CAF         1.1360   -0.0260   -1.2070 c1        1 2NW     -0.106000
     10 CAL         0.1120   -0.0260   -0.2410 c1        1 2NW     -0.041500
     11 CAJ        -1.2180   -0.0260   -0.6360 c1        1 2NW      0.181000
     12 NAA        -1.8430    0.1020   -1.9030 n3        1 2NW     -0.362000
     13 H1         -2.5940    0.0030    2.3300 h4        1 2NW      0.170000
     14 H2          2.0060   -0.0260    2.4480 ha        1 2NW      0.139000
     15 H3          3.7240   -0.0260    0.8240 ha        1 2NW      0.136000
     16 H4          3.1760   -0.0260   -1.4800 ha        1 2NW      0.136000
     17 H5          0.9110   -0.0260   -2.1570 ha        1 2NW      0.139000
     18 H6         -1.5520    0.7330   -2.4940 hn        1 2NW      0.227000
     19 H7         -2.5300   -0.4530   -2.1300 hn        1 2NW      0.227000
@<TRIPOS>BOND
     1    1    2 1   
     2    2    3 1   
     3    2   11 1   
     4    3    4 1   
     5    3   13 1   
     6    5    6 1   
     7    5   10 1   
     8    6   14 1   
     9    7    8 1   
    10    7   15 1   
    11    8   16 1   
    12    9   10 1   
    13    9   17 1   
    14   11   12 1   
    15   12   18 1   
    16   12   19 1   
@<TRIPOS>SUBSTRUCTURE
     1 2NW         1 TEMP              0 ****  ****    0 ROOT
