@<TRIPOS>MOLECULE
2NW
   20    21     1     0     0
SMALL
bcc


@<TRIPOS>ATOM
      1 BR         -0.0090   -0.0080    0.0730 br        1 2NW      0.009900
      2 CAI         1.8510   -0.0050    0.0110 ca        1 2NW     -0.116200
      3 CAG         2.5990   -0.0020    1.2380 ca        1 2NW      0.441200
      4 NAH         3.9140   -0.0010    1.3000 nb        1 2NW     -0.580000
      5 CAK         4.6390   -0.0020    0.1280 ca        1 2NW      0.415600
      6 CAE         6.0710    0.0000    0.1900 ca        1 2NW     -0.132300
      7 CAC         6.8140   -0.0010   -0.9650 ca        1 2NW     -0.101000
      8 CAD         6.1820   -0.0040   -2.2310 ca        1 2NW     -0.055000
      9 CAF         4.8100   -0.0060   -2.3280 ca        1 2NW     -0.170000
     10 CAL         4.0060   -0.0050   -1.1610 ca        1 2NW     -0.130300
     11 CAJ         2.5740   -0.0070   -1.1740 ca        1 2NW     -0.004400
     12 NAA         1.8810   -0.0100   -2.4630 n4        1 2NW     -0.714000
     13 H1          2.0580   -0.0010    2.2090 h4        1 2NW      0.077100
     14 H2          6.5610    0.0030    1.1800 ha        1 2NW      0.185000
     15 H3          7.9170    0.0010   -0.9170 ha        1 2NW      0.173000
     16 H4          6.8060   -0.0050   -3.1410 ha        1 2NW      0.166000
     17 H5          4.3540   -0.0080   -3.3290 ha        1 2NW      0.121000
     18 H6          2.1530   -0.8480   -2.9920 hn        1 2NW      0.471467
     19 H7          2.1510    0.8270   -2.9950 hn        1 2NW      0.471467
     20 HAA3        0.8590   -0.0110   -2.3190 hn        1 2NW      0.471467
@<TRIPOS>BOND
     1    1    2 1   
     2    2    3 ar  
     3    2   11 ar  
     4    3    4 ar  
     5    3   13 1   
     6    4    5 ar  
     7    5    6 ar  
     8    5   10 ar  
     9    6    7 ar  
    10    6   14 1   
    11    7    8 ar  
    12    7   15 1   
    13    8    9 ar  
    14    8   16 1   
    15    9   10 ar  
    16    9   17 1   
    17   10   11 ar  
    18   11   12 1   
    19   12   18 1   
    20   12   19 1   
    21   12   20 1   
@<TRIPOS>SUBSTRUCTURE
     1 2NW         1 TEMP              0 ****  ****    0 ROOT
