@<TRIPOS>MOLECULE
2NX
   28    28     1     0     0
SMALL
bcc


@<TRIPOS>ATOM
      1 CAA         0.4640    0.4970   -0.1590 c3        1 2NX      0.136700
      2 OAK         1.4010   -0.4710    0.2970 os        1 2NX     -0.553200
      3 PAO         2.2210   -0.1640    1.6200 p5        1 2NX      1.494400
      4 OAL         3.7760   -0.0770    1.3110 os        1 2NX     -0.553200
      5 CAB         4.4440    1.1570    1.5420 c3        1 2NX      0.136700
      6 OAD         1.6830    0.8840    2.4730 o         1 2NX     -0.754300
      7 NAJ         2.0790   -1.6580    2.5350 n4        1 2NX     -0.662900
      8 CAM         2.6300   -2.7570    1.6750 c         1 2NX      0.580700
      9 OAC         3.0110   -2.2940    0.6010 o         1 2NX     -0.445100
     10 CAN         2.6500   -4.1230    2.1620 ca        1 2NX     -0.206600
     11 CAH         3.1820   -5.1000    1.2980 ca        1 2NX     -0.056000
     12 CAF         3.2310   -6.4320    1.7040 ca        1 2NX     -0.127500
     13 CAE         2.7550   -6.7980    2.9620 ca        1 2NX     -0.040000
     14 CAG         2.2250   -5.8290    3.8230 ca        1 2NX     -0.127500
     15 CAI         2.1710   -4.4970    3.4310 ca        1 2NX     -0.056000
     16 H1         -0.5070   -0.0440   -0.3200 h1        1 2NX      0.076700
     17 H2          0.3470    1.3160    0.5950 h1        1 2NX      0.076700
     18 H3          0.8340    0.8890   -1.1430 h1        1 2NX      0.076700
     19 H4          5.3390    0.9260    2.1790 h1        1 2NX      0.076700
     20 H5          3.7630    1.8830    2.0550 h1        1 2NX      0.076700
     21 H6          4.7910    1.5460    0.5480 h1        1 2NX      0.076700
     22 H7          1.1090   -1.8650    2.7790 hn        1 2NX      0.478800
     23 H8          3.5580   -4.8040    0.3020 ha        1 2NX      0.150500
     24 H9          3.6480   -7.1940    1.0250 ha        1 2NX      0.170500
     25 H10         2.7940   -7.8540    3.2830 ha        1 2NX      0.170000
     26 H11         1.8500   -6.1250    4.8170 ha        1 2NX      0.170500
     27 H12         1.7490   -3.7600    4.1300 ha        1 2NX      0.150500
     28 HAJ2        2.5970   -1.6170    3.4150 hn        1 2NX      0.478800
@<TRIPOS>BOND
     1    1    2 1   
     2    1   16 1   
     3    1   17 1   
     4    1   18 1   
     5    2    3 1   
     6    3    4 1   
     7    3    6 2   
     8    3    7 1   
     9    4    5 1   
    10    5   19 1   
    11    5   20 1   
    12    5   21 1   
    13    7    8 1   
    14    7   22 1   
    15    7   28 1   
    16    8    9 2   
    17    8   10 1   
    18   10   11 ar  
    19   10   15 ar  
    20   11   12 ar  
    21   11   23 1   
    22   12   13 ar  
    23   12   24 1   
    24   13   14 ar  
    25   13   25 1   
    26   14   15 ar  
    27   14   26 1   
    28   15   27 1   
@<TRIPOS>SUBSTRUCTURE
     1 2NX         1 TEMP              0 ****  ****    0 ROOT
