@<TRIPOS>MOLECULE
2NX
   28    28     1     0     0
SMALL
bcc


@<TRIPOS>ATOM
      1 CAA         0.4740    0.5110   -0.1480 c3        1 2NX      0.136700
      2 OAK         1.4080   -0.4630    0.3030 os        1 2NX     -0.553200
      3 PAO         2.2370   -0.1620    1.6220 p5        1 2NX      1.494400
      4 OAL         3.7910   -0.0860    1.3050 os        1 2NX     -0.553200
      5 CAB         4.4690    1.1440    1.5320 c3        1 2NX      0.136700
      6 OAD         1.7110    0.8900    2.4780 o         1 2NX     -0.754300
      7 NAJ         2.0890   -1.6550    2.5380 n4        1 2NX     -0.662900
      8 CAM         2.6260   -2.7580    1.6750 c         1 2NX      0.580700
      9 OAC         3.0060   -2.2970    0.5990 o         1 2NX     -0.445100
     10 CAN         2.6380   -4.1240    2.1610 ca        1 2NX     -0.206600
     11 CAH         3.1580   -5.1050    1.2940 ca        1 2NX     -0.056000
     12 CAF         3.1980   -6.4370    1.6990 ca        1 2NX     -0.127500
     13 CAE         2.7260   -6.8010    2.9600 ca        1 2NX     -0.040000
     14 CAG         2.2080   -5.8270    3.8240 ca        1 2NX     -0.127500
     15 CAI         2.1620   -4.4950    3.4320 ca        1 2NX     -0.056000
     16 H1          0.3680    1.3310    0.6070 h1        1 2NX      0.076700
     17 H2         -0.5000   -0.0220   -0.3040 h1        1 2NX      0.076700
     18 H3          0.8420    0.9010   -1.1340 h1        1 2NX      0.076700
     19 H4          3.7950    1.8740    2.0490 h1        1 2NX      0.076700
     20 H5          5.3660    0.9060    2.1640 h1        1 2NX      0.076700
     21 H6          4.8120    1.5300    0.5360 h1        1 2NX      0.076700
     22 H7          1.1180   -1.8550    2.7870 hn        1 2NX      0.478800
     23 H8          3.5310   -4.8120    0.2960 ha        1 2NX      0.150500
     24 H9          3.6060   -7.2030    1.0180 ha        1 2NX      0.170500
     25 H10         2.7580   -7.8560    3.2800 ha        1 2NX      0.170000
     26 H11         1.8360   -6.1200    4.8190 ha        1 2NX      0.170500
     27 H12         1.7500   -3.7550    4.1340 ha        1 2NX      0.150500
     28 HAJ2        2.6120   -1.6180    3.4150 hn        1 2NX      0.478800
@<TRIPOS>BOND
     1    1    2 1   
     2    1   16 1   
     3    1   17 1   
     4    1   18 1   
     5    2    3 1   
     6    3    4 1   
     7    3    6 2   
     8    3    7 1   
     9    4    5 1   
    10    5   19 1   
    11    5   20 1   
    12    5   21 1   
    13    7    8 1   
    14    7   22 1   
    15    7   28 1   
    16    8    9 2   
    17    8   10 1   
    18   10   11 ar  
    19   10   15 ar  
    20   11   12 ar  
    21   11   23 1   
    22   12   13 ar  
    23   12   24 1   
    24   13   14 ar  
    25   13   25 1   
    26   14   15 ar  
    27   14   26 1   
    28   15   27 1   
@<TRIPOS>SUBSTRUCTURE
     1 2NX         1 TEMP              0 ****  ****    0 ROOT
