@<TRIPOS>MOLECULE
2NX
   28    28     1     0     0
SMALL
bcc


@<TRIPOS>ATOM
      1 CAA         0.4710    0.5240   -0.1270 c3        1 2NX      0.136700
      2 OAK         1.4050   -0.4530    0.3160 os        1 2NX     -0.553200
      3 PAO         2.2330   -0.1610    1.6390 p5        1 2NX      1.494400
      4 OAL         3.7870   -0.0800    1.3230 os        1 2NX     -0.553200
      5 CAB         4.4630    1.1490    1.5610 c3        1 2NX      0.136700
      6 OAD         1.7050    0.8830    2.5020 o         1 2NX     -0.754300
      7 NAJ         2.0860   -1.6610    2.5420 ny        1 2NX     -0.662900
      8 CAM         2.6270   -2.7570    1.6710 c         1 2NX      0.580700
      9 OAC         3.0060   -2.2870    0.5990 o         1 2NX     -0.445100
     10 CAN         2.6410   -4.1270    2.1470 ca        1 2NX     -0.206600
     11 CAH         3.1640   -5.0990    1.2720 ca        1 2NX     -0.056000
     12 CAF         3.2070   -6.4350    1.6680 ca        1 2NX     -0.127500
     13 CAE         2.7330   -6.8090    2.9250 ca        1 2NX     -0.040000
     14 CAG         2.2120   -5.8430    3.7950 ca        1 2NX     -0.127500
     15 CAI         2.1640   -4.5080    3.4140 ca        1 2NX     -0.056000
     16 H1          0.8380    0.9220   -1.1100 h1        1 2NX      0.076700
     17 H2         -0.5030   -0.0100   -0.2880 h1        1 2NX      0.076700
     18 H3          0.3630    1.3370    0.6340 h1        1 2NX      0.076700
     19 H4          4.8070    1.5430    0.5690 h1        1 2NX      0.076700
     20 H5          5.3600    0.9080    2.1920 h1        1 2NX      0.076700
     21 H6          3.7880    1.8740    2.0830 h1        1 2NX      0.076700
     22 H7          1.1150   -1.8650    2.7880 hn        1 2NX      0.478800
     23 H8          3.5380   -4.7980    0.2780 ha        1 2NX      0.150500
     24 H9          3.6180   -7.1940    0.9810 ha        1 2NX      0.170500
     25 H10         2.7670   -7.8670    3.2370 ha        1 2NX      0.170000
     26 H11         1.8390   -6.1450    4.7880 ha        1 2NX      0.170500
     27 H12         1.7490   -3.7740    4.1200 ha        1 2NX      0.150500
     28 HAJ2        2.6080   -1.6310    3.4200 hn        1 2NX      0.478800
@<TRIPOS>BOND
     1    1    2 1   
     2    1   16 1   
     3    1   17 1   
     4    1   18 1   
     5    2    3 1   
     6    3    4 1   
     7    3    6 2   
     8    3    7 1   
     9    4    5 1   
    10    5   19 1   
    11    5   20 1   
    12    5   21 1   
    13    7    8 1   
    14    7   22 1   
    15    7   28 1   
    16    8    9 2   
    17    8   10 1   
    18   10   11 ar  
    19   10   15 ar  
    20   11   12 ar  
    21   11   23 1   
    22   12   13 ar  
    23   12   24 1   
    24   13   14 ar  
    25   13   25 1   
    26   14   15 ar  
    27   14   26 1   
    28   15   27 1   
@<TRIPOS>SUBSTRUCTURE
     1 2NX         1 TEMP              0 ****  ****    0 ROOT
