@<TRIPOS>MOLECULE
2NX
   27    27     1     0     0
SMALL
bcc


@<TRIPOS>ATOM
      1 CAA         3.2560    2.0170   -0.1490 c3        1 2NX      0.154700
      2 OAK         1.9300    1.5480   -0.1480 os        1 2NX     -0.567200
      3 PAO         1.6580    0.1100    0.5300 p5        1 2NX      1.620500
      4 OAL         2.0570   -0.9120   -0.6560 os        1 2NX     -0.567200
      5 CAB         2.8520   -2.0270   -0.3410 c3        1 2NX      0.154700
      6 OAD         2.5360   -0.1010    1.6870 o         1 2NX     -0.849300
      7 NAJ         0.1040   -0.0220    0.8820 n         1 2NX     -0.714900
      8 CAM        -0.7960    0.1530   -0.1610 c         1 2NX      0.679700
      9 OAC        -0.2400    0.3680   -1.2550 o         1 2NX     -0.573100
     10 CAN        -2.2560    0.0630    0.0380 ca        1 2NX     -0.144600
     11 CAH        -3.0490   -0.2440   -1.0770 ca        1 2NX     -0.079000
     12 CAF        -4.4330   -0.3390   -0.9410 ca        1 2NX     -0.140000
     13 CAE        -5.0300   -0.1220    0.3000 ca        1 2NX     -0.096000
     14 CAG        -4.2420    0.1950    1.4080 ca        1 2NX     -0.140000
     15 CAI        -2.8570    0.2880    1.2810 ca        1 2NX     -0.079000
     16 H1          3.6500    1.9810   -1.1990 h1        1 2NX      0.045200
     17 H2          3.2300    3.0850    0.1930 h1        1 2NX      0.045200
     18 H3          3.8930    1.4050    0.5410 h1        1 2NX      0.045200
     19 H4          3.2150   -1.9780    0.7180 h1        1 2NX      0.045200
     20 H5          2.2450   -2.9550   -0.5130 h1        1 2NX      0.045200
     21 H6          3.7210   -2.0320   -1.0510 h1        1 2NX      0.045200
     22 H7         -0.2360   -0.2100    1.7920 hn        1 2NX      0.346500
     23 H8         -2.5660   -0.4000   -2.0560 ha        1 2NX      0.148500
     24 H9         -5.0530   -0.5830   -1.8170 ha        1 2NX      0.142000
     25 H10        -6.1230   -0.1960    0.4070 ha        1 2NX      0.140000
     26 H11        -4.7150    0.3750    2.3850 ha        1 2NX      0.142000
     27 H12        -2.2560    0.5550    2.1630 ha        1 2NX      0.148500
@<TRIPOS>BOND
     1    1    2 1   
     2    1   16 1   
     3    1   17 1   
     4    1   18 1   
     5    2    3 1   
     6    3    4 1   
     7    3    6 2   
     8    3    7 1   
     9    4    5 1   
    10    5   19 1   
    11    5   20 1   
    12    5   21 1   
    13    7    8 1   
    14    7   22 1   
    15    8    9 2   
    16    8   10 1   
    17   10   11 ar  
    18   10   15 ar  
    19   11   12 ar  
    20   11   23 1   
    21   12   13 ar  
    22   12   24 1   
    23   13   14 ar  
    24   13   25 1   
    25   14   15 ar  
    26   14   26 1   
    27   15   27 1   
@<TRIPOS>SUBSTRUCTURE
     1 2NX         1 TEMP              0 ****  ****    0 ROOT
