@<TRIPOS>MOLECULE
2NX
   27    25     1     0     0
SMALL
bcc


@<TRIPOS>ATOM
      1 CAA        -4.0500   -0.3210    1.0410 c3        1 2NX     -0.041500
      2 OAK        -2.6470   -0.4610    0.8170 os        1 2NX     -0.723500
      3 PAO        -1.7260    0.8870    0.8070 p5        1 2NX      2.652000
      4 OAL        -2.2090    1.8360   -0.3570 os        1 2NX     -0.723500
      5 CAB        -2.3450    3.2120   -0.1020 c3        1 2NX     -0.041500
      6 OAD        -1.8670    1.6140    2.1750 o         1 2NX     -1.114000
      7 NAJ        -0.1130    0.4730    0.5540 n         1 2NX     -0.865000
      8 CAM         0.1940   -0.6700   -0.1100 c2        1 2NX      0.354000
      9 OAC        -0.7180   -1.4690   -0.4340 o         1 2NX     -0.337000
     10 CAN         1.6720   -1.0160   -0.4240 c2        1 2NX     -0.124000
     11 CAH         2.2810   -0.4770   -1.5230 c2        1 2NX     -0.067000
     12 CAF         3.6020   -0.8350   -1.8420 c1        1 2NX     -0.140000
     13 CAE         4.3070   -1.7610   -1.0220 c1        1 2NX     -0.118000
     14 CAG         3.7020   -2.2990    0.0720 c1        1 2NX     -0.118000
     15 CAI         2.3760   -1.9390    0.3930 c1        1 2NX     -0.091000
     16 H1         -4.4290   -1.1500    1.1420 h1        1 2NX      0.086500
     17 H2         -4.1970    0.1930    1.8300 h1        1 2NX      0.086500
     18 H3         -4.4580    0.1340    0.2760 h1        1 2NX      0.086500
     19 H4         -1.4440    3.5970    0.2030 h1        1 2NX      0.086500
     20 H5         -2.6300    3.6590   -0.9130 h1        1 2NX      0.086500
     21 H6         -3.0660    3.3620    0.6530 h1        1 2NX      0.086500
     22 H7          0.5590    0.9810    0.9330 hn        1 2NX      0.260000
     23 H8          1.7810    0.1810   -2.1050 ha        1 2NX      0.162000
     24 H9          4.0340   -0.4510   -2.6230 ha        1 2NX      0.143000
     25 H10         5.2290   -2.0110   -1.2430 ha        1 2NX      0.140500
     26 H11         4.2040   -2.9570    0.6550 ha        1 2NX      0.140500
     27 H12         1.9580   -2.3120    1.1480 ha        1 2NX      0.135000
@<TRIPOS>BOND
     1    1    2 1   
     2    1   16 1   
     3    1   17 1   
     4    1   18 1   
     5    2    3 1   
     6    3    4 1   
     7    3    6 1   
     8    3    7 1   
     9    4    5 1   
    10    5   19 1   
    11    5   20 1   
    12    5   21 1   
    13    7    8 1   
    14    7   22 1   
    15    8    9 1   
    16    8   10 1   
    17   10   11 1   
    18   10   15 1   
    19   11   12 1   
    20   11   23 1   
    21   12   24 1   
    22   13   14 1   
    23   13   25 1   
    24   14   26 1   
    25   15   27 1   
@<TRIPOS>SUBSTRUCTURE
     1 2NX         1 TEMP              0 ****  ****    0 ROOT
