@<TRIPOS>MOLECULE
2NY
   32    33     1     0     0
SMALL
bcc


@<TRIPOS>ATOM
      1 CAA         0.0390   -0.0910   -0.0230 c3        1 2NY     -0.122100
      2 CAH         1.5510    0.0700   -0.0150 c3        1 2NY      0.215300
      3 NAP         2.2130    0.0470    1.2740 nh        1 2NY     -0.748300
      4 CAI         2.2840    1.3020    1.9970 c3        1 2NY      0.215300
      5 CAB         1.0830    1.6830    2.8480 c3        1 2NY     -0.122100
      6 C2          2.2910   -1.1660    1.9960 ca        1 2NY      0.922900
      7 N1          2.0060   -2.3460    1.2880 nb        1 2NY     -0.822000
      8 N3          2.6900   -1.1230    3.3030 nb        1 2NY     -0.792000
      9 C4          2.8850   -2.3210    3.9400 ca        1 2NY      0.482600
     10 CAF         3.3170   -2.3210    5.3090 ca        1 2NY     -0.199300
     11 CAD         3.5340   -3.5040    5.9680 ca        1 2NY     -0.095000
     12 CAE         3.3410   -4.7440    5.3180 ca        1 2NY     -0.167000
     13 CAG         2.9230   -4.7790    4.0080 ca        1 2NY     -0.075000
     14 C5          2.6780   -3.5810    3.3000 ca        1 2NY     -0.333600
     15 C6          2.2180   -3.5190    1.9160 ca        1 2NY      0.720200
     16 NAC         2.0350   -4.6950    1.1960 nh        1 2NY     -0.943500
     17 H1         -0.3150   -0.0830   -1.0820 hc        1 2NY      0.041867
     18 H2         -0.2700   -1.0560    0.4450 hc        1 2NY      0.041867
     19 H3         -0.4610    0.7430    0.5240 hc        1 2NY      0.041867
     20 H4          1.8060    1.0600   -0.4960 h1        1 2NY      0.057200
     21 H5          2.0050   -0.7360   -0.6610 h1        1 2NY      0.057200
     22 H6          3.2000    1.2760    2.6560 h1        1 2NY      0.057200
     23 H7          2.4510    2.1120    1.2290 h1        1 2NY      0.057200
     24 H8          1.3040    2.6500    3.3610 hc        1 2NY      0.041867
     25 H9          0.8740    0.9110    3.6260 hc        1 2NY      0.041867
     26 H10         0.1680    1.8150    2.2230 hc        1 2NY      0.041867
     27 H11         3.4740   -1.3560    5.8150 ha        1 2NY      0.150000
     28 H12         3.8660   -3.5000    7.0180 ha        1 2NY      0.133000
     29 H13         3.5320   -5.6750    5.8690 ha        1 2NY      0.133000
     30 H14         2.7930   -5.7550    3.5180 ha        1 2NY      0.123000
     31 H15         1.5980   -4.6290    0.3050 hn        1 2NY      0.420800
     32 H16         1.8160   -5.5030    1.7260 hn        1 2NY      0.420800
@<TRIPOS>BOND
     1    1    2 1   
     2    1   17 1   
     3    1   18 1   
     4    1   19 1   
     5    2    3 1   
     6    2   20 1   
     7    2   21 1   
     8    3    4 1   
     9    3    6 1   
    10    4    5 1   
    11    4   22 1   
    12    4   23 1   
    13    5   24 1   
    14    5   25 1   
    15    5   26 1   
    16    6    7 ar  
    17    6    8 ar  
    18    7   15 ar  
    19    8    9 ar  
    20    9   10 ar  
    21    9   14 ar  
    22   10   11 ar  
    23   10   27 1   
    24   11   12 ar  
    25   11   28 1   
    26   12   13 ar  
    27   12   29 1   
    28   13   14 ar  
    29   13   30 1   
    30   14   15 ar  
    31   15   16 1   
    32   16   31 1   
    33   16   32 1   
@<TRIPOS>SUBSTRUCTURE
     1 2NY         1 TEMP              0 ****  ****    0 ROOT
