@<TRIPOS>MOLECULE
2NY
   32    33     1     0     0
SMALL
bcc


@<TRIPOS>ATOM
      1 CAA         3.5270    1.3130    0.9610 c3        1 2NY     -0.123100
      2 CAH         3.2400    0.8940   -0.4730 c3        1 2NY      0.215300
      3 NAP         2.2850   -0.1790   -0.6700 nh        1 2NY     -0.748300
      4 CAI         2.8050   -1.5320   -0.6330 c3        1 2NY      0.215300
      5 CAB         2.9950   -2.1670    0.7350 c3        1 2NY     -0.123100
      6 C2          0.9220    0.0400   -0.3610 ca        1 2NY      0.921900
      7 N1          0.5040    1.3790   -0.2660 nb        1 2NY     -0.819000
      8 N3          0.0930   -1.0410   -0.2560 nb        1 2NY     -0.791000
      9 C4         -1.2430   -0.7940   -0.0740 ca        1 2NY      0.481600
     10 CAF        -2.1520   -1.9020    0.0180 ca        1 2NY     -0.199300
     11 CAD        -3.4920   -1.6860    0.2120 ca        1 2NY     -0.095000
     12 CAE        -4.0070   -0.3760    0.3280 ca        1 2NY     -0.166000
     13 CAG        -3.1640    0.7080    0.2430 ca        1 2NY     -0.075000
     14 C5         -1.7780    0.5260    0.0370 ca        1 2NY     -0.332600
     15 C6         -0.8070    1.6120   -0.0620 ca        1 2NY      0.718200
     16 NAC        -1.2220    2.9270    0.1220 nh        1 2NY     -0.942500
     17 H1          3.9640    0.4720    1.5500 hc        1 2NY      0.042700
     18 H2          4.2610    2.1540    0.9460 hc        1 2NY      0.042700
     19 H3          2.6010    1.6620    1.4760 hc        1 2NY      0.042700
     20 H4          2.8810    1.7960   -1.0480 h1        1 2NY      0.056450
     21 H5          4.2080    0.5630   -0.9480 h1        1 2NY      0.056450
     22 H6          2.1220   -2.1890   -1.2450 h1        1 2NY      0.056450
     23 H7          3.8040   -1.5110   -1.1600 h1        1 2NY      0.056450
     24 H8          2.0370   -2.1990    1.3060 hc        1 2NY      0.042700
     25 H9          3.3560   -3.2150    0.5940 hc        1 2NY      0.042700
     26 H10         3.7510   -1.6110    1.3400 hc        1 2NY      0.042700
     27 H11        -1.7510   -2.9240   -0.0690 ha        1 2NY      0.150000
     28 H12        -4.1850   -2.5390    0.2820 ha        1 2NY      0.133000
     29 H13        -5.0850   -0.2340    0.4880 ha        1 2NY      0.133000
     30 H14        -3.5860    1.7180    0.3480 ha        1 2NY      0.123000
     31 H15        -0.5700    3.6490   -0.0890 hn        1 2NY      0.419800
     32 H16        -2.1670    3.1220   -0.1080 hn        1 2NY      0.419800
@<TRIPOS>BOND
     1    1    2 1   
     2    1   17 1   
     3    1   18 1   
     4    1   19 1   
     5    2    3 1   
     6    2   20 1   
     7    2   21 1   
     8    3    4 1   
     9    3    6 1   
    10    4    5 1   
    11    4   22 1   
    12    4   23 1   
    13    5   24 1   
    14    5   25 1   
    15    5   26 1   
    16    6    7 ar  
    17    6    8 ar  
    18    7   15 ar  
    19    8    9 ar  
    20    9   10 ar  
    21    9   14 ar  
    22   10   11 ar  
    23   10   27 1   
    24   11   12 ar  
    25   11   28 1   
    26   12   13 ar  
    27   12   29 1   
    28   13   14 ar  
    29   13   30 1   
    30   14   15 ar  
    31   15   16 1   
    32   16   31 1   
    33   16   32 1   
@<TRIPOS>SUBSTRUCTURE
     1 2NY         1 TEMP              0 ****  ****    0 ROOT
