@<TRIPOS>MOLECULE
2NY
   34    35     1     0     0
SMALL
bcc


@<TRIPOS>ATOM
      1 CAA        -0.3070   -0.2350    1.4020 c3        1 2NY     -0.130100
      2 CAH         0.7580    0.1210    0.3920 c3        1 2NY      0.127800
      3 NAP         2.1870   -0.0160    0.8580 n4        1 2NY     -0.669100
      4 CAI         2.7430    1.2320    1.5070 c3        1 2NY      0.127800
      5 CAB         1.8510    1.9530    2.4880 c3        1 2NY     -0.130100
      6 C2          2.3660   -1.2510    1.6880 ca        1 2NY      0.732900
      7 N1          2.6400   -2.4120    0.9590 nb        1 2NY     -0.683000
      8 N3          2.2530   -1.1670    3.0270 nb        1 2NY     -0.575000
      9 C4          2.4270   -2.3210    3.7520 ca        1 2NY      0.427600
     10 CAF         2.3220   -2.2850    5.1790 ca        1 2NY     -0.130300
     11 CAD         2.4960   -3.4380    5.9100 ca        1 2NY     -0.062000
     12 CAE         2.7810   -4.6690    5.2730 ca        1 2NY     -0.022000
     13 CAG         2.8900   -4.7430    3.8990 ca        1 2NY     -0.149000
     14 C5          2.7180   -3.5850    3.1110 ca        1 2NY     -0.220600
     15 C6          2.8090   -3.5270    1.6760 ca        1 2NY      0.551200
     16 NAC         3.1100   -4.7700    0.9280 n4        1 2NY     -0.833300
     17 H1         -0.2040    0.3450    2.3520 hc        1 2NY      0.084700
     18 H2         -0.3020   -1.3250    1.6390 hc        1 2NY      0.084700
     19 H3         -1.3020    0.0170    0.9480 hc        1 2NY      0.084700
     20 H4          0.6370    1.1960    0.0650 hx        1 2NY      0.110450
     21 H5          0.6510   -0.5480   -0.5120 hx        1 2NY      0.110450
     22 H6          2.9690    1.9270    0.6410 hx        1 2NY      0.110450
     23 H7          3.7130    0.9480    2.0060 hx        1 2NY      0.110450
     24 H8          1.6100    1.3400    3.3890 hc        1 2NY      0.084700
     25 H9          0.8990    2.2980    2.0160 hc        1 2NY      0.084700
     26 H10         2.4120    2.8630    2.8340 hc        1 2NY      0.084700
     27 H11         2.1000   -1.3250    5.6810 ha        1 2NY      0.199000
     28 H12         2.4160   -3.4110    7.0140 ha        1 2NY      0.200000
     29 H13         2.9160   -5.5770    5.8920 ha        1 2NY      0.195000
     30 H14         3.1120   -5.7170    3.4370 ha        1 2NY      0.148000
     31 H15         4.0210   -5.1340    1.2470 hn        1 2NY      0.491133
     32 H16         2.3750   -5.4630    1.1300 hn        1 2NY      0.491133
     33 HAP1        2.7600   -0.1560    0.0060 hn        1 2NY      0.470800
     34 HAC3        3.1500   -4.6060   -0.0900 hn        1 2NY      0.491133
@<TRIPOS>BOND
     1    1    2 1   
     2    1   17 1   
     3    1   18 1   
     4    1   19 1   
     5    2    3 1   
     6    2   20 1   
     7    2   21 1   
     8    3    4 1   
     9    3    6 1   
    10    3   33 1   
    11    4    5 1   
    12    4   22 1   
    13    4   23 1   
    14    5   24 1   
    15    5   25 1   
    16    5   26 1   
    17    6    7 ar  
    18    6    8 ar  
    19    7   15 ar  
    20    8    9 ar  
    21    9   10 ar  
    22    9   14 ar  
    23   10   11 ar  
    24   10   27 1   
    25   11   12 ar  
    26   11   28 1   
    27   12   13 ar  
    28   12   29 1   
    29   13   14 ar  
    30   13   30 1   
    31   14   15 ar  
    32   15   16 1   
    33   16   31 1   
    34   16   32 1   
    35   16   34 1   
@<TRIPOS>SUBSTRUCTURE
     1 2NY         1 TEMP              0 ****  ****    0 ROOT
