@<TRIPOS>MOLECULE
2NY
   32    33     1     0     0
SMALL
bcc


@<TRIPOS>ATOM
      1 CAA         0.0550   -0.0930   -0.0330 c3        1 2NY     -0.122100
      2 CAH         1.5670    0.0680   -0.0180 c3        1 2NY      0.215300
      3 NAP         2.2220    0.0460    1.2740 nh        1 2NY     -0.748300
      4 CAI         2.2920    1.3010    1.9960 c3        1 2NY      0.215300
      5 CAB         1.0870    1.6840    2.8400 c3        1 2NY     -0.122100
      6 C2          2.2960   -1.1670    1.9970 ca        1 2NY      0.922900
      7 N1          2.0140   -2.3480    1.2880 nb        1 2NY     -0.822000
      8 N3          2.6870   -1.1240    3.3060 nb        1 2NY     -0.792000
      9 C4          2.8780   -2.3210    3.9450 ca        1 2NY      0.482600
     10 CAF         3.3010   -2.3210    5.3170 ca        1 2NY     -0.199300
     11 CAD         3.5130   -3.5030    5.9790 ca        1 2NY     -0.095000
     12 CAE         3.3240   -4.7430    5.3280 ca        1 2NY     -0.167000
     13 CAG         2.9140   -4.7790    4.0150 ca        1 2NY     -0.075000
     14 C5          2.6740   -3.5820    3.3050 ca        1 2NY     -0.333600
     15 C6          2.2230   -3.5200    1.9180 ca        1 2NY      0.720200
     16 NAC         2.0440   -4.6960    1.1970 nv        1 2NY     -0.943500
     17 H1         -0.4480    0.7420    0.5110 hc        1 2NY      0.041867
     18 H2         -0.2560   -1.0580    0.4330 hc        1 2NY      0.041867
     19 H3         -0.2940   -0.0850   -1.0940 hc        1 2NY      0.041867
     20 H4          1.8250    1.0580   -0.4980 h1        1 2NY      0.057200
     21 H5          2.0240   -0.7380   -0.6610 h1        1 2NY      0.057200
     22 H6          3.2040    1.2750    2.6600 h1        1 2NY      0.057200
     23 H7          2.4640    2.1100    1.2280 h1        1 2NY      0.057200
     24 H8          1.3060    2.6520    3.3540 hc        1 2NY      0.041867
     25 H9          0.1750    1.8170    2.2100 hc        1 2NY      0.041867
     26 H10         0.8720    0.9130    3.6170 hc        1 2NY      0.041867
     27 H11         3.4540   -1.3550    5.8240 ha        1 2NY      0.150000
     28 H12         3.8390   -3.4980    7.0300 ha        1 2NY      0.133000
     29 H13         3.5110   -5.6740    5.8810 ha        1 2NY      0.133000
     30 H14         2.7870   -5.7550    3.5250 ha        1 2NY      0.123000
     31 H15         1.6120   -4.6310    0.3040 hn        1 2NY      0.420800
     32 H16         1.8210   -5.5050    1.7270 hn        1 2NY      0.420800
@<TRIPOS>BOND
     1    1    2 1   
     2    1   17 1   
     3    1   18 1   
     4    1   19 1   
     5    2    3 1   
     6    2   20 1   
     7    2   21 1   
     8    3    4 1   
     9    3    6 1   
    10    4    5 1   
    11    4   22 1   
    12    4   23 1   
    13    5   24 1   
    14    5   25 1   
    15    5   26 1   
    16    6    7 ar  
    17    6    8 ar  
    18    7   15 ar  
    19    8    9 ar  
    20    9   10 ar  
    21    9   14 ar  
    22   10   11 ar  
    23   10   27 1   
    24   11   12 ar  
    25   11   28 1   
    26   12   13 ar  
    27   12   29 1   
    28   13   14 ar  
    29   13   30 1   
    30   14   15 ar  
    31   15   16 1   
    32   16   31 1   
    33   16   32 1   
@<TRIPOS>SUBSTRUCTURE
     1 2NY         1 TEMP              0 ****  ****    0 ROOT
