@<TRIPOS>MOLECULE
2NY
   32    27     1     0     0
SMALL
bcc


@<TRIPOS>ATOM
      1 CAA         1.5410    2.7740   -1.4130 c3        1 2NY     -0.240000
      2 CAH         0.5440    1.8920   -2.1220 c3        1 2NY     -0.021500
      3 NAP        -0.4580    1.4550   -1.1910 n3        1 2NY     -0.239000
      4 CAI        -1.6760    2.1650   -1.0880 c3        1 2NY     -0.021500
      5 CAB        -1.5050    3.3040   -0.1530 c3        1 2NY     -0.240000
      6 C2         -0.3090    0.1840   -0.5180 c1        1 2NY      0.204000
      7 N1         -0.5490   -0.9730   -1.1900 n1        1 2NY     -0.296000
      8 N3          0.1390    0.1440    0.7730 n1        1 2NY     -0.266000
      9 C4          0.3450   -1.0520    1.3860 c1        1 2NY     -0.057000
     10 CAF         0.7980   -1.0910    2.7060 c1        1 2NY     -0.104500
     11 CAD         1.0050   -2.3210    3.3390 c1        1 2NY     -0.131000
     12 CAE         0.7620   -3.5020    2.6570 c1        1 2NY     -0.131000
     13 CAG         0.3140   -3.4650    1.3510 c1        1 2NY     -0.104500
     14 C5          0.1040   -2.2190    0.7090 c1        1 2NY     -0.057000
     15 C6         -0.3410   -2.1810   -0.5730 c1        1 2NY      0.199000
     16 NAC        -0.5670   -3.4210   -1.2980 n2        1 2NY     -0.341000
     17 H1          2.0910    2.2440   -0.8520 hc        1 2NY      0.081167
     18 H2          2.1230    3.2540   -2.1020 hc        1 2NY      0.081167
     19 H3          1.0690    3.4320   -0.8760 hc        1 2NY      0.081167
     20 H4          0.1240    2.3900   -2.8380 h1        1 2NY      0.096500
     21 H5          0.9990    1.1240   -2.4880 h1        1 2NY      0.096500
     22 H6         -1.9430    2.5170   -2.0090 h1        1 2NY      0.096500
     23 H7         -2.3740    1.5700   -0.7530 h1        1 2NY      0.096500
     24 H8         -1.2670    2.9670    0.7280 hc        1 2NY      0.081167
     25 H9         -2.3470    3.8100   -0.0950 hc        1 2NY      0.081167
     26 H10        -0.7810    3.9010   -0.4870 hc        1 2NY      0.081167
     27 H11         0.9660   -0.2800    3.1750 ha        1 2NY      0.136500
     28 H12         1.3190   -2.3470    4.2520 ha        1 2NY      0.133000
     29 H13         0.9100   -4.3730    3.1060 ha        1 2NY      0.133000
     30 H14         0.1500   -4.2650    0.8880 ha        1 2NY      0.136500
     31 H15        -0.6960   -3.4030   -2.1650 hn        1 2NY      0.216000
     32 H16        -0.4910   -4.2330   -0.8590 hn        1 2NY      0.216000
@<TRIPOS>BOND
     1    1    2 1   
     2    1   17 1   
     3    1   18 1   
     4    1   19 1   
     5    2    3 1   
     6    2   20 1   
     7    2   21 1   
     8    3    4 1   
     9    3    6 1   
    10    4    5 1   
    11    4   22 1   
    12    4   23 1   
    13    5   24 1   
    14    5   25 1   
    15    5   26 1   
    16    6    8 1   
    17    7   15 1   
    18    9   10 1   
    19    9   14 1   
    20   10   27 1   
    21   11   12 1   
    22   11   28 1   
    23   12   29 1   
    24   13   14 1   
    25   13   30 1   
    26   16   31 1   
    27   16   32 1   
@<TRIPOS>SUBSTRUCTURE
     1 2NY         1 TEMP              0 ****  ****    0 ROOT
