@<TRIPOS>MOLECULE
2NZ
   23    19     1     0     0
SMALL
bcc


@<TRIPOS>ATOM
      1 CAA        -3.7940    0.7810    0.7030 c3        1 2NZ     -0.203100
      2 C          -2.2770    0.6370    0.7260 c         1 2NZ      0.557100
      3 O          -1.7060    0.4140    1.7760 o         1 2NZ     -0.516100
      4 CA         -1.5130    0.6260   -0.5480 c3        1 2NZ      0.127800
      5 N          -0.0930    0.6780   -0.2590 n3        1 2NZ     -0.477800
      6 CAL         0.9060   -0.2390   -0.2500 c1        1 2NZ      0.027800
      7 CAF         0.9240   -1.6110   -0.5650 c1        1 2NZ     -0.060250
      8 CAD         2.1170   -2.3120   -0.5400 c1        1 2NZ     -0.060250
      9 CAC         3.2950   -1.6610   -0.2040 c1        1 2NZ     -0.060250
     10 CAE         3.2760   -0.3140    0.1050 c1        1 2NZ     -0.060250
     11 CAK         2.0580    0.3980    0.0790 c1        1 2NZ     -0.069000
     12 NAI         1.7720    1.6930    0.2700 n1        1 2NZ     -0.466800
     13 CAG         0.4320    1.8660    0.0590 c1        1 2NZ      0.367600
     14 H1         -4.1730    0.1540    0.0520 hc        1 2NZ      0.071033
     15 H2         -4.0320    1.7000    0.4490 hc        1 2NZ      0.071033
     16 H3         -4.1510    0.5860    1.5830 hc        1 2NZ      0.071033
     17 H4         -1.7660    1.4020   -1.0860 h1        1 2NZ      0.074700
     18 H5         -1.7160   -0.1910   -1.0420 h1        1 2NZ      0.074700
     19 H6          0.1060   -2.0600   -0.7970 ha        1 2NZ      0.078000
     20 H7          2.1280   -3.2450   -0.7540 ha        1 2NZ      0.078000
     21 H8          4.1430   -2.1560   -0.1870 ha        1 2NZ      0.078000
     22 H9          4.1090    0.1490    0.3420 ha        1 2NZ      0.078000
     23 H10        -0.0440    2.7050    0.0890 DU        1 2NZ      0.220000
@<TRIPOS>BOND
     1    1    2 1   
     2    1   14 1   
     3    1   15 1   
     4    1   16 1   
     5    2    3 2   
     6    2    4 1   
     7    4    5 1   
     8    4   17 1   
     9    4   18 1   
    10    5    6 1   
    11    5   13 1   
    12    6   11 3   
    13    7    8 3   
    14    7   19 1   
    15    8   20 1   
    16    9   10 3   
    17    9   21 1   
    18   10   22 1   
    19   12   13 3   
@<TRIPOS>SUBSTRUCTURE
     1 2NZ         1 TEMP              0 ****  ****    0 ROOT
