@<TRIPOS>MOLECULE
2NZ
   23    24     1     0     0
SMALL
bcc


@<TRIPOS>ATOM
      1 CAA         4.1000   -0.7220    0.0050 c3        1 2NZ     -0.203100
      2 C           3.0130    0.2950   -0.1070 c         1 2NZ      0.557100
      3 O           3.1210    1.3230   -0.7790 o         1 2NZ     -0.516100
      4 CA          1.7790   -0.0280    0.7260 c3        1 2NZ     -0.049700
      5 N           0.5380    0.4480    0.2090 na        1 2NZ     -0.182300
      6 CAL        -0.6920   -0.2290    0.2630 ca        1 2NZ     -0.073200
      7 CAF        -1.0650   -1.5000    0.7080 ca        1 2NZ     -0.138000
      8 CAD        -2.4050   -1.8480    0.6010 ca        1 2NZ     -0.113000
      9 CAC        -3.3590   -0.9650    0.0680 ca        1 2NZ     -0.153000
     10 CAE        -3.0110    0.3020   -0.3810 ca        1 2NZ     -0.067000
     11 CAK        -1.6710    0.6940   -0.2910 ca        1 2NZ      0.070400
     12 NAI        -1.0250    1.8960   -0.6590 nc        1 2NZ     -0.568100
     13 CAG         0.2640    1.7200   -0.3490 cd        1 2NZ      0.441700
     14 H1          3.8100   -1.6360   -0.5710 hc        1 2NZ      0.071033
     15 H2          5.0560   -0.3240   -0.4130 hc        1 2NZ      0.071033
     16 H3          4.2580   -1.0070    1.0730 hc        1 2NZ      0.071033
     17 H4          1.7040   -1.1470    0.8460 h1        1 2NZ      0.074700
     18 H5          1.9630    0.4200    1.7500 h1        1 2NZ      0.074700
     19 H6         -0.3300   -2.1990    1.1270 ha        1 2NZ      0.129000
     20 H7         -2.7310   -2.8420    0.9430 ha        1 2NZ      0.131000
     21 H8         -4.4080   -1.2910    0.0050 ha        1 2NZ      0.133000
     22 H9         -3.7640    0.9870   -0.7980 ha        1 2NZ      0.149000
     23 H10         1.0750    2.4450   -0.5210 h5        1 2NZ      0.090800
@<TRIPOS>BOND
     1    1    2 1   
     2    1   14 1   
     3    1   15 1   
     4    1   16 1   
     5    2    3 2   
     6    2    4 1   
     7    4    5 1   
     8    4   17 1   
     9    4   18 1   
    10    5    6 1   
    11    5   13 1   
    12    6    7 ar  
    13    6   11 ar  
    14    7    8 ar  
    15    7   19 1   
    16    8    9 ar  
    17    8   20 1   
    18    9   10 ar  
    19    9   21 1   
    20   10   11 ar  
    21   10   22 1   
    22   11   12 1   
    23   12   13 2   
    24   13   23 1   
@<TRIPOS>SUBSTRUCTURE
     1 2NZ         1 TEMP              0 ****  ****    0 ROOT
