@<TRIPOS>MOLECULE
2NZ
   23    24     1     0     0
SMALL
bcc


@<TRIPOS>ATOM
      1 CAA        -0.0520    0.1750   -0.0560 c3        1 2NZ     -0.203100
      2 C           1.3400    0.6990   -0.1760 c         1 2NZ      0.557100
      3 O           1.7070    1.7580    0.3380 o         1 2NZ     -0.516100
      4 CA          2.2530   -0.1670   -1.0350 c3        1 2NZ     -0.049700
      5 N           3.6350   -0.1520   -0.6840 na        1 2NZ     -0.182300
      6 CAL         4.5080   -1.2530   -0.7210 ca        1 2NZ     -0.073200
      7 CAF         4.3220   -2.6120   -0.9940 ca        1 2NZ     -0.138000
      8 CAD         5.4380   -3.4360   -0.9290 ca        1 2NZ     -0.113000
      9 CAC         6.7090   -2.9350   -0.6040 ca        1 2NZ     -0.153000
     10 CAE         6.9180   -1.5900   -0.3300 ca        1 2NZ     -0.067000
     11 CAK         5.8190   -0.7230   -0.3840 ca        1 2NZ      0.070400
     12 NAI         5.7190    0.6680   -0.1580 nc        1 2NZ     -0.568100
     13 CAG         4.4290    0.9700   -0.3470 cd        1 2NZ      0.441700
     14 H1         -0.4350   -0.1460   -1.0550 hc        1 2NZ      0.071033
     15 H2         -0.0550   -0.7090    0.6310 hc        1 2NZ      0.071033
     16 H3         -0.7320    0.9560    0.3640 hc        1 2NZ      0.071033
     17 H4          2.1250    0.1980   -2.1000 h1        1 2NZ      0.074700
     18 H5          1.8890   -1.2350   -0.9890 h1        1 2NZ      0.074700
     19 H6          3.3340   -3.0150   -1.2490 ha        1 2NZ      0.129000
     20 H7          5.3250   -4.5100   -1.1380 ha        1 2NZ      0.131000
     21 H8          7.5610   -3.6310   -0.5660 ha        1 2NZ      0.133000
     22 H9          7.9160   -1.2060   -0.0750 ha        1 2NZ      0.149000
     23 H10         3.9750    1.9660   -0.2300 h5        1 2NZ      0.090800
@<TRIPOS>BOND
     1    1    2 1   
     2    1   14 1   
     3    1   15 1   
     4    1   16 1   
     5    2    3 2   
     6    2    4 1   
     7    4    5 1   
     8    4   17 1   
     9    4   18 1   
    10    5    6 1   
    11    5   13 1   
    12    6    7 ar  
    13    6   11 ar  
    14    7    8 ar  
    15    7   19 1   
    16    8    9 ar  
    17    8   20 1   
    18    9   10 ar  
    19    9   21 1   
    20   10   11 ar  
    21   10   22 1   
    22   11   12 1   
    23   12   13 2   
    24   13   23 1   
@<TRIPOS>SUBSTRUCTURE
     1 2NZ         1 TEMP              0 ****  ****    0 ROOT
