@<TRIPOS>MOLECULE
2NZ
   23    24     1     0     0
SMALL
bcc


@<TRIPOS>ATOM
      1 CAA        -0.0270    0.2380   -0.0170 c3        1 2NZ     -0.203100
      2 C           1.3780    0.7340   -0.1010 c         1 2NZ      0.557100
      3 O           1.7680    1.7520    0.4750 o         1 2NZ     -0.516100
      4 CA          2.2750   -0.1040   -1.0030 c3        1 2NZ     -0.049700
      5 N           3.6540   -0.1450   -0.6450 na        1 2NZ     -0.182300
      6 CAL         4.4990   -1.2640   -0.7380 ca        1 2NZ     -0.073200
      7 CAF         4.2800   -2.6000   -1.0890 ca        1 2NZ     -0.138000
      8 CAD         5.3750   -3.4550   -1.0640 ca        1 2NZ     -0.113000
      9 CAC         6.6560   -3.0060   -0.7030 ca        1 2NZ     -0.153000
     10 CAE         6.8960   -1.6850   -0.3520 ca        1 2NZ     -0.067000
     11 CAK         5.8210   -0.7880   -0.3640 ca        1 2NZ      0.070400
     12 NAI         5.7540    0.5900   -0.0600 nc        1 2NZ     -0.568100
     13 CAG         4.4740    0.9350   -0.2390 cd        1 2NZ      0.441700
     14 H1         -0.4120   -0.0150   -1.0340 hc        1 2NZ      0.071033
     15 H2         -0.0560   -0.6820    0.6180 hc        1 2NZ      0.071033
     16 H3         -0.6910    1.0110    0.4430 hc        1 2NZ      0.071033
     17 H4          2.1630    0.3250   -2.0450 h1        1 2NZ      0.074700
     18 H5          1.8840   -1.1630   -1.0210 h1        1 2NZ      0.074700
     19 H6          3.2840   -2.9630   -1.3720 ha        1 2NZ      0.129000
     20 H7          5.2360   -4.5130   -1.3340 ha        1 2NZ      0.131000
     21 H8          7.4890   -3.7250   -0.7000 ha        1 2NZ      0.133000
     22 H9          7.9020   -1.3420   -0.0700 ha        1 2NZ      0.149000
     23 H10         4.0450    1.9340   -0.0690 h5        1 2NZ      0.090800
@<TRIPOS>BOND
     1    1    2 1   
     2    1   14 1   
     3    1   15 1   
     4    1   16 1   
     5    2    3 2   
     6    2    4 1   
     7    4    5 1   
     8    4   17 1   
     9    4   18 1   
    10    5    6 1   
    11    5   13 1   
    12    6    7 ar  
    13    6   11 ar  
    14    7    8 ar  
    15    7   19 1   
    16    8    9 ar  
    17    8   20 1   
    18    9   10 ar  
    19    9   21 1   
    20   10   11 ar  
    21   10   22 1   
    22   11   12 1   
    23   12   13 2   
    24   13   23 1   
@<TRIPOS>SUBSTRUCTURE
     1 2NZ         1 TEMP              0 ****  ****    0 ROOT
