@<TRIPOS>MOLECULE
2O0
   26    27     1     0     0
SMALL
bcc


@<TRIPOS>ATOM
      1 CAE        -0.0130    0.1770    0.0110 ca        1 2O0     -0.051000
      2 CAC         1.3770    0.1370    0.0360 ca        1 2O0     -0.138000
      3 CAD         2.0910   -0.0260    1.2320 ca        1 2O0     -0.095000
      4 CAF         1.4460   -0.1530    2.4590 ca        1 2O0     -0.149000
      5 CAM         0.0510   -0.1060    2.4570 ca        1 2O0     -0.087200
      6 CAL        -0.6970    0.0590    1.2240 ca        1 2O0      0.068400
      7 NAJ        -2.0860    0.0500    1.5130 nc        1 2O0     -0.517100
      8 CAG        -2.1820   -0.1060    2.8300 cd        1 2O0      0.412700
      9 NAN        -0.9160   -0.2500    3.4780 na        1 2O0     -0.195300
     10 CAI        -0.6790   -0.1180    4.8680 c3        1 2O0      0.070300
     11 CAH        -0.4870    1.3520    5.3280 c3        1 2O0     -0.206400
     12 CAK        -0.2040    1.3850    6.7920 c         1 2O0      0.557100
     13 OAB        -0.1540    0.4880    7.6120 o         1 2O0     -0.379100
     14 NAA         0.0700    2.7740    7.3660 nz        1 2O0     -0.773400
     15 H1         -0.5660    0.2900   -0.9340 ha        1 2O0      0.166000
     16 H2          1.9350    0.2270   -0.9100 ha        1 2O0      0.152000
     17 H3          3.1920   -0.0650    1.1980 ha        1 2O0      0.146000
     18 H4          2.0150   -0.3080    3.3840 ha        1 2O0      0.128000
     19 H5         -3.1200   -0.1910    3.3940 h5        1 2O0      0.074800
     20 H6         -1.5490   -0.5580    5.4350 h1        1 2O0      0.087200
     21 H7          0.2550   -0.6930    5.1370 h1        1 2O0      0.087200
     22 H8         -1.4170    1.9460    5.1090 hc        1 2O0      0.116200
     23 H9          0.3650    1.8150    4.7580 hc        1 2O0      0.116200
     24 H10         0.2450    2.7110    8.3770 hn        1 2O0      0.470467
     25 H11        -0.7360    3.3850    7.2040 hn        1 2O0      0.470467
     26 HAA3        0.8910    3.1840    6.9110 hn        1 2O0      0.470467
@<TRIPOS>BOND
     1    1    2 ar  
     2    1    6 ar  
     3    1   15 1   
     4    2    3 ar  
     5    2   16 1   
     6    3    4 ar  
     7    3   17 1   
     8    4    5 ar  
     9    4   18 1   
    10    5    6 ar  
    11    5    9 1   
    12    6    7 1   
    13    7    8 2   
    14    8    9 1   
    15    8   19 1   
    16    9   10 1   
    17   10   11 1   
    18   10   20 1   
    19   10   21 1   
    20   11   12 1   
    21   11   22 1   
    22   11   23 1   
    23   12   13 2   
    24   12   14 1   
    25   14   24 1   
    26   14   25 1   
    27   14   26 1   
@<TRIPOS>SUBSTRUCTURE
     1 2O0         1 TEMP              0 ****  ****    0 ROOT
