@<TRIPOS>MOLECULE
2O0
   25    19     1     0     0
SMALL
bcc


@<TRIPOS>ATOM
      1 CAE         0.5310   -0.3880   -3.6280 c1        1 2O0     -0.101500
      2 CAC         1.9190   -0.3560   -3.5600 c1        1 2O0     -0.133500
      3 CAD         2.5550   -0.3580   -2.3200 c1        1 2O0     -0.133500
      4 CAF         1.8040   -0.3930   -1.1560 c1        1 2O0     -0.101500
      5 CAM         0.3820   -0.4260   -1.2260 c1        1 2O0     -0.052000
      6 CAL        -0.2390   -0.4240   -2.4340 c1        1 2O0     -0.052000
      7 NAJ        -1.5720   -0.4180   -2.2170 n1        1 2O0     -0.169500
      8 CAG        -1.7800   -0.4170   -0.8710 c1        1 2O0     -0.035000
      9 NAN        -0.5750   -0.4220   -0.2630 n1        1 2O0     -0.169500
     10 CAI        -0.6000   -0.6360    1.1650 c2        1 2O0     -0.004000
     11 CAH        -0.7850    0.7030    1.8750 c3        1 2O0     -0.211000
     12 CAK        -0.7950    0.4860    3.3700 c2        1 2O0      0.302000
     13 OAB        -0.5130   -0.6020    3.8270 o         1 2O0     -0.376000
     14 NAA        -1.0170    1.5730    4.2330 n         1 2O0     -0.435000
     15 H1          0.0780   -0.3860   -4.5120 ha        1 2O0      0.141500
     16 H2          2.4500   -0.3310   -4.3830 ha        1 2O0      0.132500
     17 H3          3.5420   -0.3360   -2.2710 ha        1 2O0      0.132500
     18 H4          2.2440   -0.3940   -0.3010 ha        1 2O0      0.141500
     19 H5         -2.6440   -0.4540   -0.4260 DU        1 2O0      0.198000
     20 H6          0.2540   -1.0470    1.4540 ha        1 2O0      0.120000
     21 H7         -1.3470   -1.2350    1.3940 ha        1 2O0      0.120000
     22 H8         -0.0470    1.3000    1.6380 hc        1 2O0      0.114500
     23 H9         -1.6500    1.1130    1.5910 hc        1 2O0      0.114500
     24 H10        -1.3640    1.4330    5.0620 hn        1 2O0      0.228000
     25 H11        -0.8290    2.4150    3.9580 hn        1 2O0      0.228000
@<TRIPOS>BOND
     1    1    6 1   
     2    1   15 1   
     3    2    3 1   
     4    2   16 1   
     5    3   17 1   
     6    4    5 1   
     7    4   18 1   
     8    7    8 1   
     9    8    9 1   
    10   10   11 1   
    11   10   20 1   
    12   10   21 1   
    13   11   12 1   
    14   11   22 1   
    15   11   23 1   
    16   12   13 1   
    17   12   14 1   
    18   14   24 1   
    19   14   25 1   
@<TRIPOS>SUBSTRUCTURE
     1 2O0         1 TEMP              0 ****  ****    0 ROOT
