@<TRIPOS>MOLECULE
2O0
   26    27     1     0     0
SMALL
bcc


@<TRIPOS>ATOM
      1 CAE        -0.0110    0.2050    0.0070 ca        1 2O0     -0.051000
      2 CAC         1.3780    0.1520    0.0340 ca        1 2O0     -0.138000
      3 CAD         2.0880   -0.0270    1.2310 ca        1 2O0     -0.095000
      4 CAF         1.4400   -0.1570    2.4550 ca        1 2O0     -0.149000
      5 CAM         0.0460   -0.0980    2.4520 ca        1 2O0     -0.087200
      6 CAL        -0.6980    0.0840    1.2190 ca        1 2O0      0.068400
      7 NAJ        -2.0880    0.0850    1.5050 nc        1 2O0     -0.517100
      8 CAG        -2.1870   -0.0810    2.8210 cd        1 2O0      0.412700
      9 NAN        -0.9240   -0.2410    3.4700 na        1 2O0     -0.195300
     10 CAI        -0.6880   -0.1210    4.8610 c3        1 2O0      0.070300
     11 CAH        -0.4840    1.3440    5.3320 c3        1 2O0     -0.206400
     12 CAK        -0.2040    1.3640    6.7970 c         1 2O0      0.557100
     13 OAB        -0.1670    0.4610    7.6110 o         1 2O0     -0.379100
     14 NAA         0.0860    2.7450    7.3810 n4        1 2O0     -0.773400
     15 H1         -0.5620    0.3290   -0.9380 ha        1 2O0      0.166000
     16 H2          1.9390    0.2440   -0.9100 ha        1 2O0      0.152000
     17 H3          3.1890   -0.0750    1.1980 ha        1 2O0      0.146000
     18 H4          2.0070   -0.3240    3.3800 ha        1 2O0      0.128000
     19 H5         -3.1270   -0.1610    3.3820 h5        1 2O0      0.074800
     20 H6         -1.5640   -0.5560    5.4230 h1        1 2O0      0.087200
     21 H7          0.2400   -0.7060    5.1280 h1        1 2O0      0.087200
     22 H8         -1.4080    1.9480    5.1160 hc        1 2O0      0.116200
     23 H9          0.3740    1.8040    4.7670 hc        1 2O0      0.116200
     24 H10         0.2560    2.6740    8.3930 hn        1 2O0      0.470467
     25 H11        -0.7120    3.3670    7.2210 hn        1 2O0      0.470467
     26 HAA3        0.9130    3.1480    6.9320 hn        1 2O0      0.470467
@<TRIPOS>BOND
     1    1    2 ar  
     2    1    6 ar  
     3    1   15 1   
     4    2    3 ar  
     5    2   16 1   
     6    3    4 ar  
     7    3   17 1   
     8    4    5 ar  
     9    4   18 1   
    10    5    6 ar  
    11    5    9 1   
    12    6    7 1   
    13    7    8 2   
    14    8    9 1   
    15    8   19 1   
    16    9   10 1   
    17   10   11 1   
    18   10   20 1   
    19   10   21 1   
    20   11   12 1   
    21   11   22 1   
    22   11   23 1   
    23   12   13 2   
    24   12   14 1   
    25   14   24 1   
    26   14   25 1   
    27   14   26 1   
@<TRIPOS>SUBSTRUCTURE
     1 2O0         1 TEMP              0 ****  ****    0 ROOT
