@<TRIPOS>MOLECULE
2O0
   26    27     1     0     0
SMALL
bcc


@<TRIPOS>ATOM
      1 CAE        -0.0130    0.1890    0.0090 ca        1 2O0     -0.051000
      2 CAC         1.3770    0.1420    0.0350 ca        1 2O0     -0.138000
      3 CAD         2.0890   -0.0300    1.2310 ca        1 2O0     -0.095000
      4 CAF         1.4430   -0.1570    2.4570 ca        1 2O0     -0.149000
      5 CAM         0.0490   -0.1030    2.4550 ca        1 2O0     -0.087200
      6 CAL        -0.6980    0.0710    1.2220 ca        1 2O0      0.068400
      7 NAJ        -2.0870    0.0680    1.5100 nc        1 2O0     -0.517100
      8 CAG        -2.1840   -0.0930    2.8260 cd        1 2O0      0.412700
      9 NAN        -0.9200   -0.2450    3.4750 na        1 2O0     -0.195300
     10 CAI        -0.6830   -0.1180    4.8650 c3        1 2O0      0.070300
     11 CAH        -0.4850    1.3490    5.3300 c3        1 2O0     -0.206400
     12 CAK        -0.2000    1.3760    6.7940 c         1 2O0      0.557100
     13 OAB        -0.1520    0.4750    7.6100 o         1 2O0     -0.379100
     14 NAA         0.0760    2.7620    7.3730 n4        1 2O0     -0.773400
     15 H1         -0.5650    0.3080   -0.9360 ha        1 2O0      0.166000
     16 H2          1.9360    0.2320   -0.9110 ha        1 2O0      0.152000
     17 H3          3.1890   -0.0740    1.1970 ha        1 2O0      0.146000
     18 H4          2.0110   -0.3190    3.3820 ha        1 2O0      0.128000
     19 H5         -3.1230   -0.1740    3.3890 h5        1 2O0      0.074800
     20 H6         -1.5550   -0.5560    5.4300 h1        1 2O0      0.087200
     21 H7          0.2480   -0.6990    5.1330 h1        1 2O0      0.087200
     22 H8          0.3700    1.8100    4.7610 hc        1 2O0      0.116200
     23 H9         -1.4120    1.9480    5.1130 hc        1 2O0      0.116200
     24 H10         0.8970    3.1730    6.9190 hn        1 2O0      0.470467
     25 H11         0.2530    2.6950    8.3840 hn        1 2O0      0.470467
     26 HAA3       -0.7290    3.3740    7.2150 hn        1 2O0      0.470467
@<TRIPOS>BOND
     1    1    2 ar  
     2    1    6 ar  
     3    1   15 1   
     4    2    3 ar  
     5    2   16 1   
     6    3    4 ar  
     7    3   17 1   
     8    4    5 ar  
     9    4   18 1   
    10    5    6 ar  
    11    5    9 1   
    12    6    7 1   
    13    7    8 2   
    14    8    9 1   
    15    8   19 1   
    16    9   10 1   
    17   10   11 1   
    18   10   20 1   
    19   10   21 1   
    20   11   12 1   
    21   11   22 1   
    22   11   23 1   
    23   12   13 2   
    24   12   14 1   
    25   14   24 1   
    26   14   25 1   
    27   14   26 1   
@<TRIPOS>SUBSTRUCTURE
     1 2O0         1 TEMP              0 ****  ****    0 ROOT
