@<TRIPOS>MOLECULE
2O0
   25    26     1     0     0
SMALL
bcc


@<TRIPOS>ATOM
      1 CAE         3.5420    0.0940    0.4200 ca        1 2O0     -0.068000
      2 CAC         3.6470   -1.2750    0.2230 ca        1 2O0     -0.154000
      3 CAD         2.5530   -2.0490   -0.1990 ca        1 2O0     -0.113000
      4 CAF         1.3070   -1.4850   -0.4390 ca        1 2O0     -0.135000
      5 CAM         1.1750   -0.1070   -0.2420 ca        1 2O0     -0.073200
      6 CAL         2.3020    0.7040    0.1930 ca        1 2O0      0.063400
      7 NAJ         1.8920    2.0520    0.3020 nc        1 2O0     -0.564100
      8 CAG         0.5990    2.0590   -0.0430 cd        1 2O0      0.420700
      9 NAN         0.1030    0.7860   -0.4100 na        1 2O0     -0.176300
     10 CAI        -1.2580    0.4510   -0.6830 c3        1 2O0      0.055300
     11 CAH        -2.0720    0.0450    0.5510 c3        1 2O0     -0.182400
     12 CAK        -3.5020   -0.2440    0.1390 c         1 2O0      0.658100
     13 OAB        -3.9110   -0.0590   -1.0260 o         1 2O0     -0.615100
     14 NAA        -4.3580   -0.7200    1.1000 n         1 2O0     -0.675000
     15 H1          4.4040    0.6940    0.7450 ha        1 2O0      0.148000
     16 H2          4.6130   -1.7730    0.3970 ha        1 2O0      0.133000
     17 H3          2.6890   -3.1320   -0.3450 ha        1 2O0      0.132000
     18 H4          0.4590   -2.0950   -0.7760 ha        1 2O0      0.135000
     19 H5         -0.0410    2.9500   -0.0810 h5        1 2O0      0.068800
     20 H6         -1.7570    1.3390   -1.1690 h1        1 2O0      0.080700
     21 H7         -1.2780   -0.4030   -1.4210 h1        1 2O0      0.080700
     22 H8         -1.6220   -0.8640    1.0290 hc        1 2O0      0.075200
     23 H9         -2.0700    0.8700    1.3110 hc        1 2O0      0.075200
     24 H10        -4.0540   -0.8760    2.0250 hn        1 2O0      0.314500
     25 H11        -5.2990   -0.9160    0.8630 hn        1 2O0      0.314500
@<TRIPOS>BOND
     1    1    2 ar  
     2    1    6 ar  
     3    1   15 1   
     4    2    3 ar  
     5    2   16 1   
     6    3    4 ar  
     7    3   17 1   
     8    4    5 ar  
     9    4   18 1   
    10    5    6 ar  
    11    5    9 1   
    12    6    7 1   
    13    7    8 2   
    14    8    9 1   
    15    8   19 1   
    16    9   10 1   
    17   10   11 1   
    18   10   20 1   
    19   10   21 1   
    20   11   12 1   
    21   11   22 1   
    22   11   23 1   
    23   12   13 2   
    24   12   14 1   
    25   14   24 1   
    26   14   25 1   
@<TRIPOS>SUBSTRUCTURE
     1 2O0         1 TEMP              0 ****  ****    0 ROOT
