@<TRIPOS>MOLECULE
2O1
   25    21     1     0     0
SMALL
bcc


@<TRIPOS>ATOM
      1 OAA        -3.4650    0.7860    1.4790 o         1 2O1     -0.304000
      2 CAK        -2.2480    0.7860    1.4790 c1        1 2O1      0.289000
      3 CAH        -1.5420    0.7860    2.7020 c3        1 2O1     -0.219000
      4 CAG        -0.1410    1.1970    2.5480 c3        1 2O1     -0.026000
      5 NAI         0.6090    0.5360    1.6140 n3        1 2O1     -0.304000
      6 CAM        -0.0590    0.1620    0.3150 c1        1 2O1      0.189000
      7 CAL        -1.4730    0.3680    0.2020 c1        1 2O1     -0.310000
      8 CAF        -2.1190    0.1010   -0.9990 c1        1 2O1      0.030000
      9 NAJ        -1.3970   -0.3650   -2.0870 n1        1 2O1     -0.175000
     10 CAN         0.0090   -0.5710   -1.9780 c1        1 2O1      0.050000
     11 CAO         0.6620   -0.3050   -0.7790 c1        1 2O1     -0.135000
     12 CAE         2.0460   -0.5230   -0.6710 c1        1 2O1     -0.101000
     13 CAC         2.7630   -1.0050   -1.7640 c1        1 2O1     -0.124500
     14 CAB         2.1070   -1.2730   -2.9700 c1        1 2O1     -0.124500
     15 CAD         0.7350   -1.0570   -3.0790 c1        1 2O1     -0.112000
     16 H1         -1.7260   -0.0120    3.2340 hc        1 2O1      0.122500
     17 H2         -1.9400    1.4640    3.2800 hc        1 2O1      0.122500
     18 H3         -0.1310    2.1460    2.3210 h1        1 2O1      0.086500
     19 H4          0.2980    1.0900    3.4140 h1        1 2O1      0.086500
     20 H5          0.9780   -0.2080    1.9920 hn        1 2O1      0.226000
     21 H6         -3.0810    0.2470   -1.0790 ha        1 2O1      0.181000
     22 H7          2.5050   -0.3370    0.1700 ha        1 2O1      0.123000
     23 H8          3.7250   -1.1570   -1.6880 ha        1 2O1      0.137000
     24 H9          2.6100   -1.6110   -3.7350 ha        1 2O1      0.137000
     25 H10         0.2770   -1.2440   -3.9210 ha        1 2O1      0.155000
@<TRIPOS>BOND
     1    1    2 1   
     2    2    3 1   
     3    3    4 1   
     4    3   16 1   
     5    3   17 1   
     6    4    5 1   
     7    4   18 1   
     8    4   19 1   
     9    5    6 1   
    10    5   20 1   
    11    6   11 1   
    12    7    8 1   
    13    8   21 1   
    14    9   10 1   
    15   10   15 1   
    16   11   12 1   
    17   12   22 1   
    18   13   14 1   
    19   13   23 1   
    20   14   24 1   
    21   15   25 1   
@<TRIPOS>SUBSTRUCTURE
     1 2O1         1 TEMP              0 ****  ****    0 ROOT
