@<TRIPOS>MOLECULE
2O1
   25    27     1     0     0
SMALL
bcc


@<TRIPOS>ATOM
      1 OAA        -3.3450   -1.5530   -0.1060 o         1 2O1     -0.543100
      2 CAK        -2.6230   -0.5580    0.0410 c         1 2O1      0.598700
      3 CAH        -3.2200    0.7980    0.3100 c3        1 2O1     -0.190400
      4 CAG        -2.3630    1.9310   -0.2380 c3        1 2O1      0.210800
      5 NAI        -0.9580    1.7930    0.0580 nh        1 2O1     -0.748600
      6 CAM        -0.3720    0.5440    0.0190 ca        1 2O1      0.270600
      7 CAL        -1.1620   -0.6180    0.0130 ca        1 2O1     -0.395900
      8 CAF        -0.5120   -1.8910   -0.0080 ca        1 2O1      0.495200
      9 NAJ         0.7920   -2.0690   -0.0120 nb        1 2O1     -0.701000
     10 CAN         1.5970   -0.9420    0.0120 ca        1 2O1      0.443600
     11 CAO         1.0700    0.3860    0.0310 ca        1 2O1     -0.200300
     12 CAE         1.9680    1.4820    0.0650 ca        1 2O1     -0.101000
     13 CAC         3.3290    1.2810    0.0710 ca        1 2O1     -0.142000
     14 CAB         3.8550   -0.0280    0.0440 ca        1 2O1     -0.107000
     15 CAD         3.0180   -1.1160    0.0160 ca        1 2O1     -0.177300
     16 H1         -4.2430    0.8640   -0.1450 hc        1 2O1      0.083200
     17 H2         -3.3340    0.8990    1.4230 hc        1 2O1      0.083200
     18 H3         -2.5180    1.9960   -1.3560 h1        1 2O1      0.047200
     19 H4         -2.7090    2.9050    0.2130 h1        1 2O1      0.047200
     20 H5         -0.3920    2.5790   -0.1690 hn        1 2O1      0.430800
     21 H6         -1.1460   -2.8010   -0.0250 h4        1 2O1      0.044100
     22 H7          1.5920    2.5150    0.0990 ha        1 2O1      0.123000
     23 H8          4.0190    2.1380    0.0990 ha        1 2O1      0.136000
     24 H9          4.9470   -0.1670    0.0470 ha        1 2O1      0.138000
     25 H10         3.4260   -2.1390   -0.0010 ha        1 2O1      0.155000
@<TRIPOS>BOND
     1    1    2 2   
     2    2    3 1   
     3    2    7 1   
     4    3    4 1   
     5    3   16 1   
     6    3   17 1   
     7    4    5 1   
     8    4   18 1   
     9    4   19 1   
    10    5    6 1   
    11    5   20 1   
    12    6    7 ar  
    13    6   11 ar  
    14    7    8 ar  
    15    8    9 ar  
    16    8   21 1   
    17    9   10 ar  
    18   10   11 ar  
    19   10   15 ar  
    20   11   12 ar  
    21   12   13 ar  
    22   12   22 1   
    23   13   14 ar  
    24   13   23 1   
    25   14   15 ar  
    26   14   24 1   
    27   15   25 1   
@<TRIPOS>SUBSTRUCTURE
     1 2O1         1 TEMP              0 ****  ****    0 ROOT
