@<TRIPOS>MOLECULE
2O1
   25    27     1     0     0
SMALL
bcc


@<TRIPOS>ATOM
      1 OAA        -0.0930   -0.0390   -0.0450 o         1 2O1     -0.543100
      2 CAK         1.1440    0.0040   -0.0240 c         1 2O1      0.598700
      3 CAH         1.8960   -0.0080    1.2800 c3        1 2O1     -0.190400
      4 CAG         3.2180    0.7450    1.1960 c3        1 2O1      0.210800
      5 NAI         3.9920    0.4300    0.0210 nh        1 2O1     -0.748600
      6 CAM         3.3520    0.2350   -1.1860 ca        1 2O1      0.270600
      7 CAL         1.9640    0.0230   -1.2350 ca        1 2O1     -0.395900
      8 CAF         1.3460   -0.1940   -2.5050 ca        1 2O1      0.495200
      9 NAJ         1.9830   -0.2220   -3.6560 nb        1 2O1     -0.701000
     10 CAN         3.3550   -0.0330   -3.6390 ca        1 2O1      0.443600
     11 CAO         4.0900    0.1970   -2.4350 ca        1 2O1     -0.200300
     12 CAE         5.4950    0.3700   -2.5090 ca        1 2O1     -0.101000
     13 CAC         6.1500    0.3290   -3.7170 ca        1 2O1     -0.142000
     14 CAB         5.4280    0.1110   -4.9100 ca        1 2O1     -0.107000
     15 CAD         4.0680   -0.0670   -4.8800 ca        1 2O1     -0.177300
     16 H1          2.0760   -1.0820    1.5540 hc        1 2O1      0.083200
     17 H2          1.2690    0.4500    2.0890 hc        1 2O1      0.083200
     18 H3          3.8470    0.4830    2.0950 h1        1 2O1      0.047200
     19 H4          3.0070    1.8550    1.2350 h1        1 2O1      0.047200
     20 H5          4.9150    0.8010    0.0030 hn        1 2O1      0.430800
     21 H6          0.2480   -0.3490   -2.5330 h4        1 2O1      0.044100
     22 H7          6.0890    0.5300   -1.5970 ha        1 2O1      0.123000
     23 H8          7.2410    0.4630   -3.7650 ha        1 2O1      0.136000
     24 H9          5.9720    0.0830   -5.8680 ha        1 2O1      0.138000
     25 H10         3.5020   -0.2410   -5.8100 ha        1 2O1      0.155000
@<TRIPOS>BOND
     1    1    2 2   
     2    2    3 1   
     3    2    7 1   
     4    3    4 1   
     5    3   16 1   
     6    3   17 1   
     7    4    5 1   
     8    4   18 1   
     9    4   19 1   
    10    5    6 1   
    11    5   20 1   
    12    6    7 ar  
    13    6   11 ar  
    14    7    8 ar  
    15    8    9 ar  
    16    8   21 1   
    17    9   10 ar  
    18   10   11 ar  
    19   10   15 ar  
    20   11   12 ar  
    21   12   13 ar  
    22   12   22 1   
    23   13   14 ar  
    24   13   23 1   
    25   14   15 ar  
    26   14   24 1   
    27   15   25 1   
@<TRIPOS>SUBSTRUCTURE
     1 2O1         1 TEMP              0 ****  ****    0 ROOT
