@<TRIPOS>MOLECULE
2O1
   25    27     1     0     0
SMALL
bcc


@<TRIPOS>ATOM
      1 OAA        -0.0940   -0.0370   -0.0470 o         1 2O1     -0.543100
      2 CAK         1.1430    0.0020   -0.0250 c         1 2O1      0.598700
      3 CAH         1.8950   -0.0210    1.2780 c3        1 2O1     -0.190400
      4 CAG         3.2200    0.7270    1.2000 c3        1 2O1      0.210800
      5 NAI         3.9930    0.4180    0.0220 nu        1 2O1     -0.748600
      6 CAM         3.3520    0.2330   -1.1860 ca        1 2O1      0.270600
      7 CAL         1.9630    0.0260   -1.2360 ca        1 2O1     -0.395900
      8 CAF         1.3450   -0.1810   -2.5070 ca        1 2O1      0.495200
      9 NAJ         1.9820   -0.2030   -3.6590 nb        1 2O1     -0.701000
     10 CAN         3.3550   -0.0190   -3.6400 ca        1 2O1      0.443600
     11 CAO         4.0900    0.2000   -2.4350 ca        1 2O1     -0.200300
     12 CAE         5.4950    0.3680   -2.5070 ca        1 2O1     -0.101000
     13 CAC         6.1510    0.3330   -3.7160 ca        1 2O1     -0.142000
     14 CAB         5.4280    0.1250   -4.9110 ca        1 2O1     -0.107000
     15 CAD         4.0670   -0.0480   -4.8820 ca        1 2O1     -0.177300
     16 H1          2.0710   -1.0980    1.5450 hc        1 2O1      0.083200
     17 H2          1.2700    0.4340    2.0900 hc        1 2O1      0.083200
     18 H3          3.0130    1.8380    1.2460 h1        1 2O1      0.047200
     19 H4          3.8480    0.4580    2.0970 h1        1 2O1      0.047200
     20 H5          4.9170    0.7860    0.0070 hn        1 2O1      0.430800
     21 H6          0.2460   -0.3320   -2.5370 h4        1 2O1      0.044100
     22 H7          6.0900    0.5200   -1.5950 ha        1 2O1      0.123000
     23 H8          7.2420    0.4630   -3.7630 ha        1 2O1      0.136000
     24 H9          5.9710    0.1020   -5.8680 ha        1 2O1      0.138000
     25 H10         3.5010   -0.2140   -5.8130 ha        1 2O1      0.155000
@<TRIPOS>BOND
     1    1    2 2   
     2    2    3 1   
     3    2    7 1   
     4    3    4 1   
     5    3   16 1   
     6    3   17 1   
     7    4    5 1   
     8    4   18 1   
     9    4   19 1   
    10    5    6 1   
    11    5   20 1   
    12    6    7 ar  
    13    6   11 ar  
    14    7    8 ar  
    15    8    9 ar  
    16    8   21 1   
    17    9   10 ar  
    18   10   11 ar  
    19   10   15 ar  
    20   11   12 ar  
    21   12   13 ar  
    22   12   22 1   
    23   13   14 ar  
    24   13   23 1   
    25   14   15 ar  
    26   14   24 1   
    27   15   25 1   
@<TRIPOS>SUBSTRUCTURE
     1 2O1         1 TEMP              0 ****  ****    0 ROOT
