@<TRIPOS>MOLECULE
2O1
   25    27     1     0     0
SMALL
bcc


@<TRIPOS>ATOM
      1 OAA        -0.0920   -0.0500   -0.0360 o         1 2O1     -0.543100
      2 CAK         1.1450   -0.0050   -0.0170 c         1 2O1      0.598700
      3 CAH         1.9000   -0.0220    1.2860 c3        1 2O1     -0.190400
      4 CAG         3.2210    0.7320    1.2040 c3        1 2O1      0.210800
      5 NAI         3.9940    0.4230    0.0260 nh        1 2O1     -0.748600
      6 CAM         3.3520    0.2320   -1.1810 ca        1 2O1      0.270600
      7 CAL         1.9630    0.0190   -1.2280 ca        1 2O1     -0.395900
      8 CAF         1.3440   -0.1940   -2.4980 ca        1 2O1      0.495200
      9 NAJ         1.9800   -0.2170   -3.6510 nb        1 2O1     -0.701000
     10 CAN         3.3520   -0.0270   -3.6350 ca        1 2O1      0.443600
     11 CAO         4.0880    0.1980   -2.4310 ca        1 2O1     -0.200300
     12 CAE         5.4920    0.3720   -2.5060 ca        1 2O1     -0.101000
     13 CAC         6.1460    0.3370   -3.7160 ca        1 2O1     -0.142000
     14 CAB         5.4230    0.1230   -4.9090 ca        1 2O1     -0.107000
     15 CAD         4.0620   -0.0560   -4.8770 ca        1 2O1     -0.177300
     16 H1          2.0810   -1.0970    1.5560 hc        1 2O1      0.083200
     17 H2          1.2740    0.4320    2.0980 hc        1 2O1      0.083200
     18 H3          3.0100    1.8420    1.2470 h1        1 2O1      0.047200
     19 H4          3.8520    0.4670    2.1000 h1        1 2O1      0.047200
     20 H5          4.9160    0.7940    0.0080 hn        1 2O1      0.430800
     21 H6          0.2460   -0.3490   -2.5250 h4        1 2O1      0.044100
     22 H7          6.0880    0.5290   -1.5950 ha        1 2O1      0.123000
     23 H8          7.2360    0.4720   -3.7650 ha        1 2O1      0.136000
     24 H9          5.9640    0.1000   -5.8670 ha        1 2O1      0.138000
     25 H10         3.4950   -0.2270   -5.8070 ha        1 2O1      0.155000
@<TRIPOS>BOND
     1    1    2 2   
     2    2    3 1   
     3    2    7 1   
     4    3    4 1   
     5    3   16 1   
     6    3   17 1   
     7    4    5 1   
     8    4   18 1   
     9    4   19 1   
    10    5    6 1   
    11    5   20 1   
    12    6    7 ar  
    13    6   11 ar  
    14    7    8 ar  
    15    8    9 ar  
    16    8   21 1   
    17    9   10 ar  
    18   10   11 ar  
    19   10   15 ar  
    20   11   12 ar  
    21   12   13 ar  
    22   12   22 1   
    23   13   14 ar  
    24   13   23 1   
    25   14   15 ar  
    26   14   24 1   
    27   15   25 1   
@<TRIPOS>SUBSTRUCTURE
     1 2O1         1 TEMP              0 ****  ****    0 ROOT
