@<TRIPOS>MOLECULE
2O2
   49    51     1     0     0
SMALL
bcc


@<TRIPOS>ATOM
      1 CAV        -0.4090    2.0480    1.3980 ca        1 2O2     -0.170500
      2 CAW         0.7520    2.7550    1.6770 ca        1 2O2     -0.125500
      3 CAX         1.6720    2.2760    2.6120 ca        1 2O2     -0.244000
      4 CAY         1.4060    1.0720    3.2690 ca        1 2O2     -0.125500
      5 CAZ         0.2490    0.3560    2.9980 ca        1 2O2     -0.170500
      6 CAU        -0.6900    0.8260    2.0520 ca        1 2O2      0.070000
      7 CAB        -1.9760    0.1820    1.8890 c2        1 2O2     -0.292000
      8 PAA        -4.0340    0.4840    2.9600 p3        1 2O2      2.527000
      9 OBB        -4.3000    1.9070    2.6100 o         1 2O2     -1.195667
     10 OBC        -4.8770   -0.5460    2.2940 o         1 2O2     -1.195667
     11 OBA        -3.6450    0.2310    4.3750 o         1 2O2     -1.195667
     12 OAH        -2.1240   -1.1420    2.2760 os        1 2O2     -0.207000
     13 OAD        -2.7010    0.4120    0.7320 os        1 2O2     -0.213000
     14 CAC        -2.2300   -0.3250   -0.3990 c3        1 2O2     -0.053000
     15 CAE        -2.3370   -1.8200   -0.1170 c3        1 2O2     -0.019000
     16 OAF        -1.5010   -2.5640   -1.0270 os        1 2O2     -0.308000
     17 CAG        -1.8750   -2.1550    1.3170 c3        1 2O2      0.006000
     18 CAI        -0.4140   -2.5760    1.1110 c3        1 2O2     -0.219000
     19 CAJ        -0.4560   -3.2410   -0.2870 c3        1 2O2      0.164000
     20 N1          0.8090   -3.2560   -1.0180 n         1 2O2     -0.264000
     21 C6          0.8670   -2.8470   -2.3630 c2        1 2O2     -0.053000
     22 C2          1.7320   -4.2860   -0.6470 c2        1 2O2      0.377000
     23 O2          1.4760   -5.0580    0.3180 o         1 2O2     -0.462000
     24 N3          2.9780   -4.3320   -1.2840 ns        1 2O2     -0.327000
     25 C4          3.2250   -3.4960   -2.4310 c2        1 2O2      0.445000
     26 O4          4.3830   -3.1000   -2.6260 o         1 2O2     -0.365000
     27 C5          2.0010   -2.9820   -3.1060 c2        1 2O2     -0.101000
     28 CAR         2.0220   -2.7750   -4.5480 c2        1 2O2     -0.141000
     29 CAS         2.4300   -3.6320   -5.4810 c2        1 2O2     -0.617000
     30 PBD         3.0970   -5.2730   -5.3400 p5        1 2O2      1.646500
     31 OBF         2.0060   -6.1700   -5.8740 o         1 2O2     -0.945500
     32 OBG         4.3270   -5.2450   -6.2180 o         1 2O2     -0.945500
     33 OBE         3.3560   -5.3900   -3.8370 o         1 2O2     -0.945500
     34 H1         -1.1470    2.4290    0.6770 ha        1 2O2      0.135500
     35 H2          0.9530    3.7010    1.1550 ha        1 2O2      0.077000
     36 H3          2.5910    2.8330    2.8240 ha        1 2O2      0.073000
     37 H4          2.1270    0.6860    4.0040 ha        1 2O2      0.077000
     38 H5          0.0290   -0.5860    3.5210 ha        1 2O2      0.135500
     39 H8         -2.9040   -0.0260   -1.2400 h1        1 2O2      0.068500
     40 H9         -1.1700   -0.0450   -0.6350 h1        1 2O2      0.068500
     41 H10        -3.3830   -2.1790   -0.2970 h1        1 2O2      0.108000
     42 H11        -2.4680   -3.0260    1.7140 h1        1 2O2      0.095000
     43 H12        -0.0710   -3.3090    1.8750 hc        1 2O2      0.107000
     44 H13         0.2550   -1.6820    1.1380 hc        1 2O2      0.107000
     45 H14        -0.8040   -4.3160   -0.1740 h2        1 2O2      0.083000
     46 H15        -0.0630   -2.4130   -2.7680 h4        1 2O2      0.159000
     47 H16         3.3980   -5.2390   -1.3570 hn        1 2O2      0.263000
     48 H17         1.6120   -1.7830   -4.8280 ha        1 2O2      0.038000
     49 H18         2.3600   -3.3140   -6.5330 ha        1 2O2      0.071000
@<TRIPOS>BOND
     1    1    2 1   
     2    1    6 1   
     3    1   34 1   
     4    2    3 1   
     5    2   35 1   
     6    3    4 1   
     7    3   36 1   
     8    4    5 1   
     9    4   37 1   
    10    5    6 1   
    11    5   38 1   
    12    6    7 1   
    13    7   12 1   
    14    7   13 1   
    15    8    9 1   
    16    8   10 1   
    17    8   11 1   
    18   12   17 1   
    19   13   14 1   
    20   14   15 1   
    21   14   39 1   
    22   14   40 1   
    23   15   16 1   
    24   15   17 1   
    25   15   41 1   
    26   16   19 1   
    27   17   18 1   
    28   17   42 1   
    29   18   19 1   
    30   18   43 1   
    31   18   44 1   
    32   19   20 1   
    33   19   45 1   
    34   20   21 1   
    35   20   22 1   
    36   21   27 1   
    37   21   46 1   
    38   22   23 1   
    39   22   24 1   
    40   24   25 1   
    41   24   47 1   
    42   25   26 1   
    43   25   27 1   
    44   27   28 1   
    45   28   29 1   
    46   28   48 1   
    47   29   30 1   
    48   29   49 1   
    49   30   31 1   
    50   30   32 1   
    51   30   33 1   
@<TRIPOS>SUBSTRUCTURE
     1 2O2         1 TEMP              0 ****  ****    0 ROOT
