@<TRIPOS>MOLECULE
2O3
   55    58     1     0     0
SMALL
bcc


@<TRIPOS>ATOM
      1 CAS         0.0290    0.9960    0.7500 c3        1 2O3      0.205800
      2 CAT         1.5450    0.9720    0.9030 c3        1 2O3     -0.082400
      3 CAU         1.9330    0.1980    2.1420 c3        1 2O3     -0.036100
      4 CAV         1.2450   -1.1200    2.2010 ca        1 2O3     -0.115300
      5 CBA         1.8300   -2.1570    2.9300 ca        1 2O3     -0.091000
      6 CAZ         1.2200   -3.4050    3.0250 ca        1 2O3     -0.148000
      7 CAY         0.0090   -3.6250    2.3740 ca        1 2O3     -0.099000
      8 CAX        -0.5920   -2.6100    1.6370 ca        1 2O3     -0.190000
      9 CAW         0.0080   -1.3340    1.5380 ca        1 2O3      0.150600
     10 NAR        -0.5720   -0.3260    0.7360 nh        1 2O3     -0.667000
     11 CAQ        -2.0070   -0.3270    0.5810 c3        1 2O3      0.218800
     12 CAP        -2.4320   -0.9100   -0.7810 c3        1 2O3     -0.131400
     13 CAO        -3.9510   -0.9010   -0.8580 c3        1 2O3      0.105800
     14 NAN        -4.4510   -1.4720   -2.1440 n4        1 2O3     -0.673800
     15 CAM        -5.9740   -1.4970   -2.2370 c         1 2O3      0.585700
     16 OBB        -6.5450   -1.4940   -1.1500 o         1 2O3     -0.480100
     17 CAL        -6.5170   -1.5080   -3.5800 ca        1 2O3     -0.281600
     18 CAG        -7.8380   -1.0280   -3.8170 ca        1 2O3      0.268600
     19 N          -8.6220   -0.5060   -2.8240 nh        1 2O3     -0.738600
     20 CA        -10.0140   -0.1470   -3.0190 c3        1 2O3      0.147500
     21 CB        -10.9930   -1.0820   -2.3060 c3        1 2O3     -0.125100
     22 C         -10.4480   -0.0420   -4.4860 c         1 2O3      0.695500
     23 O         -11.5430    0.4450   -4.7970 o         1 2O3     -0.565500
     24 NAC        -9.5930   -0.5170   -5.4730 n         1 2O3     -0.467100
     25 CAH        -8.3210   -1.0220   -5.1950 ca        1 2O3      0.025600
     26 CAI        -7.5170   -1.5150   -6.2160 ca        1 2O3     -0.096000
     27 CAJ        -6.2340   -2.0240   -5.9390 ca        1 2O3     -0.117000
     28 CAK        -5.7460   -2.0180   -4.6580 ca        1 2O3     -0.115000
     29 H1         -0.4080    1.6220    1.5840 h1        1 2O3      0.035200
     30 H2         -0.2370    1.4900   -0.2280 h1        1 2O3      0.035200
     31 H3          2.0160    0.5080   -0.0020 hc        1 2O3      0.060700
     32 H4          1.9100    2.0290    0.9750 hc        1 2O3      0.060700
     33 H5          1.6630    0.7890    3.0600 hc        1 2O3      0.060200
     34 H6          3.0460    0.0520    2.1590 hc        1 2O3      0.060200
     35 H7          2.7910   -1.9790    3.4390 ha        1 2O3      0.142000
     36 H8          1.6920   -4.2090    3.6080 ha        1 2O3      0.144000
     37 H9         -0.4790   -4.6100    2.4380 ha        1 2O3      0.134000
     38 H10        -1.5400   -2.8260    1.1240 ha        1 2O3      0.109000
     39 H11        -2.5070   -0.9250    1.3960 h1        1 2O3      0.052700
     40 H12        -2.4060    0.7270    0.6440 h1        1 2O3      0.052700
     41 H13        -2.0340   -1.9550   -0.8810 hc        1 2O3      0.072700
     42 H14        -1.9880   -0.2930   -1.6060 hc        1 2O3      0.072700
     43 H15        -4.3930   -1.5090   -0.0150 hx        1 2O3      0.111200
     44 H16        -4.3470    0.1510   -0.7760 hx        1 2O3      0.111200
     45 H17        -4.1040   -2.4330   -2.2400 hn        1 2O3      0.455800
     46 H18        -8.3770   -0.6780   -1.8700 hn        1 2O3      0.461800
     47 H19       -10.1340    0.8960   -2.5830 h1        1 2O3      0.109700
     48 H20       -10.9140   -2.1270   -2.6880 hc        1 2O3      0.070367
     49 H21       -12.0330   -0.7110   -2.4880 hc        1 2O3      0.070367
     50 H22       -10.8010   -1.0830   -1.2060 hc        1 2O3      0.070367
     51 H23        -9.8860   -0.4680   -6.4260 hn        1 2O3      0.352500
     52 H24        -7.8750   -1.5220   -7.2600 ha        1 2O3      0.168000
     53 H25        -5.6340   -2.4330   -6.7690 ha        1 2O3      0.166000
     54 H26        -4.7550   -2.4610   -4.4800 ha        1 2O3      0.122000
     55 HAN2       -4.0830   -0.9210   -2.9280 hn        1 2O3      0.455800
@<TRIPOS>BOND
     1    1    2 1   
     2    1   10 1   
     3    1   29 1   
     4    1   30 1   
     5    2    3 1   
     6    2   31 1   
     7    2   32 1   
     8    3    4 1   
     9    3   33 1   
    10    3   34 1   
    11    4    5 ar  
    12    4    9 ar  
    13    5    6 ar  
    14    5   35 1   
    15    6    7 ar  
    16    6   36 1   
    17    7    8 ar  
    18    7   37 1   
    19    8    9 ar  
    20    8   38 1   
    21    9   10 1   
    22   10   11 1   
    23   11   12 1   
    24   11   39 1   
    25   11   40 1   
    26   12   13 1   
    27   12   41 1   
    28   12   42 1   
    29   13   14 1   
    30   13   43 1   
    31   13   44 1   
    32   14   15 1   
    33   14   45 1   
    34   14   55 1   
    35   15   16 2   
    36   15   17 1   
    37   17   18 ar  
    38   17   28 ar  
    39   18   19 1   
    40   18   25 ar  
    41   19   20 1   
    42   19   46 1   
    43   20   21 1   
    44   20   22 1   
    45   20   47 1   
    46   21   48 1   
    47   21   49 1   
    48   21   50 1   
    49   22   23 2   
    50   22   24 1   
    51   24   25 1   
    52   24   51 1   
    53   25   26 ar  
    54   26   27 ar  
    55   26   52 1   
    56   27   28 ar  
    57   27   53 1   
    58   28   54 1   
@<TRIPOS>SUBSTRUCTURE
     1 2O3         1 TEMP              0 ****  ****    0 ROOT
