@<TRIPOS>MOLECULE
2O3
   55    58     1     0     0
SMALL
bcc


@<TRIPOS>ATOM
      1 CAS         0.0560    0.9620    0.7330 c3        1 2O3      0.205800
      2 CAT         1.5720    0.9220    0.8790 c3        1 2O3     -0.082400
      3 CAU         1.9580    0.1460    2.1180 c3        1 2O3     -0.036100
      4 CAV         1.2570   -1.1650    2.1820 ca        1 2O3     -0.115300
      5 CBA         1.8350   -2.2070    2.9100 ca        1 2O3     -0.091000
      6 CAZ         1.2110   -3.4480    3.0100 ca        1 2O3     -0.148000
      7 CAY        -0.0050   -3.6560    2.3650 ca        1 2O3     -0.099000
      8 CAX        -0.5980   -2.6360    1.6290 ca        1 2O3     -0.190000
      9 CAW         0.0150   -1.3670    1.5260 ca        1 2O3      0.150600
     10 NAR        -0.5590   -0.3530    0.7240 nh        1 2O3     -0.667000
     11 CAQ        -1.9940   -0.3400    0.5750 c3        1 2O3      0.218800
     12 CAP        -2.4320   -0.9220   -0.7830 c3        1 2O3     -0.131400
     13 CAO        -3.9510   -0.8950   -0.8530 c3        1 2O3      0.105800
     14 NAN        -4.4630   -1.4660   -2.1340 n4        1 2O3     -0.673800
     15 CAM        -5.9860   -1.4710   -2.2230 c         1 2O3      0.585700
     16 OBB        -6.5540   -1.4480   -1.1330 o         1 2O3     -0.480100
     17 CAL        -6.5340   -1.4910   -3.5640 ca        1 2O3     -0.281600
     18 CAG        -7.8510   -0.9980   -3.8010 ca        1 2O3      0.268600
     19 N          -8.6250   -0.4560   -2.8110 nh        1 2O3     -0.739600
     20 CA        -10.0130   -0.0820   -3.0060 c3        1 2O3      0.147500
     21 CB        -11.0000   -0.9970   -2.2800 c3        1 2O3     -0.125100
     22 C         -10.4500    0.0120   -4.4730 c         1 2O3      0.695500
     23 O         -11.5400    0.5090   -4.7850 o         1 2O3     -0.565500
     24 NAC        -9.6050   -0.4830   -5.4570 n         1 2O3     -0.467100
     25 CAH        -8.3380   -1.0010   -5.1770 ca        1 2O3      0.025600
     26 CAI        -7.5430   -1.5150   -6.1950 ca        1 2O3     -0.096000
     27 CAJ        -6.2660   -2.0360   -5.9180 ca        1 2O3     -0.117000
     28 CAK        -5.7740   -2.0220   -4.6380 ca        1 2O3     -0.115000
     29 H1         -0.3700    1.5930    1.5680 h1        1 2O3      0.035200
     30 H2         -0.2090    1.4570   -0.2440 h1        1 2O3      0.035200
     31 H3          1.9490    1.9760    0.9480 hc        1 2O3      0.060700
     32 H4          2.0350    0.4520   -0.0280 hc        1 2O3      0.060700
     33 H5          1.6990    0.7420    3.0360 hc        1 2O3      0.060200
     34 H6          3.0700   -0.0110    2.1290 hc        1 2O3      0.060200
     35 H7          2.8000   -2.0380    3.4130 ha        1 2O3      0.142000
     36 H8          1.6780   -4.2560    3.5910 ha        1 2O3      0.144000
     37 H9         -0.5030   -4.6350    2.4340 ha        1 2O3      0.134000
     38 H10        -1.5520   -2.8430    1.1220 ha        1 2O3      0.109000
     39 H11        -2.3820    0.7190    0.6380 h1        1 2O3      0.052700
     40 H12        -2.4970   -0.9310    1.3950 h1        1 2O3      0.052700
     41 H13        -2.0470   -1.9710   -0.8810 hc        1 2O3      0.072700
     42 H14        -1.9850   -0.3110   -1.6110 hc        1 2O3      0.072700
     43 H15        -4.3970   -1.4940   -0.0060 hx        1 2O3      0.111200
     44 H16        -4.3350    0.1620   -0.7740 hx        1 2O3      0.111200
     45 H17        -4.1290   -2.4320   -2.2270 hn        1 2O3      0.455800
     46 H18        -8.3780   -0.6190   -1.8570 hn        1 2O3      0.461800
     47 H19       -10.1190    0.9680   -2.5810 h1        1 2O3      0.109700
     48 H20       -12.0370   -0.6160   -2.4630 hc        1 2O3      0.070367
     49 H21       -10.8050   -0.9890   -1.1800 hc        1 2O3      0.070367
     50 H22       -10.9350   -2.0470   -2.6510 hc        1 2O3      0.070367
     51 H23        -9.9010   -0.4410   -6.4100 hn        1 2O3      0.352500
     52 H24        -7.9050   -1.5300   -7.2380 ha        1 2O3      0.168000
     53 H25        -5.6740   -2.4610   -6.7450 ha        1 2O3      0.166000
     54 H26        -4.7870   -2.4740   -4.4590 ha        1 2O3      0.122000
     55 HAN2       -4.0910   -0.9240   -2.9220 hn        1 2O3      0.455800
@<TRIPOS>BOND
     1    1    2 1   
     2    1   10 1   
     3    1   29 1   
     4    1   30 1   
     5    2    3 1   
     6    2   31 1   
     7    2   32 1   
     8    3    4 1   
     9    3   33 1   
    10    3   34 1   
    11    4    5 ar  
    12    4    9 ar  
    13    5    6 ar  
    14    5   35 1   
    15    6    7 ar  
    16    6   36 1   
    17    7    8 ar  
    18    7   37 1   
    19    8    9 ar  
    20    8   38 1   
    21    9   10 1   
    22   10   11 1   
    23   11   12 1   
    24   11   39 1   
    25   11   40 1   
    26   12   13 1   
    27   12   41 1   
    28   12   42 1   
    29   13   14 1   
    30   13   43 1   
    31   13   44 1   
    32   14   15 1   
    33   14   45 1   
    34   14   55 1   
    35   15   16 2   
    36   15   17 1   
    37   17   18 ar  
    38   17   28 ar  
    39   18   19 1   
    40   18   25 ar  
    41   19   20 1   
    42   19   46 1   
    43   20   21 1   
    44   20   22 1   
    45   20   47 1   
    46   21   48 1   
    47   21   49 1   
    48   21   50 1   
    49   22   23 2   
    50   22   24 1   
    51   24   25 1   
    52   24   51 1   
    53   25   26 ar  
    54   26   27 ar  
    55   26   52 1   
    56   27   28 ar  
    57   27   53 1   
    58   28   54 1   
@<TRIPOS>SUBSTRUCTURE
     1 2O3         1 TEMP              0 ****  ****    0 ROOT
