@<TRIPOS>MOLECULE
2O3
   55    58     1     0     0
SMALL
bcc


@<TRIPOS>ATOM
      1 CAS         0.0420    0.9650    0.7610 c3        1 2O3      0.205800
      2 CAT         1.5580    0.9350    0.9060 c3        1 2O3     -0.082400
      3 CAU         1.9500    0.1450    2.1350 c3        1 2O3     -0.036100
      4 CAV         1.2580   -1.1720    2.1810 ca        1 2O3     -0.115300
      5 CBA         1.8430   -2.2190    2.8940 ca        1 2O3     -0.091000
      6 CAZ         1.2290   -3.4660    2.9770 ca        1 2O3     -0.148000
      7 CAY         0.0150   -3.6750    2.3280 ca        1 2O3     -0.099000
      8 CAX        -0.5860   -2.6490    1.6060 ca        1 2O3     -0.190000
      9 CAW         0.0180   -1.3740    1.5200 ca        1 2O3      0.150600
     10 NAR        -0.5630   -0.3540    0.7320 nh        1 2O3     -0.667000
     11 CAQ        -1.9980   -0.3490    0.5830 c3        1 2O3      0.218800
     12 CAP        -2.4300   -0.9160   -0.7840 c3        1 2O3     -0.131400
     13 CAO        -3.9490   -0.9010   -0.8550 c3        1 2O3      0.105800
     14 NAN        -4.4560   -1.4580   -2.1440 ny        1 2O3     -0.673800
     15 CAM        -5.9790   -1.4740   -2.2330 c         1 2O3      0.585700
     16 OBB        -6.5480   -1.4710   -1.1440 o         1 2O3     -0.480100
     17 CAL        -6.5260   -1.4790   -3.5750 ca        1 2O3     -0.281600
     18 CAG        -7.8470   -0.9930   -3.8060 ca        1 2O3      0.268600
     19 N          -8.6250   -0.4710   -2.8090 nu        1 2O3     -0.739600
     20 CA        -10.0170   -0.1050   -3.0000 c3        1 2O3      0.147500
     21 CB        -10.9970   -1.0390   -2.2870 c3        1 2O3     -0.125100
     22 C         -10.4540    0.0060   -4.4650 c         1 2O3      0.695500
     23 O         -11.5470    0.4980   -4.7710 o         1 2O3     -0.565500
     24 NAC        -9.6040   -0.4690   -5.4550 ns        1 2O3     -0.467100
     25 CAH        -8.3330   -0.9800   -5.1820 ca        1 2O3      0.025600
     26 CAI        -7.5340   -1.4730   -6.2070 ca        1 2O3     -0.096000
     27 CAJ        -6.2530   -1.9890   -5.9360 ca        1 2O3     -0.117000
     28 CAK        -5.7610   -1.9890   -4.6570 ca        1 2O3     -0.115000
     29 H1         -0.2260    1.4720   -0.2100 h1        1 2O3      0.035200
     30 H2         -0.3900    1.5820    1.6030 h1        1 2O3      0.035200
     31 H3          2.0250    0.4810   -0.0060 hc        1 2O3      0.060700
     32 H4          1.9270    1.9900    0.9900 hc        1 2O3      0.060700
     33 H5          1.6850    0.7260    3.0610 hc        1 2O3      0.060200
     34 H6          3.0630   -0.0040    2.1450 hc        1 2O3      0.060200
     35 H7          2.8070   -2.0500    3.4010 ha        1 2O3      0.142000
     36 H8          1.7020   -4.2790    3.5480 ha        1 2O3      0.144000
     37 H9         -0.4760   -4.6590    2.3830 ha        1 2O3      0.134000
     38 H10        -1.5370   -2.8560    1.0950 ha        1 2O3      0.109000
     39 H11        -2.4970   -0.9550    1.3940 h1        1 2O3      0.052700
     40 H12        -2.3940    0.7050    0.6600 h1        1 2O3      0.052700
     41 H13        -2.0370   -1.9610   -0.8960 hc        1 2O3      0.072700
     42 H14        -1.9870   -0.2910   -1.6030 hc        1 2O3      0.072700
     43 H15        -4.3910   -1.5140   -0.0160 hx        1 2O3      0.111200
     44 H16        -4.3410    0.1520   -0.7620 hx        1 2O3      0.111200
     45 H17        -4.1140   -2.4200   -2.2490 hn        1 2O3      0.455800
     46 H18        -8.3780   -0.6460   -1.8570 hn        1 2O3      0.461800
     47 H19       -10.1310    0.9370   -2.5590 h1        1 2O3      0.109700
     48 H20       -10.9230   -2.0830   -2.6730 hc        1 2O3      0.070367
     49 H21       -12.0360   -0.6630   -2.4650 hc        1 2O3      0.070367
     50 H22       -10.8020   -1.0450   -1.1870 hc        1 2O3      0.070367
     51 H23        -9.8990   -0.4160   -6.4080 hn        1 2O3      0.352500
     52 H24        -7.8950   -1.4760   -7.2510 ha        1 2O3      0.168000
     53 H25        -5.6560   -2.3970   -6.7690 ha        1 2O3      0.166000
     54 H26        -4.7700   -2.4350   -4.4830 ha        1 2O3      0.122000
     55 HAN2       -4.0880   -0.9020   -2.9240 hn        1 2O3      0.455800
@<TRIPOS>BOND
     1    1    2 1   
     2    1   10 1   
     3    1   29 1   
     4    1   30 1   
     5    2    3 1   
     6    2   31 1   
     7    2   32 1   
     8    3    4 1   
     9    3   33 1   
    10    3   34 1   
    11    4    5 ar  
    12    4    9 ar  
    13    5    6 ar  
    14    5   35 1   
    15    6    7 ar  
    16    6   36 1   
    17    7    8 ar  
    18    7   37 1   
    19    8    9 ar  
    20    8   38 1   
    21    9   10 1   
    22   10   11 1   
    23   11   12 1   
    24   11   39 1   
    25   11   40 1   
    26   12   13 1   
    27   12   41 1   
    28   12   42 1   
    29   13   14 1   
    30   13   43 1   
    31   13   44 1   
    32   14   15 1   
    33   14   45 1   
    34   14   55 1   
    35   15   16 2   
    36   15   17 1   
    37   17   18 ar  
    38   17   28 ar  
    39   18   19 1   
    40   18   25 ar  
    41   19   20 1   
    42   19   46 1   
    43   20   21 1   
    44   20   22 1   
    45   20   47 1   
    46   21   48 1   
    47   21   49 1   
    48   21   50 1   
    49   22   23 2   
    50   22   24 1   
    51   24   25 1   
    52   24   51 1   
    53   25   26 ar  
    54   26   27 ar  
    55   26   52 1   
    56   27   28 ar  
    57   27   53 1   
    58   28   54 1   
@<TRIPOS>SUBSTRUCTURE
     1 2O3         1 TEMP              0 ****  ****    0 ROOT
