@<TRIPOS>MOLECULE
2O4
   58    59     1     0     0
SMALL
bcc


@<TRIPOS>ATOM
      1 C4          0.4480   -1.9290    0.1420 ca        1 2O4     -0.101000
      2 C14         9.8380    2.2420    7.4650 c3        1 2O4     -0.207000
      3 C5          1.8110   -2.0070    0.4160 ca        1 2O4     -0.115000
      4 C6          2.3560   -1.2430    1.4460 ca        1 2O4     -0.105000
      5 C11         5.9380    1.3860    6.0620 c3        1 2O4     -0.052000
      6 C7          1.5480   -0.3970    2.2110 ca        1 2O4     -0.113000
      7 C8          2.1690    0.4380    3.2860 c2        1 2O4      0.339000
      8 C10         5.2880    0.6430    4.8920 c3        1 2O4     -0.219000
      9 C12         7.9650    1.7910    4.7770 c3        1 2O4     -0.102000
     10 C13        10.8630    2.5310    6.4890 c1        1 2O4     -0.063000
     11 N1          3.0620   -0.1740    4.1300 n         1 2O4     -0.355000
     12 N2          7.3850    1.4880    6.0640 nh        1 2O4     -0.249000
     13 C3         -0.3760   -1.0850    0.8850 ca        1 2O4     -0.092000
     14 N3         -0.7140    0.5740    2.6860 n4        1 2O4      0.034000
     15 C2         -3.2250    0.4040    3.3970 cu        1 2O4      0.259000
     16 N          -2.9140   -0.7120    2.7560 n2        1 2O4     -0.305000
     17 C22         0.1670   -0.3080    1.9250 ca        1 2O4     -0.039000
     18 C1         -1.7870   -0.1380    3.4980 cx        1 2O4     -0.302000
     19 C          -1.1920   -0.8570    4.6730 c3        1 2O4     -0.161000
     20 O1          1.8530    1.6430    3.4250 o         1 2O4     -0.392000
     21 C20         8.0900    0.4990    6.8190 ca        1 2O4      0.068000
     22 C19         7.6080   -0.8180    6.9370 ca        1 2O4     -0.214000
     23 C18         8.2890   -1.7540    7.7270 ca        1 2O4      0.118000
     24 O           7.7530   -3.0110    7.7890 oh        1 2O4     -0.292000
     25 C21         9.3700   -4.6840    9.5720 c1        1 2O4     -0.039000
     26 C17         9.4630   -1.3950    8.4060 ca        1 2O4     -0.228000
     27 C16         9.9330   -0.0950    8.2890 ca        1 2O4     -0.084000
     28 C15         9.2730    0.8640    7.5120 ca        1 2O4     -0.145000
     29 H1          0.0090   -2.5360   -0.6660 ha        1 2O4      0.154000
     30 H3          9.0220    3.0120    7.3060 hc        1 2O4      0.159000
     31 H4          2.4590   -2.6690   -0.1780 ha        1 2O4      0.149000
     32 H5          3.4390   -1.2980    1.6420 ha        1 2O4      0.145000
     33 H6          5.4750    1.2030    3.9390 hc        1 2O4      0.091000
     34 H7          5.7350   -0.3780    4.7730 hc        1 2O4      0.091000
     35 H10         5.6070    0.9130    7.0290 h1        1 2O4      0.099000
     36 H11         5.5560    2.4490    6.0490 h1        1 2O4      0.099000
     37 H12         7.8790    0.9440    4.0430 h1        1 2O4      0.076000
     38 H13         7.4410    2.6880    4.3530 h1        1 2O4      0.076000
     39 H14        11.1660    1.7130    5.8160 ha        1 2O4      0.037000
     40 H15         9.0520    2.0350    4.9120 h1        1 2O4      0.076000
     41 H16         3.3220   -1.1170    3.9590 hn        1 2O4      0.232000
     42 H17        -0.1700    1.1410    3.3480 hn        1 2O4      0.243500
     43 H18        -1.4560   -1.0460    0.6550 ha        1 2O4      0.188000
     44 H19        -1.1740    1.2040    2.0210 hn        1 2O4      0.243500
     45 H20        -0.5250   -1.6940    4.3520 hc        1 2O4      0.080000
     46 H21        -2.0230   -1.2870    5.2850 hc        1 2O4      0.080000
     47 H22        -0.6100   -0.1570    5.3220 hc        1 2O4      0.080000
     48 H23         6.6910   -1.1420    6.4260 ha        1 2O4      0.143000
     49 H24         9.0320   -5.7090    9.7750 ha        1 2O4      0.037000
     50 H25         8.3160   -3.5660    8.3820 ho        1 2O4      0.265000
     51 H26        10.2940   -4.4270   10.1070 ha        1 2O4      0.037000
     52 H27         9.9900   -2.1390    9.0210 ha        1 2O4      0.138000
     53 H28        10.8490    0.1950    8.8280 ha        1 2O4      0.128000
     54 O2         -3.8960    1.3570    3.7730 o         1 2O4     -0.340000
     55 C9          3.7840    0.5370    5.1520 c3        1 2O4     -0.031000
     56 H2         10.2870    2.5040    8.4730 hc        1 2O4      0.159000
     57 H8          3.3520    1.5750    5.2490 h1        1 2O4      0.110000
     58 H9          3.6200   -0.0060    6.1280 h1        1 2O4      0.110000
@<TRIPOS>BOND
     1    1    3 1   
     2    1   13 1   
     3    1   29 1   
     4    2   10 1   
     5    2   28 1   
     6    2   30 1   
     7    2   56 1   
     8    3    4 1   
     9    3   31 1   
    10    4    6 1   
    11    4   32 1   
    12    5    8 1   
    13    5   12 1   
    14    5   35 1   
    15    5   36 1   
    16    6    7 1   
    17    6   17 1   
    18    7   11 1   
    19    7   20 1   
    20    8   33 1   
    21    8   34 1   
    22    8   55 1   
    23    9   12 1   
    24    9   37 1   
    25    9   38 1   
    26    9   40 1   
    27   10   39 1   
    28   11   41 1   
    29   11   55 1   
    30   12   21 1   
    31   13   17 1   
    32   13   43 1   
    33   14   17 1   
    34   14   18 1   
    35   14   42 1   
    36   14   44 1   
    37   15   16 1   
    38   15   18 1   
    39   15   54 1   
    40   16   18 1   
    41   18   19 1   
    42   19   45 1   
    43   19   46 1   
    44   19   47 1   
    45   21   22 1   
    46   21   28 1   
    47   22   23 1   
    48   22   48 1   
    49   23   24 1   
    50   23   26 1   
    51   24   50 1   
    52   25   49 1   
    53   25   51 1   
    54   26   27 1   
    55   26   52 1   
    56   27   28 1   
    57   27   53 1   
    58   55   57 1   
    59   55   58 1   
@<TRIPOS>SUBSTRUCTURE
     1 2O4         1 TEMP              0 ****  ****    0 ROOT
