@<TRIPOS>MOLECULE
2O5
   43    46     1     0     0
SMALL
bcc


@<TRIPOS>ATOM
      1 O           1.0710   -1.3420   -0.3410 o         1 2O5     -0.836300
      2 C16         1.1810   -0.0890   -0.2230 c         1 2O5      0.919600
      3 O1          0.5750    0.6070    0.6360 o         1 2O5     -0.836300
      4 C15         2.0890    0.6600   -1.2320 c3        1 2O5     -0.182100
      5 C12         3.5190    0.3040   -1.1010 ca        1 2O5     -0.005300
      6 C11         3.9150   -1.0420   -1.0650 ca        1 2O5     -0.134500
      7 C10         5.2550   -1.3950   -0.9650 ca        1 2O5     -0.133000
      8 C13         4.5070    1.2950   -1.0190 ca        1 2O5     -0.134500
      9 C14         5.8510    0.9600   -0.9070 ca        1 2O5     -0.133000
     10 C9          6.2440   -0.3940   -0.8820 ca        1 2O5      0.057600
     11 N3          7.6280   -0.7240   -0.8320 nh        1 2O5     -0.684300
     12 C8          8.1770   -1.4030    0.2600 ca        1 2O5      0.896900
     13 N1          9.5570   -1.2880    0.4510 nb        1 2O5     -0.805000
     14 C7         10.0700   -2.0390    1.4650 ca        1 2O5      0.729300
     15 C17        11.5430   -1.9700    1.7190 cx        1 2O5     -0.177000
     16 C19        12.5050   -1.8260    0.5650 cx        1 2O5     -0.113900
     17 C18        12.2920   -0.6780    1.5030 cx        1 2O5     -0.113900
     18 N           9.3440   -2.8570    2.2940 nb        1 2O5     -0.776000
     19 N2          7.3600   -2.2080    1.0480 nb        1 2O5     -0.746000
     20 C6          7.9950   -2.9000    2.0370 cp        1 2O5      0.751500
     21 C2          7.1490   -3.7640    2.9060 cp        1 2O5     -0.142500
     22 C1          5.8040   -3.4340    3.1280 ca        1 2O5     -0.070000
     23 C3          7.6950   -4.9120    3.4940 ca        1 2O5     -0.083000
     24 C4          6.8870   -5.7170    4.3000 ca        1 2O5     -0.004600
     25 CL          7.5480   -7.1150    5.0180 cl        1 2O5     -0.116400
     26 C5          5.5460   -5.3950    4.5260 ca        1 2O5     -0.111000
     27 C           5.0130   -4.2510    3.9360 ca        1 2O5     -0.133000
     28 H2          1.7380    0.3800   -2.2600 hc        1 2O5      0.040700
     29 H3          1.9420    1.7620   -1.0960 hc        1 2O5      0.040700
     30 H4          3.1210   -1.8150   -1.0820 ha        1 2O5      0.159500
     31 H5          5.5340   -2.4590   -0.9370 ha        1 2O5      0.124000
     32 H6          4.2130    2.3550   -1.0290 ha        1 2O5      0.159500
     33 H7          6.6020    1.7610   -0.8380 ha        1 2O5      0.124000
     34 H8          8.2250   -0.0280   -1.2340 hn        1 2O5      0.429800
     35 H9         11.8550   -2.6080    2.5720 hc        1 2O5      0.101700
     36 H10        13.4520   -2.3930    0.6090 hc        1 2O5      0.076200
     37 H11        12.1100   -1.7580   -0.4650 hc        1 2O5      0.076200
     38 H12        13.0860   -0.4160    2.2250 hc        1 2O5      0.076200
     39 H13        11.7460    0.2130    1.1460 hc        1 2O5      0.076200
     40 H14         5.3570   -2.5380    2.6640 ha        1 2O5      0.177000
     41 H15         8.7490   -5.1840    3.3260 ha        1 2O5      0.161000
     42 H16         4.9170   -6.0370    5.1600 ha        1 2O5      0.142000
     43 H17         3.9550   -3.9900    4.0990 ha        1 2O5      0.152000
@<TRIPOS>BOND
     1    1    2 1   
     2    2    3 1   
     3    2    4 1   
     4    4    5 1   
     5    4   28 1   
     6    4   29 1   
     7    5    6 ar  
     8    5    8 ar  
     9    6    7 ar  
    10    6   30 1   
    11    7   10 ar  
    12    7   31 1   
    13    8    9 ar  
    14    8   32 1   
    15    9   10 ar  
    16    9   33 1   
    17   10   11 1   
    18   11   12 1   
    19   11   34 1   
    20   12   13 ar  
    21   12   19 ar  
    22   13   14 ar  
    23   14   15 1   
    24   14   18 ar  
    25   15   16 1   
    26   15   17 1   
    27   15   35 1   
    28   16   17 1   
    29   16   36 1   
    30   16   37 1   
    31   17   38 1   
    32   17   39 1   
    33   18   20 ar  
    34   19   20 ar  
    35   20   21 1   
    36   21   22 ar  
    37   21   23 ar  
    38   22   27 ar  
    39   22   40 1   
    40   23   24 ar  
    41   23   41 1   
    42   24   25 1   
    43   24   26 ar  
    44   26   27 ar  
    45   26   42 1   
    46   27   43 1   
@<TRIPOS>SUBSTRUCTURE
     1 2O5         1 TEMP              0 ****  ****    0 ROOT
