@<TRIPOS>MOLECULE
2O5
   43    46     1     0     0
SMALL
bcc


@<TRIPOS>ATOM
      1 O           1.0640   -1.3760   -0.3170 o         1 2O5     -0.836300
      2 C16         1.1700   -0.1210   -0.2140 c         1 2O5      0.919600
      3 O1          0.5650    0.5820    0.6400 o         1 2O5     -0.836300
      4 C15         2.0710    0.6200   -1.2350 c3        1 2O5     -0.182100
      5 C12         3.5030    0.2710   -1.1060 ca        1 2O5     -0.005300
      6 C11         3.9040   -1.0730   -1.0580 ca        1 2O5     -0.134500
      7 C10         5.2460   -1.4200   -0.9590 ca        1 2O5     -0.133000
      8 C13         4.4870    1.2660   -1.0390 ca        1 2O5     -0.134500
      9 C14         5.8330    0.9370   -0.9290 ca        1 2O5     -0.133000
     10 C9          6.2310   -0.4160   -0.8920 ca        1 2O5      0.057600
     11 N3          7.6160   -0.7400   -0.8440 nh        1 2O5     -0.684300
     12 C8          8.1730   -1.4050    0.2540 ca        1 2O5      0.896900
     13 N1          9.5530   -1.2830    0.4380 nb        1 2O5     -0.804000
     14 C7         10.0730   -2.0210    1.4580 ca        1 2O5      0.729300
     15 C17        11.5460   -1.9430    1.7050 cx        1 2O5     -0.177000
     16 C19        12.5030   -1.8080    0.5460 cx        1 2O5     -0.113900
     17 C18        12.2900   -0.6510    1.4720 cx        1 2O5     -0.113900
     18 N           9.3530   -2.8330    2.2980 nb        1 2O5     -0.776000
     19 N2          7.3610   -2.2050    1.0520 nb        1 2O5     -0.746000
     20 C6          8.0030   -2.8840    2.0470 cp        1 2O5      0.751500
     21 C2          7.1630   -3.7420    2.9280 cp        1 2O5     -0.142500
     22 C1          5.8190   -3.4160    3.1510 ca        1 2O5     -0.070000
     23 C3          7.7170   -4.8820    3.5260 ca        1 2O5     -0.083000
     24 C4          6.9150   -5.6810    4.3440 ca        1 2O5     -0.004600
     25 CL          7.5850   -7.0690    5.0740 cl        1 2O5     -0.116400
     26 C5          5.5730   -5.3620    4.5720 ca        1 2O5     -0.111000
     27 C           5.0330   -4.2280    3.9700 ca        1 2O5     -0.133000
     28 H2          1.9210    1.7220   -1.1110 hc        1 2O5      0.040700
     29 H3          1.7160    0.3280   -2.2580 hc        1 2O5      0.040700
     30 H4          3.1120   -1.8490   -1.0630 ha        1 2O5      0.159500
     31 H5          5.5280   -2.4830   -0.9220 ha        1 2O5      0.124000
     32 H6          4.1890    2.3250   -1.0590 ha        1 2O5      0.159500
     33 H7          6.5810    1.7410   -0.8710 ha        1 2O5      0.124000
     34 H8          8.2090   -0.0460   -1.2550 hn        1 2O5      0.429800
     35 H9         11.8640   -2.5710    2.5640 hc        1 2O5      0.101700
     36 H10        13.4530   -2.3700    0.5930 hc        1 2O5      0.076200
     37 H11        12.1040   -1.7530   -0.4820 hc        1 2O5      0.076200
     38 H12        13.0850   -0.3770    2.1890 hc        1 2O5      0.076200
     39 H13        11.7380    0.2340    1.1080 hc        1 2O5      0.076200
     40 H14         5.3660   -2.5270    2.6790 ha        1 2O5      0.177000
     41 H15         8.7720   -5.1510    3.3570 ha        1 2O5      0.161000
     42 H16         4.9490   -6.0010    5.2140 ha        1 2O5      0.142000
     43 H17         3.9750   -3.9700    4.1350 ha        1 2O5      0.152000
@<TRIPOS>BOND
     1    1    2 1   
     2    2    3 1   
     3    2    4 1   
     4    4    5 1   
     5    4   28 1   
     6    4   29 1   
     7    5    6 ar  
     8    5    8 ar  
     9    6    7 ar  
    10    6   30 1   
    11    7   10 ar  
    12    7   31 1   
    13    8    9 ar  
    14    8   32 1   
    15    9   10 ar  
    16    9   33 1   
    17   10   11 1   
    18   11   12 1   
    19   11   34 1   
    20   12   13 ar  
    21   12   19 ar  
    22   13   14 ar  
    23   14   15 1   
    24   14   18 ar  
    25   15   16 1   
    26   15   17 1   
    27   15   35 1   
    28   16   17 1   
    29   16   36 1   
    30   16   37 1   
    31   17   38 1   
    32   17   39 1   
    33   18   20 ar  
    34   19   20 ar  
    35   20   21 1   
    36   21   22 ar  
    37   21   23 ar  
    38   22   27 ar  
    39   22   40 1   
    40   23   24 ar  
    41   23   41 1   
    42   24   25 1   
    43   24   26 ar  
    44   26   27 ar  
    45   26   42 1   
    46   27   43 1   
@<TRIPOS>SUBSTRUCTURE
     1 2O5         1 TEMP              0 ****  ****    0 ROOT
