@<TRIPOS>MOLECULE
2O6
   19    19     1     0     0
SMALL
bcc


@<TRIPOS>ATOM
      1 N1          0.2960    0.3970    0.4220 n2        1 2O6     -0.497200
      2 C1          2.2350   -0.1150    3.9800 ce        1 2O6     -0.170300
      3 C2          3.4060    0.0800    3.0970 ce        1 2O6     -0.109100
      4 O1          1.5860    0.2150    0.1950 os        1 2O6     -0.095600
      5 C3          3.1000    0.6260    1.9440 c1        1 2O6     -0.041800
      6 C4          2.4300    1.1090    0.9300 c2        1 2O6     -0.005000
      7 C5          0.3670   -1.0840    2.4640 ce        1 2O6     -0.249700
      8 C6          1.1810   -0.5950    3.3570 c1        1 2O6      0.060200
      9 C7          2.3110    0.2680    5.4460 c3        1 2O6      0.700100
     10 C8         -0.3060   -0.2380    1.4320 ce        1 2O6      0.624500
     11 F1          3.5450    0.0600    6.0110 f         1 2O6     -0.231300
     12 F2          2.0380    1.5910    5.6980 f         1 2O6     -0.231300
     13 F3          1.4450   -0.4150    6.2650 f         1 2O6     -0.231300
     14 H1          4.3860   -0.2990    3.4130 ha        1 2O6      0.176000
     15 H2         -2.0670   -0.3230    2.4350 hn        1 2O6      0.421300
     16 H3         -2.1910    0.4000    0.9220 hn        1 2O6      0.421300
     17 H4          2.4650    2.1290    0.5270 h4        1 2O6      0.175000
     18 H5          0.1650   -2.1690    2.3890 ha        1 2O6      0.184000
     19 N2         -1.6980   -0.2270    1.5180 nv        1 2O6     -0.896800
@<TRIPOS>BOND
     1    1    4 1   
     2    1   10 2   
     3    2    3 1   
     4    2    8 2   
     5    2    9 1   
     6    3    5 2   
     7    3   14 1   
     8    4    6 1   
     9    5    6 2   
    10    6   17 1   
    11    7    8 2   
    12    7   10 1   
    13    7   18 1   
    14    9   11 1   
    15    9   12 1   
    16    9   13 1   
    17   10   19 1   
    18   15   19 1   
    19   16   19 1   
@<TRIPOS>SUBSTRUCTURE
     1 2O6         1 TEMP              0 ****  ****    0 ROOT
