@<TRIPOS>MOLECULE
2O6
   20    20     1     0     0
SMALL
bcc


@<TRIPOS>ATOM
      1 N1          0.3530   -0.3300    0.3910 n2        1 2O6     -0.319200
      2 C1          2.2550    0.0400    4.0160 ce        1 2O6     -0.135300
      3 C2          3.4220    0.0340    3.1010 ce        1 2O6     -0.069100
      4 O1          1.6190   -0.2120    0.1150 os        1 2O6     -0.053600
      5 C3          3.1310   -0.4650    1.9220 c1        1 2O6     -0.006800
      6 C4          2.5350   -1.0090    0.8970 c2        1 2O6     -0.023000
      7 C5          0.2960    0.9700    2.5870 ce        1 2O6     -0.305700
      8 C6          1.1620    0.4700    3.4270 c1        1 2O6      0.101200
      9 C7          2.3810   -0.4660    5.4510 c3        1 2O6      0.705100
     10 C8         -0.2310    0.1950    1.4480 ce        1 2O6      0.473500
     11 F1          3.5950   -0.1860    6.0180 f         1 2O6     -0.208967
     12 F2          1.4500    0.0600    6.3080 f         1 2O6     -0.208967
     13 F3          2.2320   -1.8260    5.5580 f         1 2O6     -0.208967
     14 H1          4.3720    0.4850    3.4230 ha        1 2O6      0.214000
     15 H2         -2.1300    0.9890    1.5500 hn        1 2O6      0.477467
     16 H3         -2.0850   -0.4290    0.6550 hn        1 2O6      0.477467
     17 H4          2.6940   -2.0000    0.4460 h4        1 2O6      0.214000
     18 H5         -0.0020    2.0370    2.6280 ha        1 2O6      0.198000
     19 N2         -1.7170    0.0510    1.4890 n4        1 2O6     -0.798600
     20 H23        -1.9660   -0.4870    2.3280 hn        1 2O6      0.477467
@<TRIPOS>BOND
     1    1    4 1   
     2    1   10 2   
     3    2    3 1   
     4    2    8 2   
     5    2    9 1   
     6    3    5 2   
     7    3   14 1   
     8    4    6 1   
     9    5    6 2   
    10    6   17 1   
    11    7    8 2   
    12    7   10 1   
    13    7   18 1   
    14    9   11 1   
    15    9   12 1   
    16    9   13 1   
    17   10   19 1   
    18   15   19 1   
    19   16   19 1   
    20   19   20 1   
@<TRIPOS>SUBSTRUCTURE
     1 2O6         1 TEMP              0 ****  ****    0 ROOT
