@<TRIPOS>MOLECULE
2O7
   43    35     1     0     0
SMALL
bcc


@<TRIPOS>ATOM
      1 C1          0.6740    0.2570   -0.5060 c3        1 2O7      0.063000
      2 C3          1.3930    0.4400    1.7360 c3        1 2O7     -0.067000
      3 C9          2.3140    0.2440   -0.4930 c3        1 2O7     -0.167000
      4 C12        -0.7670   -1.2020    0.6210 c1        1 2O7      0.301000
      5 C13        -0.6380   -1.5160   -0.6730 c1        1 2O7     -0.043000
      6 C14         0.1630   -0.7680   -1.2870 c1        1 2O7     -0.026000
      7 C15         0.0530   -0.6030   -2.7500 c1        1 2O7     -0.097000
      8 C20        -2.2750   -4.6580   -2.0090 c1        1 2O7     -0.060000
      9 C21        -1.2230   -5.5880   -1.8990 c1        1 2O7     -0.102000
     10 C24         0.2000   -3.8700   -1.0190 c1        1 2O7     -0.093000
     11 O28        -1.6970   -1.4250    1.2940 o         1 2O7     -0.284000
     12 C32        -0.1440    2.5430    0.3290 c1        1 2O7     -0.050000
     13 C33        -1.2820    2.3350    1.0980 c1        1 2O7     -0.106500
     14 C35        -1.5940    3.2220    2.1360 c1        1 2O7     -0.106500
     15 N2          0.2420   -0.0470    0.8150 n3        1 2O7     -0.245000
     16 C6          2.6660    0.7760    0.7300 c3        1 2O7     -0.181000
     17 N16        -0.0310   -0.4750   -3.8950 n1        1 2O7     -0.019500
     18 C17        -0.8380   -2.9530   -1.1270 c1        1 2O7     -0.036667
     19 C18        -2.0880   -3.3640   -1.6300 c1        1 2O7     -0.093000
     20 C23         0.0020   -5.1920   -1.4080 c1        1 2O7     -0.036667
     21 CL26        1.3320   -6.2710   -1.4710 cl        1 2O7      0.005000
     22 CL27       -3.8500   -5.1660   -2.7070 cl        1 2O7      0.005000
     23 C29         0.1380    1.6150   -0.9610 c3        1 2O7     -0.109000
     24 C37        -0.7570    4.3230    2.4000 c1        1 2O7     -0.036667
     25 C38         0.3820    4.5330    1.6310 c1        1 2O7     -0.093000
     26 C40         0.7000    3.6560    0.5980 c1        1 2O7     -0.136000
     27 C42        -1.1130    5.3110    3.5530 c1        1 2O7     -0.097000
     28 N43        -1.3770    6.0340    4.3970 n1        1 2O7     -0.019500
     29 H31         1.6340   -0.2510    2.3570 h1        1 2O7      0.112500
     30 H32         1.1200    1.2480    2.2200 h1        1 2O7      0.112500
     31 H91         2.5800   -0.6710   -0.4840 hc        1 2O7      0.104500
     32 H92         2.6180    0.8970   -1.1960 hc        1 2O7      0.104500
     33 H21        -1.3620   -6.5160   -2.1720 ha        1 2O7      0.166000
     34 H24         1.0850   -3.5840   -0.6610 ha        1 2O7      0.160000
     35 H33        -1.8970    1.5260    0.9050 ha        1 2O7      0.152000
     36 H35        -2.4120    3.0750    2.6890 ha        1 2O7      0.152000
     37 H61         2.8000    1.8100    0.6520 hc        1 2O7      0.099500
     38 H62         3.4950    0.3440    1.0670 hc        1 2O7      0.099500
     39 H18        -2.8580   -2.6920   -1.7100 ha        1 2O7      0.160000
     40 H291        0.7930    2.0470   -1.5320 hc        1 2O7      0.107000
     41 H292       -0.6970    1.4850   -1.4610 hc        1 2O7      0.107000
     42 H38         0.9440    5.2730    1.8110 ha        1 2O7      0.160000
     43 H40         1.5690    3.8160    0.0130 ha        1 2O7      0.139000
@<TRIPOS>BOND
     1    1    3 1   
     2    1    6 1   
     3    1   15 1   
     4    1   23 1   
     5    2   15 1   
     6    2   16 1   
     7    2   29 1   
     8    2   30 1   
     9    3   16 1   
    10    3   31 1   
    11    3   32 1   
    12    4   11 1   
    13    4   15 1   
    14    5    6 1   
    15    7   17 1   
    16    8    9 1   
    17    8   22 1   
    18    9   33 1   
    19   10   20 1   
    20   10   34 1   
    21   12   23 1   
    22   12   26 1   
    23   13   14 1   
    24   13   35 1   
    25   14   36 1   
    26   16   37 1   
    27   16   38 1   
    28   18   19 1   
    29   19   39 1   
    30   23   40 1   
    31   23   41 1   
    32   24   25 1   
    33   25   42 1   
    34   26   43 1   
    35   27   28 1   
@<TRIPOS>SUBSTRUCTURE
     1 2O7         1 TEMP              0 ****  ****    0 ROOT
