@<TRIPOS>MOLECULE
2O7
   43    46     1     0     0
SMALL
bcc


@<TRIPOS>ATOM
      1 C1          0.5220    3.3760    0.6130 c3        1 2O7      0.103600
      2 C3         -0.1400    1.2440    1.5070 c3        1 2O7      0.049000
      3 C9          0.8500    2.3150   -0.4710 c3        1 2O7     -0.091400
      4 C12         1.1500    2.8800    2.8420 c         1 2O7      0.666700
      5 C13         2.0880    3.9490    2.3150 ce        1 2O7     -0.045400
      6 C14         1.7560    4.1910    1.0170 cf        1 2O7      0.009100
      7 C15         2.3790    5.0410    0.0840 ch        1 2O7      0.199500
      8 C20         4.7800    4.3440    4.8920 ca        1 2O7      0.017900
      9 C21         5.2000    5.6590    4.6690 ca        1 2O7     -0.102000
     10 C24         3.5510    5.8510    2.8920 ca        1 2O7     -0.093000
     11 O28         1.2030    2.3190    3.9390 o         1 2O7     -0.560500
     12 C32        -1.0990    5.2930    1.0850 ca        1 2O7     -0.063300
     13 C33        -2.0080    4.9210    2.0820 ca        1 2O7     -0.122500
     14 C35        -2.4990    5.8650    2.9800 ca        1 2O7     -0.091500
     15 N2          0.1430    2.6300    1.8550 n         1 2O7     -0.388800
     16 C6          0.4060    0.9690    0.0940 c3        1 2O7     -0.104400
     17 N16         2.8890    5.7280   -0.7070 n1        1 2O7     -0.335800
     18 C17         3.1410    4.5270    3.1190 ca        1 2O7     -0.046800
     19 C18         3.7550    3.7760    4.1320 ca        1 2O7     -0.093000
     20 C23         4.5730    6.4040    3.6660 ca        1 2O7      0.017900
     21 CL26        5.0610    8.0060    3.3870 cl        1 2O7     -0.074400
     22 C29        -0.6030    4.2920    0.1020 c3        1 2O7     -0.019100
     23 C37        -2.0880    7.2020    2.8830 ca        1 2O7     -0.015000
     24 C38        -1.1840    7.5830    1.8820 ca        1 2O7     -0.091500
     25 C40        -0.6960    6.6320    0.9900 ca        1 2O7     -0.122500
     26 C42        -2.5900    8.1690    3.7950 cg        1 2O7      0.232800
     27 N43        -3.0010    8.9620    4.5410 n1        1 2O7     -0.361800
     28 H31        -1.2580    1.1200    1.5240 h1        1 2O7      0.070700
     29 H32         0.3020    0.5430    2.2660 h1        1 2O7      0.070700
     30 H91         1.9460    2.3140   -0.6900 hc        1 2O7      0.065200
     31 H92         0.3120    2.5480   -1.4230 hc        1 2O7      0.065200
     32 H21         6.0070    6.1010    5.2740 ha        1 2O7      0.166000
     33 H24         3.0620    6.4540    2.1110 ha        1 2O7      0.166000
     34 H33        -2.3330    3.8720    2.1630 ha        1 2O7      0.144500
     35 H35        -3.2080    5.5620    3.7650 ha        1 2O7      0.147500
     36 H61        -0.3880    0.5090   -0.5430 hc        1 2O7      0.059700
     37 H62         1.2640    0.2550    0.1390 hc        1 2O7      0.059700
     38 H18         3.4180    2.7440    4.3350 ha        1 2O7      0.166000
     39 H291       -1.4620    3.6430   -0.2200 hc        1 2O7      0.065200
     40 H292       -0.2080    4.8170   -0.8110 hc        1 2O7      0.065200
     41 H38        -0.8620    8.6330    1.8010 ha        1 2O7      0.147500
     42 H40         0.0110    6.9380    0.2040 ha        1 2O7      0.144500
     43 CL27        5.5290    3.4260    6.1080 cl        1 2O7     -0.074400
@<TRIPOS>BOND
     1    1    3 1   
     2    1    6 1   
     3    1   15 1   
     4    1   22 1   
     5    2   15 1   
     6    2   16 1   
     7    2   28 1   
     8    2   29 1   
     9    3   16 1   
    10    3   30 1   
    11    3   31 1   
    12    4    5 1   
    13    4   11 2   
    14    4   15 1   
    15    5    6 2   
    16    5   18 1   
    17    6    7 1   
    18    7   17 3   
    19    8    9 ar  
    20    8   19 ar  
    21    8   43 1   
    22    9   20 ar  
    23    9   32 1   
    24   10   18 ar  
    25   10   20 ar  
    26   10   33 1   
    27   12   13 ar  
    28   12   22 1   
    29   12   25 ar  
    30   13   14 ar  
    31   13   34 1   
    32   14   23 ar  
    33   14   35 1   
    34   16   36 1   
    35   16   37 1   
    36   18   19 ar  
    37   19   38 1   
    38   20   21 1   
    39   22   39 1   
    40   22   40 1   
    41   23   24 ar  
    42   23   26 1   
    43   24   25 ar  
    44   24   41 1   
    45   25   42 1   
    46   26   27 3   
@<TRIPOS>SUBSTRUCTURE
     1 2O7         1 TEMP              0 ****  ****    0 ROOT
