@<TRIPOS>MOLECULE
2O7
   43    46     1     0     0
SMALL
bcc


@<TRIPOS>ATOM
      1 C1         -0.2360   -0.1110    0.1380 c3        1 2O7      0.103600
      2 C3          0.9630    0.8930    1.9660 c3        1 2O7      0.049000
      3 C9          1.2750   -0.3140   -0.1520 c3        1 2O7     -0.091400
      4 C12        -0.9250    2.0410    0.8500 c         1 2O7      0.666700
      5 C13        -1.3940    1.8440   -0.5800 ce        1 2O7     -0.045400
      6 C14        -0.9500    0.6280   -1.0000 cf        1 2O7      0.009100
      7 C15        -1.0660    0.0290   -2.2680 ch        1 2O7      0.199500
      8 C20        -2.7090    5.1630   -1.7180 ca        1 2O7      0.017900
      9 C21        -3.6220    4.7870   -2.7070 ca        1 2O7     -0.102000
     10 C24        -3.0710    2.4570   -2.2830 ca        1 2O7     -0.093000
     11 O28        -1.0370    3.0590    1.5360 o         1 2O7     -0.560500
     12 C32        -2.3200   -1.4260    0.8090 ca        1 2O7     -0.063300
     13 C33        -2.6770   -1.1230    2.1290 ca        1 2O7     -0.122500
     14 C35        -4.0150   -1.1090    2.5140 ca        1 2O7     -0.091500
     15 N2         -0.3360    0.8190    1.3090 n         1 2O7     -0.388800
     16 C6          2.0270    0.3040    1.0230 c3        1 2O7     -0.104400
     17 N16        -1.1390   -0.4780   -3.3140 n1        1 2O7     -0.335800
     18 C17        -2.1520    2.8450   -1.2960 ca        1 2O7     -0.046800
     19 C18        -1.9790    4.2070   -1.0070 ca        1 2O7     -0.093000
     20 C23        -3.7970    3.4270   -2.9780 ca        1 2O7      0.017900
     21 CL26       -4.9080    2.9480   -4.1680 cl        1 2O7     -0.074400
     22 C29        -0.8890   -1.4780    0.4060 c3        1 2O7     -0.019100
     23 C37        -5.0150   -1.4090    1.5790 ca        1 2O7     -0.015000
     24 C38        -4.6640   -1.7210    0.2580 ca        1 2O7     -0.091500
     25 C40        -3.3240   -1.7290   -0.1190 ca        1 2O7     -0.122500
     26 C42        -6.3820   -1.4000    1.9690 cg        1 2O7      0.232800
     27 N43        -7.5000   -1.3930    2.2880 n1        1 2O7     -0.361800
     28 H31         1.2040    1.9520    2.2550 h1        1 2O7      0.070700
     29 H32         0.8930    0.2800    2.9070 h1        1 2O7      0.070700
     30 H91         1.5540    0.1860   -1.1120 hc        1 2O7      0.065200
     31 H92         1.5120   -1.4010   -0.2520 hc        1 2O7      0.065200
     32 H21        -4.1950    5.5470   -3.2600 ha        1 2O7      0.166000
     33 H24        -3.2270    1.3890   -2.5030 ha        1 2O7      0.166000
     34 H33        -1.8950   -0.8860    2.8670 ha        1 2O7      0.144500
     35 H35        -4.2870   -0.8630    3.5520 ha        1 2O7      0.147500
     36 H61         2.6350   -0.4640    1.5600 hc        1 2O7      0.059700
     37 H62         2.7230    1.1050    0.6710 hc        1 2O7      0.059700
     38 H18        -1.2790    4.5190   -0.2130 ha        1 2O7      0.166000
     39 H291       -0.7790   -2.0830   -0.5350 hc        1 2O7      0.065200
     40 H292       -0.3020   -1.9920    1.2160 hc        1 2O7      0.065200
     41 H38        -5.4470   -1.9600   -0.4790 ha        1 2O7      0.147500
     42 H40        -3.0550   -1.9790   -1.1580 ha        1 2O7      0.144500
     43 CL27       -2.4860    6.8110   -1.3730 cl        1 2O7     -0.074400
@<TRIPOS>BOND
     1    1    3 1   
     2    1    6 1   
     3    1   15 1   
     4    1   22 1   
     5    2   15 1   
     6    2   16 1   
     7    2   28 1   
     8    2   29 1   
     9    3   16 1   
    10    3   30 1   
    11    3   31 1   
    12    4    5 1   
    13    4   11 2   
    14    4   15 1   
    15    5    6 2   
    16    5   18 1   
    17    6    7 1   
    18    7   17 3   
    19    8    9 ar  
    20    8   19 ar  
    21    8   43 1   
    22    9   20 ar  
    23    9   32 1   
    24   10   18 ar  
    25   10   20 ar  
    26   10   33 1   
    27   12   13 ar  
    28   12   22 1   
    29   12   25 ar  
    30   13   14 ar  
    31   13   34 1   
    32   14   23 ar  
    33   14   35 1   
    34   16   36 1   
    35   16   37 1   
    36   18   19 ar  
    37   19   38 1   
    38   20   21 1   
    39   22   39 1   
    40   22   40 1   
    41   23   24 ar  
    42   23   26 1   
    43   24   25 ar  
    44   24   41 1   
    45   25   42 1   
    46   26   27 3   
@<TRIPOS>SUBSTRUCTURE
     1 2O7         1 TEMP              0 ****  ****    0 ROOT
