@<TRIPOS>MOLECULE
2O7
   43    46     1     0     0
SMALL
bcc


@<TRIPOS>ATOM
      1 C1         -0.2560   -0.1170    0.0910 c3        1 2O7      0.103600
      2 C3          0.9290    0.9110    1.9140 c3        1 2O7      0.049000
      3 C9          1.2570   -0.3260   -0.1830 c3        1 2O7     -0.091400
      4 C12        -0.9470    2.0460    0.7660 c         1 2O7      0.666700
      5 C13        -1.4050    1.8300   -0.6640 ce        1 2O7     -0.045400
      6 C14        -0.9590    0.6070   -1.0630 cf        1 2O7      0.009100
      7 C15        -1.0660   -0.0100   -2.3250 ch        1 2O7      0.199500
      8 C20        -2.7040    5.1350   -1.8600 ca        1 2O7      0.017900
      9 C21        -3.6100    4.7460   -2.8510 ca        1 2O7     -0.102000
     10 C24        -3.0670    2.4210   -2.3900 ca        1 2O7     -0.093000
     11 O28        -1.0630    3.0740    1.4370 o         1 2O7     -0.560500
     12 C32        -2.3490   -1.4190    0.7620 ca        1 2O7     -0.063300
     13 C33        -2.7160   -1.0960    2.0750 ca        1 2O7     -0.122500
     14 C35        -4.0580   -1.0740    2.4480 ca        1 2O7     -0.091500
     15 N2         -0.3640    0.8300    1.2470 n         1 2O7     -0.388800
     16 C6          2.0000    0.3070    0.9880 c3        1 2O7     -0.104400
     17 N16        -1.1310   -0.5310   -3.3640 n1        1 2O7     -0.335800
     18 C17        -2.1550    2.8220   -1.4010 ca        1 2O7     -0.046800
     19 C18        -1.9820    4.1880   -1.1300 ca        1 2O7     -0.093000
     20 C23        -3.7850    3.3820   -3.1040 ca        1 2O7      0.017900
     21 Cl26       -4.8880    2.8880   -4.2970 cl        1 2O7     -0.074400
     22 C29        -0.9140   -1.4780    0.3730 c3        1 2O7     -0.019100
     23 C37        -5.0500   -1.3860    1.5090 ca        1 2O7     -0.015000
     24 C38        -4.6890   -1.7180    0.1950 ca        1 2O7     -0.091500
     25 C40        -3.3450   -1.7340   -0.1700 ca        1 2O7     -0.122500
     26 C42        -6.4200   -1.3690    1.8870 cg        1 2O7      0.232800
     27 N43        -7.5410   -1.3560    2.1970 n1        1 2O7     -0.361800
     28 H31         0.8500    0.3120    2.8630 h1        1 2O7      0.070700
     29 H32         1.1700    1.9740    2.1900 h1        1 2O7      0.070700
     30 H91         1.5440    0.1590   -1.1490 hc        1 2O7      0.065200
     31 H92         1.4930   -1.4150   -0.2670 hc        1 2O7      0.065200
     32 H21        -4.1780    5.4990   -3.4200 ha        1 2O7      0.166000
     33 H24        -3.2230    1.3500   -2.5960 ha        1 2O7      0.166000
     34 H33        -1.9400   -0.8500    2.8160 ha        1 2O7      0.144500
     35 H35        -4.3380   -0.8130    3.4800 ha        1 2O7      0.147500
     36 H61         2.6020   -0.4540    1.5410 hc        1 2O7      0.059700
     37 H62         2.7000    1.1020    0.6310 hc        1 2O7      0.059700
     38 H18        -1.2880    4.5090   -0.3340 ha        1 2O7      0.166000
     39 H291       -0.3350   -1.9820    1.1950 hc        1 2O7      0.065200
     40 H292       -0.7970   -2.0970   -0.5580 hc        1 2O7      0.065200
     41 H38        -5.4650   -1.9660   -0.5440 ha        1 2O7      0.147500
     42 H40        -3.0680   -1.9980   -1.2020 ha        1 2O7      0.144500
     43 Cl27       -2.4820    6.7870   -1.5380 cl        1 2O7     -0.074400
@<TRIPOS>BOND
     1    1    3 1   
     2    1    6 1   
     3    1   15 1   
     4    1   22 1   
     5    2   15 1   
     6    2   16 1   
     7    2   28 1   
     8    2   29 1   
     9    3   16 1   
    10    3   30 1   
    11    3   31 1   
    12    4    5 1   
    13    4   11 2   
    14    4   15 1   
    15    5    6 2   
    16    5   18 1   
    17    6    7 1   
    18    7   17 3   
    19    8    9 ar  
    20    8   19 ar  
    21    8   43 1   
    22    9   20 ar  
    23    9   32 1   
    24   10   18 ar  
    25   10   20 ar  
    26   10   33 1   
    27   12   13 ar  
    28   12   22 1   
    29   12   25 ar  
    30   13   14 ar  
    31   13   34 1   
    32   14   23 ar  
    33   14   35 1   
    34   16   36 1   
    35   16   37 1   
    36   18   19 ar  
    37   19   38 1   
    38   20   21 1   
    39   22   39 1   
    40   22   40 1   
    41   23   24 ar  
    42   23   26 1   
    43   24   25 ar  
    44   24   41 1   
    45   25   42 1   
    46   26   27 3   
@<TRIPOS>SUBSTRUCTURE
     1 2O7         1 TEMP              0 ****  ****    0 ROOT
