@<TRIPOS>MOLECULE
2O8
   21    21     1     0     0
SMALL
bcc


@<TRIPOS>ATOM
      1 O          -0.0510    0.0140   -0.1720 o         1 2O8     -0.421100
      2 C01         1.8420    0.0080    3.6540 ca        1 2O8     -0.136500
      3 C02         3.2410   -0.0050    3.7190 ca        1 2O8      0.052900
      4 N           1.9450   -0.0040   -1.3110 nz        1 2O8     -0.763400
      5 C03         1.1610    0.0050   -0.0030 c         1 2O8      0.578700
      6 F01         2.1560   -1.0720    6.6480 f         1 2O8     -0.197967
      7 F02         2.1750    1.0970    6.6420 f         1 2O8     -0.197967
      8 F           3.7150    0.0010    7.7340 f         1 2O8     -0.197967
      9 C04         2.9940    0.0050    6.5790 c3        1 2O8      0.719000
     10 C05         3.9780   -0.0140    2.5120 ca        1 2O8     -0.136500
     11 S           4.1800   -0.0100    5.1030 ss        1 2O8     -0.064000
     12 C06         1.1880    0.0100    2.4280 ca        1 2O8     -0.031000
     13 C07         1.9270    0.0010    1.2280 ca        1 2O8     -0.233600
     14 C           3.3350   -0.0120    1.2880 ca        1 2O8     -0.031000
     15 H1          1.2410    0.0150    4.5820 ha        1 2O8      0.176500
     16 H2          1.2910    0.0000   -2.1040 hn        1 2O8      0.467467
     17 H3          2.5440    0.8240   -1.3630 hn        1 2O8      0.467467
     18 H4          5.0820   -0.0240    2.5530 ha        1 2O8      0.176500
     19 H5          0.0830    0.0200    2.3930 ha        1 2O8      0.153000
     20 H6          3.9550   -0.0190    0.3790 ha        1 2O8      0.153000
     21 HN3         2.5300   -0.8420   -1.3610 hn        1 2O8      0.467467
@<TRIPOS>BOND
     1    1    5 2   
     2    2    3 ar  
     3    2   12 ar  
     4    2   15 1   
     5    3   10 ar  
     6    3   11 1   
     7    4    5 1   
     8    4   16 1   
     9    4   17 1   
    10    4   21 1   
    11    5   13 1   
    12    6    9 1   
    13    7    9 1   
    14    8    9 1   
    15    9   11 1   
    16   10   14 ar  
    17   10   18 1   
    18   12   13 ar  
    19   12   19 1   
    20   13   14 ar  
    21   14   20 1   
@<TRIPOS>SUBSTRUCTURE
     1 2O8         1 TEMP              0 ****  ****    0 ROOT
