@<TRIPOS>MOLECULE
2O8
   21    21     1     0     0
SMALL
bcc


@<TRIPOS>ATOM
      1 O          -0.0520    0.0040   -0.1710 o         1 2O8     -0.421100
      2 C01         1.8430    0.0070    3.6540 ca        1 2O8     -0.136500
      3 C02         3.2420   -0.0010    3.7190 ca        1 2O8      0.052900
      4 N           1.9430   -0.0080   -1.3100 n4        1 2O8     -0.763400
      5 C03         1.1590   -0.0010   -0.0020 c         1 2O8      0.578700
      6 F01         2.1620   -1.0690    6.6490 f         1 2O8     -0.197967
      7 F02         2.1750    1.0990    6.6410 f         1 2O8     -0.197967
      8 F           3.7190    0.0100    7.7340 f         1 2O8     -0.197967
      9 C04         2.9970    0.0100    6.5790 c3        1 2O8      0.719000
     10 C05         3.9780   -0.0100    2.5110 ca        1 2O8     -0.136500
     11 S           4.1820   -0.0030    5.1020 ss        1 2O8     -0.064000
     12 C06         1.1880    0.0070    2.4290 ca        1 2O8     -0.031000
     13 C07         1.9260   -0.0020    1.2290 ca        1 2O8     -0.233600
     14 C           3.3340   -0.0100    1.2880 ca        1 2O8     -0.031000
     15 H1          1.2430    0.0130    4.5830 ha        1 2O8      0.176500
     16 H2          2.5300   -0.8440   -1.3600 hn        1 2O8      0.467467
     17 H3          1.2880   -0.0060   -2.1030 hn        1 2O8      0.467467
     18 H4          5.0820   -0.0160    2.5510 ha        1 2O8      0.176500
     19 H5          0.0830    0.0130    2.3950 ha        1 2O8      0.153000
     20 H6          3.9540   -0.0170    0.3780 ha        1 2O8      0.153000
     21 HN3         2.5390    0.8220   -1.3630 hn        1 2O8      0.467467
@<TRIPOS>BOND
     1    1    5 2   
     2    2    3 ar  
     3    2   12 ar  
     4    2   15 1   
     5    3   10 ar  
     6    3   11 1   
     7    4    5 1   
     8    4   16 1   
     9    4   17 1   
    10    4   21 1   
    11    5   13 1   
    12    6    9 1   
    13    7    9 1   
    14    8    9 1   
    15    9   11 1   
    16   10   14 ar  
    17   10   18 1   
    18   12   13 ar  
    19   12   19 1   
    20   13   14 ar  
    21   14   20 1   
@<TRIPOS>SUBSTRUCTURE
     1 2O8         1 TEMP              0 ****  ****    0 ROOT
