@<TRIPOS>MOLECULE
2OD
   51    50     1     0     0
SMALL
bcc


@<TRIPOS>ATOM
      1 N1          1.6880    4.4580    2.2230 n3        1 2OD     -0.250000
      2 N3         -0.1830   -3.7270   -4.8950 n3        1 2OD     -0.334000
      3 C4         -0.9950   -2.9920   -1.3560 c1        1 2OD     -0.064000
      4 C5         -0.3220   -1.7550   -1.8710 c1        1 2OD     -0.064000
      5 C6         -0.2160   -0.6330   -1.0580 c1        1 2OD     -0.123000
      6 C7         -0.7440   -0.6570    0.2600 c1        1 2OD      0.076000
      7 C8         -0.4890    1.4630    1.3690 c3        1 2OD     -0.023000
      8 C10         0.9940    3.5050    1.3580 c3        1 2OD     -0.064000
      9 C13         3.6030    5.7460    2.2680 c3        1 2OD     -0.171000
     10 C15        -0.0800   -3.3620   -3.5100 c2        1 2OD      0.098000
     11 C17        -0.2090   -5.4630   -2.3090 cy        1 2OD     -0.148000
     12 C16        -0.7970   -4.0670   -2.5400 cv        1 2OD     -0.038000
     13 C19        -2.1170   -4.7270   -2.9930 cy        1 2OD     -0.148000
     14 C18        -1.5220   -6.0990   -2.7600 cy        1 2OD     -0.180000
     15 C3         -1.5040   -3.0150   -0.0890 c1        1 2OD     -0.123000
     16 N2          0.1800   -2.1460   -3.1870 n1        1 2OD     -0.204000
     17 C2         -1.3940   -1.8480    0.7560 c1        1 2OD     -0.002000
     18 O1         -1.8390   -1.9110    2.1600 os        1 2OD     -0.214000
     19 C1         -3.2410   -2.0600    2.3120 c3        1 2OD     -0.075000
     20 O2          0.1370    0.2250    0.9340 os        1 2OD     -0.210000
     21 C9          0.5360    2.3100    2.1850 c3        1 2OD     -0.166000
     22 C14         2.9940    4.2970    2.1090 c3        1 2OD     -0.078000
     23 C12         2.4130    6.7120    2.1740 c3        1 2OD     -0.171000
     24 C11         1.3830    5.9590    1.7350 c3        1 2OD     -0.078000
     25 H2          0.2360   -3.2240   -5.5310 hn        1 2OD      0.218500
     26 H3         -0.7170   -4.4400   -5.1480 hn        1 2OD      0.218500
     27 H4          0.2120    0.1510   -1.3850 ha        1 2OD      0.151000
     28 H5         -0.7760    1.9570    0.6100 h1        1 2OD      0.081000
     29 H6         -1.2600    1.2550    1.9340 h1        1 2OD      0.081000
     30 H7          1.6120    3.1950    0.6410 h1        1 2OD      0.070000
     31 H8          0.1580    3.9710    0.9270 h1        1 2OD      0.070000
     32 H9          4.2610    5.9310    1.5260 hc        1 2OD      0.086250
     33 H10         4.0810    5.8400    3.2200 hc        1 2OD      0.086250
     34 H11         0.5490   -5.6650   -2.9210 hc        1 2OD      0.102000
     35 H12        -0.0160   -5.6330   -1.4040 hc        1 2OD      0.102000
     36 H13        -2.8970   -4.5220   -2.3640 hc        1 2OD      0.102000
     37 H14        -2.3230   -4.5570   -3.9480 hc        1 2OD      0.102000
     38 H15        -1.4290   -6.6120   -3.5820 hc        1 2OD      0.092500
     39 H16        -1.9900   -6.6060   -2.0150 hc        1 2OD      0.092500
     40 H17        -1.9330   -3.8050    0.2370 ha        1 2OD      0.151000
     41 H18        -3.7190   -1.4340    1.6720 h1        1 2OD      0.080667
     42 H19        -3.5020   -3.0230    2.1070 h1        1 2OD      0.080667
     43 H20        -3.5010   -1.8360    3.2550 h1        1 2OD      0.080667
     44 H21         0.1080    2.6320    3.0160 hc        1 2OD      0.104000
     45 H22         1.2990    1.7610    2.4060 hc        1 2OD      0.104000
     46 H23         3.3400    3.6910    2.8360 h1        1 2OD      0.081750
     47 H24         3.2230    3.9240    1.2030 h1        1 2OD      0.081750
     48 H25         2.6200    7.4670    1.5010 hc        1 2OD      0.086250
     49 H26         2.2000    7.1040    3.0940 hc        1 2OD      0.086250
     50 H27         1.3320    5.9940    0.7230 h1        1 2OD      0.081750
     51 H28         0.5590    6.2710    2.1180 h1        1 2OD      0.081750
@<TRIPOS>BOND
     1    1    8 1   
     2    1   22 1   
     3    1   24 1   
     4    2   10 1   
     5    2   25 1   
     6    2   26 1   
     7    3    4 1   
     8    3   15 1   
     9    4    5 1   
    10    5   27 1   
    11    6   17 1   
    12    6   20 1   
    13    7   20 1   
    14    7   21 1   
    15    7   28 1   
    16    7   29 1   
    17    8   21 1   
    18    8   30 1   
    19    8   31 1   
    20    9   22 1   
    21    9   23 1   
    22    9   32 1   
    23    9   33 1   
    24   10   12 1   
    25   10   16 1   
    26   11   12 1   
    27   11   14 1   
    28   11   34 1   
    29   11   35 1   
    30   12   13 1   
    31   13   14 1   
    32   13   36 1   
    33   13   37 1   
    34   14   38 1   
    35   14   39 1   
    36   15   40 1   
    37   17   18 1   
    38   18   19 1   
    39   19   41 1   
    40   19   42 1   
    41   19   43 1   
    42   21   44 1   
    43   21   45 1   
    44   22   46 1   
    45   22   47 1   
    46   23   24 1   
    47   23   48 1   
    48   23   49 1   
    49   24   50 1   
    50   24   51 1   
@<TRIPOS>SUBSTRUCTURE
     1 2OD         1 TEMP              0 ****  ****    0 ROOT
