@<TRIPOS>MOLECULE
2OD
   51    54     1     0     0
SMALL
bcc


@<TRIPOS>ATOM
      1 N1          5.7210    0.2220   -0.4680 n3        1 2OD     -0.724600
      2 N3         -5.1760    2.9870    0.1730 nh        1 2OD     -0.889800
      3 C4         -3.0730   -0.0080    0.0230 ca        1 2OD     -0.140300
      4 C5         -2.1730    1.0990   -0.1080 ca        1 2OD      0.142400
      5 C6         -0.8000    0.8850   -0.2240 ca        1 2OD     -0.161000
      6 C7         -0.3340   -0.4360   -0.2080 ca        1 2OD      0.119100
      7 C8          1.9290    0.2950   -0.3480 c3        1 2OD      0.124400
      8 C10         4.3690    0.7410   -0.3580 c3        1 2OD      0.171800
      9 C13         7.8960    1.0350    0.3160 c3        1 2OD     -0.092400
     10 C15        -4.1560    2.0700    0.0340 c2        1 2OD      0.601200
     11 C17        -5.3320    0.1000    1.3200 cy        1 2OD     -0.068400
     12 C16        -4.4560    0.5490    0.1260 cy        1 2OD     -0.106000
     13 C19        -5.5270    0.0100   -0.8530 cy        1 2OD     -0.068400
     14 C18        -6.4100   -0.4090    0.3400 cy        1 2OD     -0.102400
     15 C3         -2.6120   -1.3090    0.0410 ca        1 2OD     -0.131000
     16 N2         -2.8550    2.3500   -0.1080 ne        1 2OD     -0.621100
     17 C2         -1.2320   -1.5280   -0.0740 ca        1 2OD      0.074100
     18 O1         -0.6370   -2.7760   -0.0500 os        1 2OD     -0.303900
     19 C1         -1.5250   -3.8860   -0.0880 c3        1 2OD      0.111700
     20 O2          0.9940   -0.7920   -0.3280 os        1 2OD     -0.307900
     21 C9          3.3020   -0.3520   -0.4000 c3        1 2OD     -0.087400
     22 C14         6.7300    1.2670   -0.6570 c3        1 2OD      0.159300
     23 C12         7.5220   -0.1880    1.1420 c3        1 2OD     -0.092400
     24 C11         6.1370   -0.6320    0.6470 c3        1 2OD      0.159300
     25 H2         -4.9830    3.9310   -0.0700 hn        1 2OD      0.418300
     26 H3         -6.0810    2.6500   -0.0640 hn        1 2OD      0.418300
     27 H4         -0.1130    1.7350   -0.3260 ha        1 2OD      0.155000
     28 H5          1.7460    0.9280   -1.2560 h1        1 2OD      0.038700
     29 H6          1.8060    0.9170    0.5770 h1        1 2OD      0.038700
     30 H7          4.2210    1.3480    0.5850 h1        1 2OD      0.029200
     31 H8          4.2050    1.4330   -1.2330 h1        1 2OD      0.029200
     32 H9          8.8450    0.8640   -0.2490 hc        1 2OD      0.046700
     33 H10         8.0450    1.9310    0.9670 hc        1 2OD      0.046700
     34 H11        -4.8570   -0.7000    1.9280 hc        1 2OD      0.061950
     35 H12        -5.6620    0.9280    1.9810 hc        1 2OD      0.061950
     36 H13        -5.9760    0.7820   -1.5120 hc        1 2OD      0.061950
     37 H14        -5.1630   -0.8400   -1.4700 hc        1 2OD      0.061950
     38 H15        -6.6000   -1.5010    0.4010 hc        1 2OD      0.052700
     39 H16        -7.3730    0.1390    0.4040 hc        1 2OD      0.052700
     40 H17        -3.3110   -2.1500    0.1450 ha        1 2OD      0.140000
     41 H18        -0.8360   -4.7670   -0.1470 h1        1 2OD      0.041033
     42 H19        -2.1390   -3.9310    0.8450 h1        1 2OD      0.041033
     43 H20        -2.1850   -3.8410   -0.9880 h1        1 2OD      0.041033
     44 H21         3.4170   -1.0540    0.4660 hc        1 2OD      0.066200
     45 H22         3.3960   -0.9600   -1.3370 hc        1 2OD      0.066200
     46 H23         7.0840    1.1890   -1.7210 h1        1 2OD      0.042450
     47 H24         6.3090    2.3000   -0.5130 h1        1 2OD      0.042450
     48 H25         8.2670   -1.0090    1.0010 hc        1 2OD      0.046700
     49 H26         7.4880    0.0570    2.2310 hc        1 2OD      0.046700
     50 H27         5.4010   -0.6110    1.4970 h1        1 2OD      0.042450
     51 H28         6.1780   -1.6850    0.2570 h1        1 2OD      0.042450
@<TRIPOS>BOND
     1    1    8 1   
     2    1   22 1   
     3    1   24 1   
     4    2   10 1   
     5    2   25 1   
     6    2   26 1   
     7    3    4 ar  
     8    3   12 1   
     9    3   15 ar  
    10    4    5 ar  
    11    4   16 1   
    12    5    6 ar  
    13    5   27 1   
    14    6   17 ar  
    15    6   20 1   
    16    7   20 1   
    17    7   21 1   
    18    7   28 1   
    19    7   29 1   
    20    8   21 1   
    21    8   30 1   
    22    8   31 1   
    23    9   22 1   
    24    9   23 1   
    25    9   32 1   
    26    9   33 1   
    27   10   12 1   
    28   10   16 2   
    29   11   12 1   
    30   11   14 1   
    31   11   34 1   
    32   11   35 1   
    33   12   13 1   
    34   13   14 1   
    35   13   36 1   
    36   13   37 1   
    37   14   38 1   
    38   14   39 1   
    39   15   17 ar  
    40   15   40 1   
    41   17   18 1   
    42   18   19 1   
    43   19   41 1   
    44   19   42 1   
    45   19   43 1   
    46   21   44 1   
    47   21   45 1   
    48   22   46 1   
    49   22   47 1   
    50   23   24 1   
    51   23   48 1   
    52   23   49 1   
    53   24   50 1   
    54   24   51 1   
@<TRIPOS>SUBSTRUCTURE
     1 2OD         1 TEMP              0 ****  ****    0 ROOT
