@<TRIPOS>MOLECULE
2OD
   52    55     1     0     0
SMALL
bcc


@<TRIPOS>ATOM
      1 N1          0.0120   -0.0160    0.0230 n3        1 2OD     -0.726600
      2 N3         -5.1680    8.2430   -5.7530 n4        1 2OD     -0.755600
      3 C4         -5.9790    5.0590   -4.0060 ca        1 2OD     -0.066300
      4 C5         -4.5700    5.2560   -3.8180 ca        1 2OD      0.035400
      5 C6         -3.7990    4.3380   -3.0950 ca        1 2OD     -0.096000
      6 C7         -4.4470    3.2210   -2.5650 ca        1 2OD      0.113100
      7 C8         -2.4120    2.3560   -1.6660 c3        1 2OD      0.122400
      8 C10        -0.4950    1.1870   -0.6110 c3        1 2OD      0.176800
      9 C13         1.9360   -0.4650    1.4710 c3        1 2OD     -0.092400
     10 C15        -5.1920    6.9950   -5.0040 c2        1 2OD      0.337200
     11 C17        -7.7110    6.9970   -4.2570 cy        1 2OD     -0.070400
     12 C16        -6.4990    6.2110   -4.8150 cy        1 2OD     -0.090000
     13 C19        -7.3100    5.8860   -6.0950 cy        1 2OD     -0.070400
     14 C18        -8.5050    6.6900   -5.5440 cy        1 2OD     -0.100400
     15 C3         -6.6190    3.9560   -3.4790 ca        1 2OD     -0.169000
     16 N2         -4.1220    6.4490   -4.4400 ne        1 2OD     -0.409100
     17 C2         -5.8530    3.0270   -2.7540 ca        1 2OD      0.170100
     18 O1         -6.3540    1.8940   -2.1780 os        1 2OD     -0.275900
     19 C1         -7.7520    1.6490   -2.3400 c3        1 2OD      0.101700
     20 O2         -3.8360    2.2350   -1.8320 os        1 2OD     -0.292900
     21 C9         -1.9960    1.1150   -0.8950 c3        1 2OD     -0.088400
     22 C14         1.4750   -0.0880    0.0550 c3        1 2OD      0.158800
     23 C12         0.6720   -0.5780    2.3140 c3        1 2OD     -0.092400
     24 C11        -0.4990   -0.2540    1.3740 c3        1 2OD      0.158800
     25 H2         -4.2210    8.6440   -5.7890 hn        1 2OD      0.470133
     26 H3         -5.8060    8.9070   -5.2980 hn        1 2OD      0.470133
     27 H4         -2.7190    4.4980   -2.9540 ha        1 2OD      0.174000
     28 H5         -1.9190    2.3950   -2.6720 h1        1 2OD      0.042700
     29 H6         -2.1870    3.2920   -1.0910 h1        1 2OD      0.042700
     30 H7          0.0500    1.3050   -1.5920 h1        1 2OD      0.028700
     31 H8         -0.2930    2.1150    0.0020 h1        1 2OD      0.028700
     32 H9          2.4930   -1.4330    1.4530 hc        1 2OD      0.051450
     33 H10         2.6230    0.3160    1.8790 hc        1 2OD      0.051450
     34 H11        -8.1380    6.5350   -3.3390 hc        1 2OD      0.070700
     35 H12        -7.5210    8.0740   -4.0700 hc        1 2OD      0.070700
     36 H13        -6.8730    6.2820   -7.0350 hc        1 2OD      0.070700
     37 H14        -7.5100    4.7980   -6.2140 hc        1 2OD      0.070700
     38 H15        -8.7710    7.5870   -6.1430 hc        1 2OD      0.073700
     39 H16        -9.4200    6.0820   -5.3760 hc        1 2OD      0.073700
     40 H17        -7.6990    3.8060   -3.6240 ha        1 2OD      0.161000
     41 H18        -7.8990    0.6830   -1.7900 h1        1 2OD      0.059700
     42 H19        -8.0080    1.5340   -3.4200 h1        1 2OD      0.059700
     43 H20        -8.3500    2.4670   -1.8710 h1        1 2OD      0.059700
     44 H21        -2.5770    1.0530    0.0610 hc        1 2OD      0.073200
     45 H22        -2.2410    0.2010   -1.4960 hc        1 2OD      0.073200
     46 H23         1.9580    0.8770   -0.2630 h1        1 2OD      0.042950
     47 H24         1.7780   -0.8820   -0.6810 h1        1 2OD      0.042950
     48 H25         0.6950    0.1370    3.1720 hc        1 2OD      0.051450
     49 H26         0.5610   -1.6080    2.7320 hc        1 2OD      0.051450
     50 H27        -1.2040   -1.1280    1.3090 h1        1 2OD      0.042950
     51 H28        -1.0790    0.6250    1.7700 h1        1 2OD      0.042950
     52 H33        -5.4970    8.0530   -6.7080 hn        1 2OD      0.470133
@<TRIPOS>BOND
     1    1    8 1   
     2    1   22 1   
     3    1   24 1   
     4    2   10 1   
     5    2   25 1   
     6    2   26 1   
     7    2   52 1   
     8    3    4 ar  
     9    3   12 1   
    10    3   15 ar  
    11    4    5 ar  
    12    4   16 1   
    13    5    6 ar  
    14    5   27 1   
    15    6   17 ar  
    16    6   20 1   
    17    7   20 1   
    18    7   21 1   
    19    7   28 1   
    20    7   29 1   
    21    8   21 1   
    22    8   30 1   
    23    8   31 1   
    24    9   22 1   
    25    9   23 1   
    26    9   32 1   
    27    9   33 1   
    28   10   12 1   
    29   10   16 2   
    30   11   12 1   
    31   11   14 1   
    32   11   34 1   
    33   11   35 1   
    34   12   13 1   
    35   13   14 1   
    36   13   36 1   
    37   13   37 1   
    38   14   38 1   
    39   14   39 1   
    40   15   17 ar  
    41   15   40 1   
    42   17   18 1   
    43   18   19 1   
    44   19   41 1   
    45   19   42 1   
    46   19   43 1   
    47   21   44 1   
    48   21   45 1   
    49   22   46 1   
    50   22   47 1   
    51   23   24 1   
    52   23   48 1   
    53   23   49 1   
    54   24   50 1   
    55   24   51 1   
@<TRIPOS>SUBSTRUCTURE
     1 2OD         1 TEMP              0 ****  ****    0 ROOT
