@<TRIPOS>MOLECULE
2OD
   52    55     1     0     0
SMALL
bcc


@<TRIPOS>ATOM
      1 N1          0.0120   -0.0170    0.0220 n3        1 2OD     -0.725600
      2 N3         -5.1680    8.2440   -5.7500 n4        1 2OD     -0.755600
      3 C4         -5.9780    5.0590   -4.0060 ca        1 2OD     -0.066300
      4 C5         -4.5700    5.2560   -3.8180 ca        1 2OD      0.035400
      5 C6         -3.7980    4.3360   -3.0960 ca        1 2OD     -0.096000
      6 C7         -4.4460    3.2190   -2.5670 ca        1 2OD      0.113100
      7 C8         -2.4110    2.3540   -1.6680 c3        1 2OD      0.122400
      8 C10        -0.4940    1.1850   -0.6130 c3        1 2OD      0.176800
      9 C13         1.9350   -0.4640    1.4720 c3        1 2OD     -0.092900
     10 C15        -5.1920    6.9960   -5.0030 c2        1 2OD      0.337200
     11 C17        -7.7110    6.9970   -4.2530 cy        1 2OD     -0.070400
     12 C16        -6.4990    6.2120   -4.8140 cy        1 2OD     -0.090000
     13 C19        -7.3110    5.8880   -6.0930 cy        1 2OD     -0.070400
     14 C18        -8.5060    6.6920   -5.5400 cy        1 2OD     -0.100400
     15 C3         -6.6190    3.9550   -3.4800 ca        1 2OD     -0.169000
     16 N2         -4.1220    6.4490   -4.4400 ne        1 2OD     -0.409100
     17 C2         -5.8530    3.0260   -2.7560 ca        1 2OD      0.170100
     18 O1         -6.3530    1.8920   -2.1810 os        1 2OD     -0.275900
     19 C1         -7.7510    1.6480   -2.3420 c3        1 2OD      0.101700
     20 O2         -3.8360    2.2330   -1.8360 os        1 2OD     -0.292900
     21 C9         -1.9950    1.1130   -0.8980 c3        1 2OD     -0.088400
     22 C14         1.4750   -0.0890    0.0550 c3        1 2OD      0.158800
     23 C12         0.6710   -0.5760    2.3140 c3        1 2OD     -0.092900
     24 C11        -0.5000   -0.2540    1.3730 c3        1 2OD      0.158800
     25 H2         -5.8060    8.9080   -5.2940 hn        1 2OD      0.470133
     26 H3         -5.4970    8.0560   -6.7060 hn        1 2OD      0.470133
     27 H4         -2.7190    4.4970   -2.9560 ha        1 2OD      0.174000
     28 H5         -1.9180    2.3940   -2.6750 h1        1 2OD      0.042700
     29 H6         -2.1870    3.2900   -1.0930 h1        1 2OD      0.042700
     30 H7         -0.2930    2.1140   -0.0000 h1        1 2OD      0.028700
     31 H8          0.0510    1.3030   -1.5930 h1        1 2OD      0.028700
     32 H9          2.4930   -1.4320    1.4550 hc        1 2OD      0.051450
     33 H10         2.6220    0.3180    1.8800 hc        1 2OD      0.051450
     34 H11        -7.5200    8.0740   -4.0660 hc        1 2OD      0.070700
     35 H12        -8.1370    6.5350   -3.3360 hc        1 2OD      0.070700
     36 H13        -6.8740    6.2850   -7.0330 hc        1 2OD      0.070700
     37 H14        -7.5110    4.8000   -6.2130 hc        1 2OD      0.070700
     38 H15        -9.4200    6.0830   -5.3720 hc        1 2OD      0.073700
     39 H16        -8.7710    7.5890   -6.1390 hc        1 2OD      0.073700
     40 H17        -7.6980    3.8060   -3.6250 ha        1 2OD      0.161000
     41 H18        -8.3490    2.4660   -1.8720 h1        1 2OD      0.059700
     42 H19        -8.0080    1.5340   -3.4220 h1        1 2OD      0.059700
     43 H20        -7.8990    0.6810   -1.7940 h1        1 2OD      0.059700
     44 H21        -2.2390    0.1990   -1.4990 hc        1 2OD      0.073200
     45 H22        -2.5770    1.0510    0.0580 hc        1 2OD      0.073200
     46 H23         1.9590    0.8760   -0.2630 h1        1 2OD      0.042950
     47 H24         1.7780   -0.8830   -0.6800 h1        1 2OD      0.042950
     48 H25         0.6930    0.1410    3.1710 hc        1 2OD      0.051450
     49 H26         0.5600   -1.6050    2.7340 hc        1 2OD      0.051450
     50 H27        -1.0810    0.6250    1.7680 h1        1 2OD      0.042950
     51 H28        -1.2040   -1.1290    1.3090 h1        1 2OD      0.042950
     52 H33        -4.2220    8.6460   -5.7860 hn        1 2OD      0.470133
@<TRIPOS>BOND
     1    1    8 1   
     2    1   22 1   
     3    1   24 1   
     4    2   10 1   
     5    2   25 1   
     6    2   26 1   
     7    2   52 1   
     8    3    4 ar  
     9    3   12 1   
    10    3   15 ar  
    11    4    5 ar  
    12    4   16 1   
    13    5    6 ar  
    14    5   27 1   
    15    6   17 ar  
    16    6   20 1   
    17    7   20 1   
    18    7   21 1   
    19    7   28 1   
    20    7   29 1   
    21    8   21 1   
    22    8   30 1   
    23    8   31 1   
    24    9   22 1   
    25    9   23 1   
    26    9   32 1   
    27    9   33 1   
    28   10   12 1   
    29   10   16 2   
    30   11   12 1   
    31   11   14 1   
    32   11   34 1   
    33   11   35 1   
    34   12   13 1   
    35   13   14 1   
    36   13   36 1   
    37   13   37 1   
    38   14   38 1   
    39   14   39 1   
    40   15   17 ar  
    41   15   40 1   
    42   17   18 1   
    43   18   19 1   
    44   19   41 1   
    45   19   42 1   
    46   19   43 1   
    47   21   44 1   
    48   21   45 1   
    49   22   46 1   
    50   22   47 1   
    51   23   24 1   
    52   23   48 1   
    53   23   49 1   
    54   24   50 1   
    55   24   51 1   
@<TRIPOS>SUBSTRUCTURE
     1 2OD         1 TEMP              0 ****  ****    0 ROOT
