@<TRIPOS>MOLECULE
2OE
   36    38     1     0     0
SMALL
bcc


@<TRIPOS>ATOM
      1 CAL        -0.1290   -0.1540    0.2530 ca        1 2OE     -0.198000
      2 CAQ         1.2150    0.2370    0.1470 ca        1 2OE      0.145100
      3 OAB         1.7180    0.3330   -1.1290 oh        1 2OE     -0.494100
      4 CAG         1.9860    0.5080    1.2870 ca        1 2OE     -0.228000
      5 CAF         1.4050    0.3860    2.5480 ca        1 2OE     -0.073000
      6 CAH         0.0770   -0.0080    2.6880 ca        1 2OE     -0.171000
      7 CAR        -0.6770   -0.2700    1.5330 ca        1 2OE      0.133100
      8 OAO        -2.0270   -0.5410    1.7460 os        1 2OE     -0.245200
      9 CAS        -2.6170   -1.5080    0.9440 ca        1 2OE      0.149100
     10 CAM        -4.0090   -1.4070    0.8060 ca        1 2OE     -0.262300
     11 CAK        -1.9290   -2.5770    0.3630 ca        1 2OE     -0.302300
     12 CAP        -2.6790   -3.5360   -0.3510 ca        1 2OE      0.442600
     13 CAA        -1.9540   -4.6860   -0.9770 c3        1 2OE     -0.150400
     14 NAN        -4.0240   -3.4630   -0.4960 nb        1 2OE     -0.680000
     15 CAU        -4.6720   -2.4150    0.0730 cp        1 2OE      0.489800
     16 CAT        -6.1360   -2.3190   -0.0810 cp        1 2OE     -0.149500
     17 CAI        -6.7290   -1.0710   -0.3140 ca        1 2OE     -0.101000
     18 CAD        -8.1120   -0.9670   -0.4470 ca        1 2OE     -0.137000
     19 CAC        -8.9130   -2.1060   -0.3490 ca        1 2OE     -0.119000
     20 CAE        -8.3260   -3.3500   -0.1220 ca        1 2OE     -0.137000
     21 CAJ        -6.9420   -3.4620    0.0080 ca        1 2OE     -0.101000
     22 H1         -0.7230   -0.3590   -0.6480 ha        1 2OE      0.167000
     23 H2          2.6370    0.6320   -1.0660 ho        1 2OE      0.422000
     24 H3          3.0350    0.8150    1.1850 ha        1 2OE      0.138000
     25 H4          2.0050    0.6000    3.4460 ha        1 2OE      0.139000
     26 H5         -0.3900   -0.1040    3.6780 ha        1 2OE      0.154000
     27 H6         -4.5610   -0.5790    1.2700 ha        1 2OE      0.163000
     28 H7         -0.8390   -2.6710    0.4600 ha        1 2OE      0.158000
     29 H8         -0.8630   -4.6260   -0.7490 hc        1 2OE      0.055367
     30 H9         -2.3500   -5.6570   -0.5880 hc        1 2OE      0.055367
     31 H10        -2.0910   -4.6710   -2.0870 hc        1 2OE      0.055367
     32 H11        -6.1000   -0.1720   -0.4010 ha        1 2OE      0.142000
     33 H12        -8.5720    0.0150   -0.6310 ha        1 2OE      0.133000
     34 H13       -10.0040   -2.0210   -0.4530 ha        1 2OE      0.132000
     35 H14        -8.9550   -4.2500   -0.0490 ha        1 2OE      0.133000
     36 H15        -6.4850   -4.4480    0.1790 ha        1 2OE      0.142000
@<TRIPOS>BOND
     1    1    2 ar  
     2    1    7 ar  
     3    1   22 1   
     4    2    3 1   
     5    2    4 ar  
     6    3   23 1   
     7    4    5 ar  
     8    4   24 1   
     9    5    6 ar  
    10    5   25 1   
    11    6    7 ar  
    12    6   26 1   
    13    7    8 1   
    14    8    9 1   
    15    9   10 ar  
    16    9   11 ar  
    17   10   15 ar  
    18   10   27 1   
    19   11   12 ar  
    20   11   28 1   
    21   12   13 1   
    22   12   14 ar  
    23   13   29 1   
    24   13   30 1   
    25   13   31 1   
    26   14   15 ar  
    27   15   16 1   
    28   16   17 ar  
    29   16   21 ar  
    30   17   18 ar  
    31   17   32 1   
    32   18   19 ar  
    33   18   33 1   
    34   19   20 ar  
    35   19   34 1   
    36   20   21 ar  
    37   20   35 1   
    38   21   36 1   
@<TRIPOS>SUBSTRUCTURE
     1 2OE         1 TEMP              0 ****  ****    0 ROOT
