@<TRIPOS>MOLECULE
2OE
   36    38     1     0     0
SMALL
bcc


@<TRIPOS>ATOM
      1 CAL        -0.1290   -0.1560    0.2370 ca        1 2OE     -0.198000
      2 CAQ         1.2160    0.2340    0.1260 ca        1 2OE      0.145100
      3 OAB         1.7180    0.3190   -1.1510 oh        1 2OE     -0.494100
      4 CAG         1.9870    0.5150    1.2630 ca        1 2OE     -0.228000
      5 CAF         1.4080    0.4040    2.5260 ca        1 2OE     -0.073000
      6 CAH         0.0800    0.0120    2.6700 ca        1 2OE     -0.171000
      7 CAR        -0.6750   -0.2600    1.5180 ca        1 2OE      0.133100
      8 OAO        -2.0250   -0.5280    1.7340 os        1 2OE     -0.245200
      9 CAS        -2.6160   -1.5020    0.9420 ca        1 2OE      0.149100
     10 CAM        -4.0090   -1.4020    0.8040 ca        1 2OE     -0.262300
     11 CAK        -1.9290   -2.5770    0.3700 ca        1 2OE     -0.302300
     12 CAP        -2.6810   -3.5420   -0.3350 ca        1 2OE      0.442600
     13 CAA        -1.9570   -4.6980   -0.9500 c3        1 2OE     -0.150400
     14 NAN        -4.0250   -3.4700   -0.4790 nb        1 2OE     -0.680000
     15 CAU        -4.6730   -2.4170    0.0810 cp        1 2OE      0.489800
     16 CAT        -6.1370   -2.3210   -0.0720 cp        1 2OE     -0.149500
     17 CAI        -6.7290   -1.0750   -0.3160 ca        1 2OE     -0.101000
     18 CAD        -8.1130   -0.9720   -0.4490 ca        1 2OE     -0.137000
     19 CAC        -8.9130   -2.1090   -0.3400 ca        1 2OE     -0.119000
     20 CAE        -8.3270   -3.3520   -0.1030 ca        1 2OE     -0.137000
     21 CAJ        -6.9430   -3.4630    0.0270 ca        1 2OE     -0.101000
     22 H1         -0.7230   -0.3670   -0.6620 ha        1 2OE      0.167000
     23 H2          2.6380    0.6170   -1.0910 ho        1 2OE      0.422000
     24 H3          3.0370    0.8200    1.1580 ha        1 2OE      0.138000
     25 H4          2.0090    0.6250    3.4210 ha        1 2OE      0.139000
     26 H5         -0.3860   -0.0760    3.6610 ha        1 2OE      0.154000
     27 H6         -4.5590   -0.5700    1.2610 ha        1 2OE      0.163000
     28 H7         -0.8390   -2.6700    0.4660 ha        1 2OE      0.158000
     29 H8         -0.8590   -4.6100   -0.7660 hc        1 2OE      0.055033
     30 H9         -2.3190   -5.6610   -0.5100 hc        1 2OE      0.055033
     31 H10        -2.1350   -4.7280   -2.0540 hc        1 2OE      0.055033
     32 H11        -6.1010   -0.1760   -0.4120 ha        1 2OE      0.142000
     33 H12        -8.5720    0.0080   -0.6410 ha        1 2OE      0.133000
     34 H13       -10.0050   -2.0260   -0.4440 ha        1 2OE      0.132000
     35 H14        -8.9560   -4.2510   -0.0210 ha        1 2OE      0.133000
     36 H15        -6.4860   -4.4480    0.2060 ha        1 2OE      0.142000
@<TRIPOS>BOND
     1    1    2 ar  
     2    1    7 ar  
     3    1   22 1   
     4    2    3 1   
     5    2    4 ar  
     6    3   23 1   
     7    4    5 ar  
     8    4   24 1   
     9    5    6 ar  
    10    5   25 1   
    11    6    7 ar  
    12    6   26 1   
    13    7    8 1   
    14    8    9 1   
    15    9   10 ar  
    16    9   11 ar  
    17   10   15 ar  
    18   10   27 1   
    19   11   12 ar  
    20   11   28 1   
    21   12   13 1   
    22   12   14 ar  
    23   13   29 1   
    24   13   30 1   
    25   13   31 1   
    26   14   15 ar  
    27   15   16 1   
    28   16   17 ar  
    29   16   21 ar  
    30   17   18 ar  
    31   17   32 1   
    32   18   19 ar  
    33   18   33 1   
    34   19   20 ar  
    35   19   34 1   
    36   20   21 ar  
    37   20   35 1   
    38   21   36 1   
@<TRIPOS>SUBSTRUCTURE
     1 2OE         1 TEMP              0 ****  ****    0 ROOT
