@<TRIPOS>MOLECULE
2OG
   14    13     1     0     0
SMALL
bcc


@<TRIPOS>ATOM
      1 C1         -0.0140    0.0820    0.0050 c         1 2OG      0.842600
      2 C2          1.4700   -0.3040   -0.0190 c         1 2OG      0.476100
      3 C3          2.2610    0.0730    1.2030 c3        1 2OG     -0.166400
      4 C4          3.7560   -0.0700    1.0480 c3        1 2OG     -0.173400
      5 C5          4.5220    0.1260    2.3590 c         1 2OG      0.902600
      6 O1         -0.8480   -0.7730    0.4200 o         1 2OG     -0.845300
      7 O2         -0.3340    1.2400   -0.3910 o         1 2OG     -0.845300
      8 O2'         1.9720   -0.8920   -0.9890 o         1 2OG     -0.619100
      9 O3          4.1640   -0.5050    3.3990 o         1 2OG     -0.875800
     10 O4          5.5330    0.8950    2.3530 o         1 2OG     -0.875800
     11 H31         2.0020    1.1330    1.4660 hc        1 2OG      0.065700
     12 H32         1.9140   -0.5750    2.0540 hc        1 2OG      0.065700
     13 H41         4.1290    0.6660    0.2910 hc        1 2OG      0.024200
     14 H42         3.9890   -1.0960    0.6620 hc        1 2OG      0.024200
@<TRIPOS>BOND
     1    1    2 1   
     2    1    6 1   
     3    1    7 1   
     4    2    3 1   
     5    2    8 2   
     6    3    4 1   
     7    3   11 1   
     8    3   12 1   
     9    4    5 1   
    10    4   13 1   
    11    4   14 1   
    12    5    9 1   
    13    5   10 1   
@<TRIPOS>SUBSTRUCTURE
     1 2OG         1 TEMP              0 ****  ****    0 ROOT
