@<TRIPOS>MOLECULE
2OG
   14    12     1     0     0
SMALL
bcc


@<TRIPOS>ATOM
      1 C1         -2.3280    0.5080   -1.0610 c1        1 2OG      0.312000
      2 C2         -0.8180    0.4240   -1.0850 c1        1 2OG      0.187000
      3 C3         -0.0400    0.4200    0.2130 c3        1 2OG     -0.195000
      4 C4          1.0870   -0.5850    0.1220 c3        1 2OG     -0.202000
      5 C5          1.8360   -0.6230    1.4360 c2        1 2OG      0.322000
      6 O1         -3.0180   -0.5450   -1.0960 o         1 2OG     -0.580000
      7 O2         -2.8960    1.6310   -1.0070 o         1 2OG     -0.580000
      8 O2'        -0.2300    0.3600   -2.1460 o         1 2OG     -0.380000
      9 O3          1.5780   -1.5190    2.2820 o         1 2OG     -0.610500
     10 O4          2.7180    0.2400    1.6830 o         1 2OG     -0.610500
     11 H31        -0.6360    0.1760    0.9490 hc        1 2OG      0.105000
     12 H32         0.3300    1.3110    0.3740 hc        1 2OG      0.105000
     13 H41         1.6990   -0.3250   -0.5950 hc        1 2OG      0.063500
     14 H42         0.7190   -1.4710   -0.0690 hc        1 2OG      0.063500
@<TRIPOS>BOND
     1    1    6 1   
     2    1    7 1   
     3    2    3 1   
     4    2    8 1   
     5    3    4 1   
     6    3   11 1   
     7    3   12 1   
     8    4    5 1   
     9    4   13 1   
    10    4   14 1   
    11    5    9 1   
    12    5   10 1   
@<TRIPOS>SUBSTRUCTURE
     1 2OG         1 TEMP              0 ****  ****    0 ROOT
