@<TRIPOS>MOLECULE
2OG
   14    13     1     0     0
SMALL
bcc


@<TRIPOS>ATOM
      1 C1          0.3230    0.0000   -2.4500 c         1 2OG      0.823600
      2 C2         -0.5050    0.0000   -1.1540 c         1 2OG      0.452100
      3 C3          0.2630   -0.0000    0.1390 c3        1 2OG     -0.160400
      4 C4         -0.6130   -0.0000    1.3680 c3        1 2OG     -0.172400
      5 C5          0.1390   -0.0000    2.7000 c         1 2OG      0.900600
      6 O1          1.5850   -0.0000   -2.3630 o         1 2OG     -0.836300
      7 O2         -0.2860    0.0000   -3.5590 o         1 2OG     -0.836300
      8 O2'        -1.7460    0.0000   -1.1800 o         1 2OG     -0.601100
      9 O3          1.4050    0.0000    2.7350 o         1 2OG     -0.876300
     10 O4         -0.5600   -0.0000    3.7640 o         1 2OG     -0.876300
     11 H31         0.9400    0.8940    0.1460 hc        1 2OG      0.069700
     12 H32         0.9400   -0.8940    0.1460 hc        1 2OG      0.069700
     13 H41        -1.2820   -0.8990    1.3490 hc        1 2OG      0.021700
     14 H42        -1.2820    0.8990    1.3490 hc        1 2OG      0.021700
@<TRIPOS>BOND
     1    1    2 1   
     2    1    6 1   
     3    1    7 1   
     4    2    3 1   
     5    2    8 2   
     6    3    4 1   
     7    3   11 1   
     8    3   12 1   
     9    4    5 1   
    10    4   13 1   
    11    4   14 1   
    12    5    9 1   
    13    5   10 1   
@<TRIPOS>SUBSTRUCTURE
     1 2OG         1 TEMP              0 ****  ****    0 ROOT
