@<TRIPOS>MOLECULE
2OH
   33    30     1     0     0
SMALL
bcc


@<TRIPOS>ATOM
      1 O2         -5.0660    0.9310    0.1660 oh        1 2OH     -0.252000
      2 C13        -3.6610    0.9730    0.2090 c2        1 2OH      0.076000
      3 C12        -2.9570    1.6100   -0.8020 c2        1 2OH     -0.155000
      4 C11        -1.5700    1.5610   -0.8190 c1        1 2OH     -0.088000
      5 C14        -2.9780    0.2870    1.2030 c1        1 2OH     -0.216000
      6 C15        -1.5930    0.2380    1.1850 c1        1 2OH     -0.091000
      7 C4         -0.8880    0.8750    0.1740 c1        1 2OH     -0.100000
      8 C2          0.6300    0.8870    0.1990 c3        1 2OH      0.035000
      9 C3          1.1100    1.2300    1.5930 c3        1 2OH     -0.204000
     10 C5          1.1460    1.9290   -0.7860 c3        1 2OH     -0.204000
     11 C1          1.1550   -0.4850   -0.1940 c2        1 2OH     -0.100000
     12 C10         2.1710   -0.5950   -1.1350 c2        1 2OH     -0.096000
     13 C9          2.7110   -1.8370   -1.4300 c1        1 2OH     -0.159000
     14 C6          0.6820   -1.6170    0.4500 c1        1 2OH     -0.083000
     15 C7          1.2230   -2.8600    0.1540 c1        1 2OH     -0.211000
     16 C8          2.2390   -2.9690   -0.7870 c1        1 2OH      0.076000
     17 O1          2.7210   -4.2370   -1.1540 oh        1 2OH     -0.252000
     18 HO2        -5.3980    1.4860    0.7770 ho        1 2OH      0.217000
     19 H12        -3.4380    2.0940   -1.5020 ha        1 2OH      0.150000
     20 H11        -1.0740    2.0090   -1.5320 ha        1 2OH      0.141000
     21 H14        -3.4740   -0.1620    1.9170 ha        1 2OH      0.132000
     22 H15        -1.1120   -0.2460    1.8850 ha        1 2OH      0.135000
     23 H31         0.7190    2.0860    1.8720 hc        1 2OH      0.079000
     24 H32         2.0870    1.3020    1.5930 hc        1 2OH      0.079000
     25 H33         0.8340    0.5260    2.2150 hc        1 2OH      0.079000
     26 H51         0.7560    2.8050   -0.5710 hc        1 2OH      0.079000
     27 H52         0.8910    1.6720   -1.6980 hc        1 2OH      0.079000
     28 H53         2.1230    1.9820   -0.7230 hc        1 2OH      0.079000
     29 H10         2.5040    0.2030   -1.5890 ha        1 2OH      0.137000
     30 H9          3.4270   -1.9140   -2.0940 ha        1 2OH      0.149000
     31 H6         -0.0320   -1.5400    1.1110 ha        1 2OH      0.139000
     32 H7          0.8900   -3.6590    0.6090 ha        1 2OH      0.133000
     33 HO1         3.2230   -4.5650   -0.4970 ho        1 2OH      0.217000
@<TRIPOS>BOND
     1    1    2 1   
     2    1   18 1   
     3    2    3 1   
     4    2    5 1   
     5    3    4 1   
     6    3   19 1   
     7    4   20 1   
     8    5   21 1   
     9    6    7 1   
    10    6   22 1   
    11    7    8 1   
    12    8    9 1   
    13    8   10 1   
    14    8   11 1   
    15    9   23 1   
    16    9   24 1   
    17    9   25 1   
    18   10   26 1   
    19   10   27 1   
    20   10   28 1   
    21   11   12 1   
    22   11   14 1   
    23   12   13 1   
    24   12   29 1   
    25   13   30 1   
    26   14   31 1   
    27   15   16 1   
    28   15   32 1   
    29   16   17 1   
    30   17   33 1   
@<TRIPOS>SUBSTRUCTURE
     1 2OH         1 TEMP              0 ****  ****    0 ROOT
