@<TRIPOS>MOLECULE
2OH
   33    34     1     0     0
SMALL
bcc


@<TRIPOS>ATOM
      1 O2          1.8280   -1.0780    4.0010 oh        1 2OH     -0.498100
      2 C13         1.8410   -1.0940    2.6240 ca        1 2OH      0.121100
      3 C12         1.6830   -2.2700    1.8780 ca        1 2OH     -0.185500
      4 C11         1.7100   -2.2010    0.4890 ca        1 2OH     -0.089500
      5 C14         2.0230    0.1390    1.9820 ca        1 2OH     -0.185500
      6 C15         2.0460    0.1850    0.5910 ca        1 2OH     -0.089500
      7 C4          1.8910   -0.9780   -0.1720 ca        1 2OH     -0.107300
      8 C2          1.8830   -0.9630   -1.6830 c3        1 2OH      0.049600
      9 C3          2.2520    0.4080   -2.2510 c3        1 2OH     -0.086100
     10 C5          0.4610   -1.2860   -2.1420 c3        1 2OH     -0.086100
     11 C1          2.8920   -1.9600   -2.1990 ca        1 2OH     -0.107300
     12 C10         4.2170   -1.8730   -1.7460 ca        1 2OH     -0.089500
     13 C9          5.1930   -2.7490   -2.2080 ca        1 2OH     -0.185500
     14 C6          2.5620   -2.9490   -3.1330 ca        1 2OH     -0.089500
     15 C7          3.5240   -3.8370   -3.6080 ca        1 2OH     -0.185500
     16 C8          4.8430   -3.7330   -3.1420 ca        1 2OH      0.121100
     17 O1          5.7490   -4.6380   -3.6470 oh        1 2OH     -0.498100
     18 HO2         1.6940   -1.9870    4.3070 ho        1 2OH      0.418000
     19 H12         1.5420   -3.2350    2.3840 ha        1 2OH      0.141500
     20 H11         1.5920   -3.1230   -0.1030 ha        1 2OH      0.138000
     21 H14         2.1450    1.0520    2.5820 ha        1 2OH      0.141500
     22 H15         2.1880    1.1620    0.1030 ha        1 2OH      0.138000
     23 H31         1.4850    1.1670   -1.9650 hc        1 2OH      0.039700
     24 H32         3.2500    0.7340   -1.8740 hc        1 2OH      0.039700
     25 H33         2.2940    0.3510   -3.3650 hc        1 2OH      0.039700
     26 H51        -0.2550   -0.5610   -1.6830 hc        1 2OH      0.039700
     27 H52         0.3820   -1.2050   -3.2520 hc        1 2OH      0.039700
     28 H53         0.1710   -2.3170   -1.8270 hc        1 2OH      0.039700
     29 H10         4.4850   -1.1010   -1.0070 ha        1 2OH      0.138000
     30 H9          6.2270   -2.6710   -1.8440 ha        1 2OH      0.141500
     31 H6          1.5330   -3.0440   -3.5110 ha        1 2OH      0.138000
     32 H7          3.2660   -4.6140   -4.3410 ha        1 2OH      0.141500
     33 HO1         6.6100   -4.4510   -3.2440 ho        1 2OH      0.418000
@<TRIPOS>BOND
     1    1    2 1   
     2    1   18 1   
     3    2    3 ar  
     4    2    5 ar  
     5    3    4 ar  
     6    3   19 1   
     7    4    7 ar  
     8    4   20 1   
     9    5    6 ar  
    10    5   21 1   
    11    6    7 ar  
    12    6   22 1   
    13    7    8 1   
    14    8    9 1   
    15    8   10 1   
    16    8   11 1   
    17    9   23 1   
    18    9   24 1   
    19    9   25 1   
    20   10   26 1   
    21   10   27 1   
    22   10   28 1   
    23   11   12 ar  
    24   11   14 ar  
    25   12   13 ar  
    26   12   29 1   
    27   13   16 ar  
    28   13   30 1   
    29   14   15 ar  
    30   14   31 1   
    31   15   16 ar  
    32   15   32 1   
    33   16   17 1   
    34   17   33 1   
@<TRIPOS>SUBSTRUCTURE
     1 2OH         1 TEMP              0 ****  ****    0 ROOT
