@<TRIPOS>MOLECULE
2OH
   33    34     1     0     0
SMALL
bcc


@<TRIPOS>ATOM
      1 O2          0.0270   -0.0800    0.1300 oh        1 2OH     -0.498100
      2 C13         1.4000   -0.0730    0.0320 ca        1 2OH      0.121100
      3 C12         2.1160    0.0650    1.2340 ca        1 2OH     -0.185500
      4 C11         3.5030    0.0770    1.1930 ca        1 2OH     -0.089500
      5 C14         2.0750   -0.1960   -1.1880 ca        1 2OH     -0.185500
      6 C15         3.4690   -0.1820   -1.2050 ca        1 2OH     -0.089500
      7 C4          4.1990   -0.0460   -0.0220 ca        1 2OH     -0.107300
      8 C2          5.7090   -0.0560    0.0080 c3        1 2OH      0.049600
      9 C3          6.3160   -0.0330   -1.3950 c3        1 2OH     -0.086100
     10 C5          6.1510   -1.3540    0.6820 c3        1 2OH     -0.086100
     11 C1          6.2040    1.1680    0.7410 ca        1 2OH     -0.107300
     12 C10         5.7590    2.4320    0.3180 ca        1 2OH     -0.089500
     13 C9          6.2000    3.5950    0.9350 ca        1 2OH     -0.185500
     14 C6          7.1090    1.0930    1.8040 ca        1 2OH     -0.089500
     15 C7          7.5640    2.2480    2.4380 ca        1 2OH     -0.185500
     16 C8          7.1100    3.4980    2.0020 ca        1 2OH      0.121100
     17 O1          7.5140    4.6820    2.5760 oh        1 2OH     -0.498100
     18 HO2        -0.3340   -0.1770   -0.7630 ho        1 2OH      0.418000
     19 H12         1.5700    0.1630    2.1830 ha        1 2OH      0.141000
     20 H11         4.0720    0.1920    2.1300 ha        1 2OH      0.137500
     21 H14         1.5120   -0.3030   -2.1260 ha        1 2OH      0.141000
     22 H15         3.9810   -0.2820   -2.1750 ha        1 2OH      0.137500
     23 H31         5.9540    0.8560   -1.9660 hc        1 2OH      0.039700
     24 H32         6.0460   -0.9620   -1.9520 hc        1 2OH      0.039700
     25 H33         7.4290    0.0230   -1.3210 hc        1 2OH      0.039700
     26 H51         7.2630   -1.4490    0.6540 hc        1 2OH      0.039700
     27 H52         5.7090   -2.2260    0.1420 hc        1 2OH      0.039700
     28 H53         5.8060   -1.3840    1.7430 hc        1 2OH      0.039700
     29 H10         5.0410    2.4990   -0.5140 ha        1 2OH      0.137500
     30 H9          5.8510    4.5840    0.6070 ha        1 2OH      0.141000
     31 H6          7.4800    0.1200    2.1600 ha        1 2OH      0.137500
     32 H7          8.2750    2.1760    3.2730 ha        1 2OH      0.141000
     33 HO1         8.1300    4.4690    3.2920 ho        1 2OH      0.418000
@<TRIPOS>BOND
     1    1    2 1   
     2    1   18 1   
     3    2    3 ar  
     4    2    5 ar  
     5    3    4 ar  
     6    3   19 1   
     7    4    7 ar  
     8    4   20 1   
     9    5    6 ar  
    10    5   21 1   
    11    6    7 ar  
    12    6   22 1   
    13    7    8 1   
    14    8    9 1   
    15    8   10 1   
    16    8   11 1   
    17    9   23 1   
    18    9   24 1   
    19    9   25 1   
    20   10   26 1   
    21   10   27 1   
    22   10   28 1   
    23   11   12 ar  
    24   11   14 ar  
    25   12   13 ar  
    26   12   29 1   
    27   13   16 ar  
    28   13   30 1   
    29   14   15 ar  
    30   14   31 1   
    31   15   16 ar  
    32   15   32 1   
    33   16   17 1   
    34   17   33 1   
@<TRIPOS>SUBSTRUCTURE
     1 2OH         1 TEMP              0 ****  ****    0 ROOT
