@<TRIPOS>MOLECULE
2OH
   33    34     1     0     0
SMALL
bcc


@<TRIPOS>ATOM
      1 O2          0.0250   -0.0510    0.0940 oh        1 2OH     -0.498100
      2 C13         1.3990   -0.0530    0.0060 ca        1 2OH      0.121100
      3 C12         2.1060    0.0850    1.2130 ca        1 2OH     -0.185500
      4 C11         3.4940    0.0880    1.1830 ca        1 2OH     -0.089500
      5 C14         2.0820   -0.1840   -1.2080 ca        1 2OH     -0.185500
      6 C15         3.4770   -0.1780   -1.2150 ca        1 2OH     -0.089500
      7 C4          4.1980   -0.0420   -0.0260 ca        1 2OH     -0.107300
      8 C2          5.7080   -0.0610    0.0150 c3        1 2OH      0.049600
      9 C3          6.3250   -0.0450   -1.3830 c3        1 2OH     -0.086100
     10 C5          6.1370   -1.3600    0.6960 c3        1 2OH     -0.086100
     11 C1          6.2050    1.1620    0.7490 ca        1 2OH     -0.107300
     12 C10         5.7710    2.4280    0.3190 ca        1 2OH     -0.089500
     13 C9          6.2130    3.5900    0.9360 ca        1 2OH     -0.185500
     14 C6          7.1000    1.0840    1.8190 ca        1 2OH     -0.089500
     15 C7          7.5570    2.2380    2.4540 ca        1 2OH     -0.185500
     16 C8          7.1140    3.4900    2.0110 ca        1 2OH      0.121100
     17 O1          7.5210    4.6720    2.5850 oh        1 2OH     -0.498100
     18 HO2        -0.3300   -0.1490   -0.8020 ho        1 2OH      0.418000
     19 H12         1.5540    0.1890    2.1570 ha        1 2OH      0.141000
     20 H11         4.0560    0.2030    2.1230 ha        1 2OH      0.137500
     21 H14         1.5260   -0.2900   -2.1500 ha        1 2OH      0.141000
     22 H15         3.9950   -0.2840   -2.1800 ha        1 2OH      0.137500
     23 H31         5.9730    0.8440   -1.9590 hc        1 2OH      0.039700
     24 H32         6.0550   -0.9740   -1.9400 hc        1 2OH      0.039700
     25 H33         7.4380    0.0050   -1.3010 hc        1 2OH      0.039700
     26 H51         7.2480   -1.4620    0.6770 hc        1 2OH      0.039700
     27 H52         5.6940   -2.2310    0.1540 hc        1 2OH      0.039700
     28 H53         5.7840   -1.3850    1.7540 hc        1 2OH      0.039700
     29 H10         5.0600    2.4960   -0.5190 ha        1 2OH      0.137500
     30 H9          5.8730    4.5800    0.6030 ha        1 2OH      0.141000
     31 H6          7.4620    0.1100    2.1810 ha        1 2OH      0.137500
     32 H7          8.2610    2.1640    3.2950 ha        1 2OH      0.141000
     33 HO1         8.1300    4.4580    3.3070 ho        1 2OH      0.418000
@<TRIPOS>BOND
     1    1    2 1   
     2    1   18 1   
     3    2    3 ar  
     4    2    5 ar  
     5    3    4 ar  
     6    3   19 1   
     7    4    7 ar  
     8    4   20 1   
     9    5    6 ar  
    10    5   21 1   
    11    6    7 ar  
    12    6   22 1   
    13    7    8 1   
    14    8    9 1   
    15    8   10 1   
    16    8   11 1   
    17    9   23 1   
    18    9   24 1   
    19    9   25 1   
    20   10   26 1   
    21   10   27 1   
    22   10   28 1   
    23   11   12 ar  
    24   11   14 ar  
    25   12   13 ar  
    26   12   29 1   
    27   13   16 ar  
    28   13   30 1   
    29   14   15 ar  
    30   14   31 1   
    31   15   16 ar  
    32   15   32 1   
    33   16   17 1   
    34   17   33 1   
@<TRIPOS>SUBSTRUCTURE
     1 2OH         1 TEMP              0 ****  ****    0 ROOT
