@<TRIPOS>MOLECULE
2OK
   46    48     1     0     0
SMALL
bcc


@<TRIPOS>ATOM
      1 CAB         0.2460   -0.9730   -0.1770 c3        1 2OK      0.111700
      2 OAP         1.6530   -0.8590    0.0050 os        1 2OK     -0.324900
      3 CAU         2.0750   -0.4480    1.2540 ca        1 2OK      0.145100
      4 CAL         1.2100   -0.1220    2.3040 ca        1 2OK     -0.217000
      5 CAI         3.4720   -0.3650    1.4060 ca        1 2OK     -0.170000
      6 CAR         4.0110    0.0400    2.6260 ca        1 2OK     -0.026300
      7 CAC         5.4800    0.1130    2.8060 c3        1 2OK     -0.057800
      8 CAJ         3.1650    0.3640    3.6950 ca        1 2OK     -0.200000
      9 CAV         1.7830    0.2770    3.5200 ca        1 2OK      0.133100
     10 OAQ         0.8840    0.4670    4.5700 os        1 2OK     -0.247200
     11 CAW         1.0820    1.5800    5.3750 ca        1 2OK      0.153100
     12 CAM         0.4920    1.5150    6.6460 ca        1 2OK     -0.267300
     13 CAK         1.7510    2.7390    4.9690 ca        1 2OK     -0.307300
     14 CAS         1.8090    3.8190    5.8750 ca        1 2OK      0.442600
     15 CAD         2.5200    5.0660    5.4510 c3        1 2OK     -0.150400
     16 NAN         1.2460    3.7830    7.1060 nb        1 2OK     -0.685000
     17 CAY         0.5950    2.6510    7.4780 cp        1 2OK      0.497800
     18 CAX        -0.0300    2.6000    8.8130 cp        1 2OK     -0.186500
     19 CAG        -1.2720    1.9660    8.9740 ca        1 2OK     -0.067500
     20 CAE        -1.8740    1.8950   10.2230 ca        1 2OK     -0.188000
     21 CAT        -1.2250    2.4700   11.3330 ca        1 2OK      0.135100
     22 OAO        -1.9020    2.3410   12.5300 os        1 2OK     -0.326900
     23 CAA        -1.2850    2.9330   13.6670 c3        1 2OK      0.112700
     24 CAF         0.0100    3.1110   11.1840 ca        1 2OK     -0.188000
     25 CAH         0.5980    3.1760    9.9220 ca        1 2OK     -0.067500
     26 H1          0.1500   -1.3250   -1.2360 h1        1 2OK      0.046700
     27 H2         -0.1830   -1.7240    0.5290 h1        1 2OK      0.046700
     28 H3         -0.2500    0.0190   -0.0450 h1        1 2OK      0.046700
     29 H4          0.1190   -0.1820    2.2090 ha        1 2OK      0.156000
     30 H5          4.1200   -0.6240    0.5570 ha        1 2OK      0.153000
     31 H6          6.0040    0.1910    1.8220 hc        1 2OK      0.049700
     32 H7          5.7600    0.9980    3.4290 hc        1 2OK      0.049700
     33 H8          5.8440   -0.8100    3.3260 hc        1 2OK      0.049700
     34 H9          3.5810    0.6830    4.6610 ha        1 2OK      0.150000
     35 H10        -0.0270    0.6060    6.9770 ha        1 2OK      0.162000
     36 H11         2.2160    2.8070    3.9770 ha        1 2OK      0.158000
     37 H12         2.9720    4.9290    4.4390 hc        1 2OK      0.054700
     38 H13         3.3320    5.3210    6.1760 hc        1 2OK      0.054700
     39 H14         1.8040    5.9240    5.4110 hc        1 2OK      0.054700
     40 H15        -1.7820    1.5270    8.1020 ha        1 2OK      0.144000
     41 H16        -2.8470    1.4030   10.3600 ha        1 2OK      0.145000
     42 H17        -1.1690    4.0350   13.5250 h1        1 2OK      0.045033
     43 H18        -2.0050    2.7150   14.4960 h1        1 2OK      0.045033
     44 H19        -0.2950    2.4580   13.8700 h1        1 2OK      0.045033
     45 H20         0.5200    3.5650   12.0440 ha        1 2OK      0.145000
     46 H21         1.5660    3.6880    9.8040 ha        1 2OK      0.144000
@<TRIPOS>BOND
     1    1    2 1   
     2    1   26 1   
     3    1   27 1   
     4    1   28 1   
     5    2    3 1   
     6    3    4 ar  
     7    3    5 ar  
     8    4    9 ar  
     9    4   29 1   
    10    5    6 ar  
    11    5   30 1   
    12    6    7 1   
    13    6    8 ar  
    14    7   31 1   
    15    7   32 1   
    16    7   33 1   
    17    8    9 ar  
    18    8   34 1   
    19    9   10 1   
    20   10   11 1   
    21   11   12 ar  
    22   11   13 ar  
    23   12   17 ar  
    24   12   35 1   
    25   13   14 ar  
    26   13   36 1   
    27   14   15 1   
    28   14   16 ar  
    29   15   37 1   
    30   15   38 1   
    31   15   39 1   
    32   16   17 ar  
    33   17   18 1   
    34   18   19 ar  
    35   18   25 ar  
    36   19   20 ar  
    37   19   40 1   
    38   20   21 ar  
    39   20   41 1   
    40   21   22 1   
    41   21   24 ar  
    42   22   23 1   
    43   23   42 1   
    44   23   43 1   
    45   23   44 1   
    46   24   25 ar  
    47   24   45 1   
    48   25   46 1   
@<TRIPOS>SUBSTRUCTURE
     1 2OK         1 TEMP              0 ****  ****    0 ROOT
