@<TRIPOS>MOLECULE
2OK
   46    48     1     0     0
SMALL
bcc


@<TRIPOS>ATOM
      1 CAB         0.2280   -0.9200   -0.1970 c3        1 2OK      0.111700
      2 OAP         1.6360   -0.8280   -0.0090 os        1 2OK     -0.324900
      3 CAU         2.0600   -0.4300    1.2440 ca        1 2OK      0.145100
      4 CAL         1.1970   -0.0990    2.2930 ca        1 2OK     -0.217000
      5 CAI         3.4570   -0.3700    1.4010 ca        1 2OK     -0.170000
      6 CAR         3.9980    0.0200    2.6250 ca        1 2OK     -0.026300
      7 CAC         5.4680    0.0690    2.8110 c3        1 2OK     -0.057800
      8 CAJ         3.1530    0.3500    3.6940 ca        1 2OK     -0.200000
      9 CAV         1.7710    0.2840    3.5140 ca        1 2OK      0.133100
     10 OAQ         0.8720    0.4810    4.5620 os        1 2OK     -0.247200
     11 CAW         1.0830    1.5850    5.3740 ca        1 2OK      0.153100
     12 CAM         0.4880    1.5220    6.6430 ca        1 2OK     -0.267300
     13 CAK         1.7700    2.7370    4.9780 ca        1 2OK     -0.307300
     14 CAS         1.8410    3.8110    5.8910 ca        1 2OK      0.442600
     15 CAD         2.5720    5.0500    5.4760 c3        1 2OK     -0.150400
     16 NAN         1.2730    3.7750    7.1190 nb        1 2OK     -0.685000
     17 CAY         0.6040    2.6510    7.4820 cp        1 2OK      0.497800
     18 CAX        -0.0260    2.6010    8.8140 cp        1 2OK     -0.186500
     19 CAG        -1.2780    1.9840    8.9680 ca        1 2OK     -0.067500
     20 CAE        -1.8840    1.9150   10.2140 ca        1 2OK     -0.188000
     21 CAT        -1.2310    2.4730   11.3300 ca        1 2OK      0.135100
     22 OAO        -1.9130    2.3470   12.5240 os        1 2OK     -0.326900
     23 CAA        -1.2910    2.9220   13.6670 c3        1 2OK      0.112700
     24 CAF         0.0140    3.0960   11.1890 ca        1 2OK     -0.188000
     25 CAH         0.6080    3.1600    9.9290 ca        1 2OK     -0.067500
     26 H1          0.1310   -1.2640   -1.2580 h1        1 2OK      0.046700
     27 H2         -0.2150   -1.6690    0.5040 h1        1 2OK      0.046700
     28 H3         -0.2540    0.0780   -0.0600 h1        1 2OK      0.046700
     29 H4          0.1040   -0.1430    2.1940 ha        1 2OK      0.156000
     30 H5          4.1050   -0.6330    0.5520 ha        1 2OK      0.153000
     31 H6          5.9960    0.1480    1.8290 hc        1 2OK      0.049700
     32 H7          5.7580    0.9450    3.4420 hc        1 2OK      0.049700
     33 H8          5.8160   -0.8630    3.3230 hc        1 2OK      0.049700
     34 H9          3.5710    0.6570    4.6630 ha        1 2OK      0.150000
     35 H10        -0.0450    0.6190    6.9670 ha        1 2OK      0.162000
     36 H11         2.2400    2.8040    3.9880 ha        1 2OK      0.158000
     37 H12         3.0300    4.9100    4.4680 hc        1 2OK      0.054700
     38 H13         3.3810    5.2920    6.2090 hc        1 2OK      0.054700
     39 H14         1.8660    5.9170    5.4340 hc        1 2OK      0.054700
     40 H15        -1.7900    1.5580    8.0910 ha        1 2OK      0.144000
     41 H16        -2.8650    1.4360   10.3450 ha        1 2OK      0.145000
     42 H17        -1.1580    4.0230   13.5330 h1        1 2OK      0.045033
     43 H18        -2.0180    2.7090   14.4920 h1        1 2OK      0.045033
     44 H19        -0.3090    2.4300   13.8700 h1        1 2OK      0.045033
     45 H20         0.5280    3.5380   12.0530 ha        1 2OK      0.145000
     46 H21         1.5840    3.6580    9.8180 ha        1 2OK      0.144000
@<TRIPOS>BOND
     1    1    2 1   
     2    1   26 1   
     3    1   27 1   
     4    1   28 1   
     5    2    3 1   
     6    3    4 ar  
     7    3    5 ar  
     8    4    9 ar  
     9    4   29 1   
    10    5    6 ar  
    11    5   30 1   
    12    6    7 1   
    13    6    8 ar  
    14    7   31 1   
    15    7   32 1   
    16    7   33 1   
    17    8    9 ar  
    18    8   34 1   
    19    9   10 1   
    20   10   11 1   
    21   11   12 ar  
    22   11   13 ar  
    23   12   17 ar  
    24   12   35 1   
    25   13   14 ar  
    26   13   36 1   
    27   14   15 1   
    28   14   16 ar  
    29   15   37 1   
    30   15   38 1   
    31   15   39 1   
    32   16   17 ar  
    33   17   18 1   
    34   18   19 ar  
    35   18   25 ar  
    36   19   20 ar  
    37   19   40 1   
    38   20   21 ar  
    39   20   41 1   
    40   21   22 1   
    41   21   24 ar  
    42   22   23 1   
    43   23   42 1   
    44   23   43 1   
    45   23   44 1   
    46   24   25 ar  
    47   24   45 1   
    48   25   46 1   
@<TRIPOS>SUBSTRUCTURE
     1 2OK         1 TEMP              0 ****  ****    0 ROOT
