@<TRIPOS>MOLECULE
2OL
   56    59     1     0     0
SMALL
bcc


@<TRIPOS>ATOM
      1 C1         -0.1060    0.0500    0.6140 c3        1 2OL      0.117700
      2 O2          1.2850    0.0680    0.3450 os        1 2OL     -0.431600
      3 C3          2.0730   -0.1190    1.5180 c3        1 2OL      0.114400
      4 C4          3.5430   -0.0680    1.0870 c3        1 2OL      0.194800
      5 N5          3.9320    1.2530    0.6320 nh        1 2OL     -0.774200
      6 C6          5.2570    1.4100    0.2180 cc        1 2OL      0.658700
      7 N7          6.2670    0.5130    0.4160 nd        1 2OL     -0.628100
      8 C8          7.4410    1.1550   -0.0160 ca        1 2OL      0.123400
      9 C9          8.7630    0.7000   -0.0400 ca        1 2OL     -0.100000
     10 C10         9.7480    1.5400   -0.5430 ca        1 2OL     -0.110000
     11 C11         9.4460    2.8300   -1.0280 ca        1 2OL      0.013000
     12 C12         8.1300    3.3180   -1.0130 ca        1 2OL     -0.093000
     13 C13         7.1380    2.4890   -0.5010 ca        1 2OL     -0.083200
     14 N14         5.7470    2.6760   -0.3060 na        1 2OL     -0.226100
     15 C15         4.9850    3.6760   -0.9470 ca        1 2OL      0.589800
     16 C16         5.4170    5.0300   -0.8890 ca        1 2OL     -0.426600
     17 C17         4.6160    5.9750   -1.5510 ca        1 2OL      0.480200
     18 N18         3.4870    5.6770   -2.2050 nb        1 2OL     -0.753000
     19 C19         3.1110    4.3330   -2.1870 ca        1 2OL      0.895900
     20 N20         3.8420    3.3130   -1.5990 nb        1 2OL     -0.804000
     21 N21         1.8850    3.9930   -2.7580 nh        1 2OL     -0.929500
     22 C22        10.4770    3.6430   -1.5360 cg        1 2OL     -0.092000
     23 C23        11.3560    4.3350   -1.9670 c1        1 2OL     -0.161100
     24 C24        12.4180    5.1740   -2.4980 c3        1 2OL      0.241900
     25 C25        12.2620    5.3220   -4.0220 c3        1 2OL     -0.078400
     26 C26        13.4270    6.0710   -4.6310 c3        1 2OL     -0.075900
     27 C27        14.7510    5.4230   -4.2830 c3        1 2OL     -0.077400
     28 C28        14.9190    5.3230   -2.7810 c3        1 2OL     -0.075900
     29 C29        13.7810    4.5490   -2.1510 c3        1 2OL     -0.078400
     30 O30        12.3210    6.4960   -1.9620 oh        1 2OL     -0.587800
     31 H1         -0.3830    0.8790    1.3120 h1        1 2OL      0.035033
     32 H2         -0.4100   -0.9330    1.0510 h1        1 2OL      0.035033
     33 H3         -0.5860    0.2020   -0.3850 h1        1 2OL      0.035033
     34 H4          1.8300    0.6760    2.2710 h1        1 2OL      0.041700
     35 H5          1.8610   -1.1290    1.9600 h1        1 2OL      0.041700
     36 H6          4.1760   -0.3390    1.9790 h1        1 2OL      0.066200
     37 H7          3.7090   -0.8440    0.2850 h1        1 2OL      0.066200
     38 H8          3.2410    1.6900    0.0540 hn        1 2OL      0.443800
     39 H9          9.0120   -0.3050    0.3320 ha        1 2OL      0.152000
     40 H10        10.7920    1.1940   -0.5680 ha        1 2OL      0.140000
     41 H11         7.9050    4.3210   -1.4020 ha        1 2OL      0.149000
     42 H12         6.3180    5.3310   -0.3440 ha        1 2OL      0.169000
     43 H13         4.9010    7.0440   -1.5580 h4        1 2OL      0.033100
     44 H14         1.7230    3.0320   -2.9520 hn        1 2OL      0.434300
     45 H15         1.4800    4.6520   -3.3810 hn        1 2OL      0.434300
     46 H16        11.3090    5.8710   -4.2340 hc        1 2OL      0.052450
     47 H17        12.1860    4.2950   -4.4640 hc        1 2OL      0.052450
     48 H18        13.3030    6.1030   -5.7450 hc        1 2OL      0.047450
     49 H19        13.4190    7.1270   -4.2530 hc        1 2OL      0.047450
     50 H20        14.8030    4.3990   -4.7380 hc        1 2OL      0.039200
     51 H21        15.5900    6.0270   -4.7150 hc        1 2OL      0.039200
     52 H22        15.8900    4.8190   -2.5400 hc        1 2OL      0.047450
     53 H23        14.9480    6.3550   -2.3410 hc        1 2OL      0.047450
     54 H24        13.9060    4.5310   -1.0380 hc        1 2OL      0.052450
     55 H25        13.7900    3.4900   -2.5170 hc        1 2OL      0.052450
     56 H26        12.4350    6.4220   -1.0070 ho        1 2OL      0.403000
@<TRIPOS>BOND
     1    1    2 1   
     2    1   31 1   
     3    1   32 1   
     4    1   33 1   
     5    2    3 1   
     6    3    4 1   
     7    3   34 1   
     8    3   35 1   
     9    4    5 1   
    10    4   36 1   
    11    4   37 1   
    12    5    6 1   
    13    5   38 1   
    14    6    7 2   
    15    6   14 1   
    16    7    8 1   
    17    8    9 ar  
    18    8   13 ar  
    19    9   10 ar  
    20    9   39 1   
    21   10   11 ar  
    22   10   40 1   
    23   11   12 ar  
    24   11   22 1   
    25   12   13 ar  
    26   12   41 1   
    27   13   14 1   
    28   14   15 1   
    29   15   16 ar  
    30   15   20 ar  
    31   16   17 ar  
    32   16   42 1   
    33   17   18 ar  
    34   17   43 1   
    35   18   19 ar  
    36   19   20 ar  
    37   19   21 1   
    38   21   44 1   
    39   21   45 1   
    40   22   23 3   
    41   23   24 1   
    42   24   25 1   
    43   24   29 1   
    44   24   30 1   
    45   25   26 1   
    46   25   46 1   
    47   25   47 1   
    48   26   27 1   
    49   26   48 1   
    50   26   49 1   
    51   27   28 1   
    52   27   50 1   
    53   27   51 1   
    54   28   29 1   
    55   28   52 1   
    56   28   53 1   
    57   29   54 1   
    58   29   55 1   
    59   30   56 1   
@<TRIPOS>SUBSTRUCTURE
     1 2OL         1 TEMP              0 ****  ****    0 ROOT
