@<TRIPOS>MOLECULE
2OL
   58    61     1     0     0
SMALL
bcc


@<TRIPOS>ATOM
      1 C1          0.2240   -0.6750    0.9070 c3        1 2OL      0.117700
      2 O2          1.2880    0.2540    0.7000 os        1 2OL     -0.483600
      3 C3          1.7620    0.8550    1.8970 c3        1 2OL      0.096400
      4 C4          3.2840    0.9930    1.7840 c3        1 2OL      0.107800
      5 N5          3.6670    1.6320    0.4750 n4        1 2OL     -0.667000
      6 C6          5.1020    1.8840    0.3520 cc        1 2OL      0.396700
      7 N7          6.0430    1.3000    1.1180 nd        1 2OL     -0.414100
      8 C8          7.2660    1.8520    0.7050 ca        1 2OL      0.038400
      9 C9          8.5670    1.5950    1.1630 ca        1 2OL     -0.012000
     10 C10         9.6170    2.2870    0.5760 ca        1 2OL     -0.117000
     11 C11         9.4050    3.2250   -0.4610 ca        1 2OL      0.163000
     12 C12         8.1070    3.5020   -0.9370 ca        1 2OL     -0.140000
     13 C13         7.0460    2.8290   -0.3480 ca        1 2OL     -0.036200
     14 N14         5.6300    2.9090   -0.5400 na        1 2OL     -0.196100
     15 C15         5.0380    3.3450   -1.7380 ca        1 2OL      0.561800
     16 C16         5.4480    4.5910   -2.3080 ca        1 2OL     -0.296600
     17 C17         4.8520    4.9870   -3.5150 ca        1 2OL      0.494200
     18 N18         3.9140    4.2460   -4.1440 nb        1 2OL     -0.648000
     19 C19         3.5630    3.0870   -3.5100 ca        1 2OL      0.735900
     20 N20         4.0500    2.5900   -2.3290 nb        1 2OL     -0.768000
     21 N21         2.5360    2.2580   -4.2130 n4        1 2OL     -0.819300
     22 C22        10.4920    3.8990   -1.0340 cg        1 2OL     -0.225000
     23 C23        11.4200    4.4830   -1.5220 c1        1 2OL      0.012900
     24 C24        12.5250    5.2240   -2.1280 c3        1 2OL      0.213900
     25 C25        12.6940    6.5720   -1.4000 c3        1 2OL     -0.082400
     26 C26        13.9100    7.3170   -1.9080 c3        1 2OL     -0.079400
     27 C27        15.1670    6.4790   -1.7970 c3        1 2OL     -0.082400
     28 C28        15.0090    5.1680   -2.5390 c3        1 2OL     -0.079400
     29 C29        13.8130    4.3900   -2.0310 c3        1 2OL     -0.082400
     30 O30        12.1720    5.5260   -3.4780 oh        1 2OL     -0.582800
     31 H1         -0.0340   -1.0240   -0.1240 h1        1 2OL      0.062700
     32 H2          0.5720   -1.5280    1.5390 h1        1 2OL      0.062700
     33 H3         -0.6470   -0.1610    1.3820 h1        1 2OL      0.062700
     34 H4          1.2650    1.8560    2.0070 h1        1 2OL      0.089200
     35 H5          1.5420    0.2290    2.8050 h1        1 2OL      0.089200
     36 H6          3.6750    1.6270    2.6300 hx        1 2OL      0.132700
     37 H7          3.7730   -0.0240    1.8250 hx        1 2OL      0.132700
     38 H8          3.3770    0.9950   -0.2830 hn        1 2OL      0.468300
     39 H9          8.7440    0.8650    1.9710 ha        1 2OL      0.186000
     40 H10        10.6500    2.1040    0.9220 ha        1 2OL      0.185000
     41 H11         7.9770    4.2280   -1.7520 ha        1 2OL      0.159000
     42 H12         6.1950    5.2370   -1.8120 ha        1 2OL      0.219000
     43 H13         5.1250    5.9420   -4.0200 h4        1 2OL      0.102100
     44 H14         1.7140    2.1340   -3.6090 hn        1 2OL      0.490467
     45 H15         2.9400    1.3390   -4.4410 hn        1 2OL      0.490467
     46 H16        12.7940    6.3690   -0.3030 hc        1 2OL      0.056700
     47 H17        11.7770    7.1910   -1.5680 hc        1 2OL      0.056700
     48 H18        14.0320    8.2620   -1.3180 hc        1 2OL      0.058200
     49 H19        13.7430    7.6010   -2.9810 hc        1 2OL      0.058200
     50 H20        15.3960    6.2780   -0.7180 hc        1 2OL      0.054700
     51 H21        16.0340    7.0480   -2.2240 hc        1 2OL      0.054700
     52 H22        14.8830    5.3720   -3.6350 hc        1 2OL      0.058200
     53 H23        15.9330    4.5460   -2.4120 hc        1 2OL      0.058200
     54 H24        13.6930    3.4460   -2.6240 hc        1 2OL      0.056700
     55 H25        13.9740    4.1060   -0.9590 hc        1 2OL      0.056700
     56 H26        12.5650    4.8490   -4.0440 ho        1 2OL      0.415000
     57 H52         3.1540    2.5170    0.3800 hn        1 2OL      0.468300
     58 H213        2.2490    2.7300   -5.0870 hn        1 2OL      0.490467
@<TRIPOS>BOND
     1    1    2 1   
     2    1   31 1   
     3    1   32 1   
     4    1   33 1   
     5    2    3 1   
     6    3    4 1   
     7    3   34 1   
     8    3   35 1   
     9    4    5 1   
    10    4   36 1   
    11    4   37 1   
    12    5    6 1   
    13    5   38 1   
    14    5   57 1   
    15    6    7 2   
    16    6   14 1   
    17    7    8 1   
    18    8    9 ar  
    19    8   13 ar  
    20    9   10 ar  
    21    9   39 1   
    22   10   11 ar  
    23   10   40 1   
    24   11   12 ar  
    25   11   22 1   
    26   12   13 ar  
    27   12   41 1   
    28   13   14 1   
    29   14   15 1   
    30   15   16 ar  
    31   15   20 ar  
    32   16   17 ar  
    33   16   42 1   
    34   17   18 ar  
    35   17   43 1   
    36   18   19 ar  
    37   19   20 ar  
    38   19   21 1   
    39   21   44 1   
    40   21   45 1   
    41   21   58 1   
    42   22   23 3   
    43   23   24 1   
    44   24   25 1   
    45   24   29 1   
    46   24   30 1   
    47   25   26 1   
    48   25   46 1   
    49   25   47 1   
    50   26   27 1   
    51   26   48 1   
    52   26   49 1   
    53   27   28 1   
    54   27   50 1   
    55   27   51 1   
    56   28   29 1   
    57   28   52 1   
    58   28   53 1   
    59   29   54 1   
    60   29   55 1   
    61   30   56 1   
@<TRIPOS>SUBSTRUCTURE
     1 2OL         1 TEMP              0 ****  ****    0 ROOT
