@<TRIPOS>MOLECULE
2OL
   56    59     1     0     0
SMALL
bcc


@<TRIPOS>ATOM
      1 C1          1.4150   -1.1950   -0.7380 c3        1 2OL      0.118700
      2 O2          1.7230   -0.1090    0.1190 os        1 2OL     -0.436600
      3 C3          2.7510   -0.4250    1.0560 c3        1 2OL      0.087400
      4 C4          3.0280    0.8560    1.8520 c3        1 2OL      0.186800
      5 N5          3.5620    1.9700    1.1030 nu        1 2OL     -0.757200
      6 C6          4.9200    1.9210    0.7390 cc        1 2OL      0.646700
      7 N7          5.8240    0.9720    1.1160 nd        1 2OL     -0.627100
      8 C8          7.0720    1.4180    0.6460 ca        1 2OL      0.115400
      9 C9          8.3390    0.8340    0.7480 ca        1 2OL     -0.096000
     10 C10         9.4180    1.4810    0.1610 ca        1 2OL     -0.114000
     11 C11         9.2650    2.6990   -0.5340 ca        1 2OL      0.018000
     12 C12         8.0090    3.3120   -0.6530 ca        1 2OL     -0.096000
     13 C13         6.9220    2.6810   -0.0520 ca        1 2OL     -0.075200
     14 N14         5.5530    3.0170    0.0360 na        1 2OL     -0.229100
     15 C15         4.9320    4.0920   -0.6310 ca        1 2OL      0.598800
     16 C16         5.5690    5.3640   -0.6600 ca        1 2OL     -0.433600
     17 C17         4.8880    6.3940   -1.3290 ca        1 2OL      0.482200
     18 N18         3.7020    6.2450   -1.9290 nb        1 2OL     -0.755000
     19 C19         3.1460    4.9660   -1.8670 ca        1 2OL      0.901900
     20 N20         3.7200    3.8810   -1.2220 nb        1 2OL     -0.802000
     21 N21         1.9550    4.7430   -2.5520 nv        1 2OL     -0.937500
     22 C22        10.3890    3.3120   -1.1210 cg        1 2OL     -0.097000
     23 C23        11.3470    3.8330   -1.6190 c1        1 2OL     -0.151100
     24 C24        12.5010    4.4710   -2.2250 c3        1 2OL      0.240900
     25 C25        12.3430    4.5850   -3.7510 c3        1 2OL     -0.080400
     26 C26        12.4340    3.2350   -4.4250 c3        1 2OL     -0.076400
     27 C27        13.7240    2.5220   -4.0740 c3        1 2OL     -0.078400
     28 C28        13.8680    2.3710   -2.5730 c3        1 2OL     -0.076400
     29 C29        13.7920    3.7080   -1.8730 c3        1 2OL     -0.080400
     30 O30        12.6220    5.8230   -1.7660 oh        1 2OL     -0.592800
     31 H1          2.3100   -1.4880   -1.3410 h1        1 2OL      0.034367
     32 H2          0.6040   -0.8060   -1.4030 h1        1 2OL      0.034367
     33 H3          1.0510   -2.0710   -0.1470 h1        1 2OL      0.034367
     34 H4          3.6660   -0.7850    0.5170 h1        1 2OL      0.046200
     35 H5          2.3900   -1.2270    1.7530 h1        1 2OL      0.046200
     36 H6          2.0530    1.2250    2.2840 h1        1 2OL      0.077200
     37 H7          3.7230    0.5950    2.6980 h1        1 2OL      0.077200
     38 H8          2.9560    2.2400    0.3480 hn        1 2OL      0.436800
     39 H9          8.4710   -0.1180    1.2810 ha        1 2OL      0.151000
     40 H10        10.4210    1.0340    0.2340 ha        1 2OL      0.140000
     41 H11         7.8980    4.2530   -1.2100 ha        1 2OL      0.150000
     42 H12         6.5290    5.5470   -0.1640 ha        1 2OL      0.169000
     43 H13         5.3220    7.4110   -1.3800 h4        1 2OL      0.033100
     44 H14         1.4340    5.5370   -2.8370 hn        1 2OL      0.438800
     45 H15         1.4550    3.9090   -2.3560 hn        1 2OL      0.438800
     46 H16        11.3580    5.0670   -3.9800 hc        1 2OL      0.054950
     47 H17        13.1520    5.2640   -4.1280 hc        1 2OL      0.054950
     48 H18        12.3720    3.3740   -5.5360 hc        1 2OL      0.045450
     49 H19        11.5610    2.6020   -4.1140 hc        1 2OL      0.045450
     50 H20        13.7370    1.5100   -4.5560 hc        1 2OL      0.041200
     51 H21        14.5950    3.1010   -4.4780 hc        1 2OL      0.041200
     52 H22        14.8510    1.8850   -2.3360 hc        1 2OL      0.045450
     53 H23        13.0560    1.7000   -2.1860 hc        1 2OL      0.045450
     54 H24        14.6590    4.3520   -2.1780 hc        1 2OL      0.054950
     55 H25        13.8460    3.5630   -0.7640 hc        1 2OL      0.054950
     56 H26        12.6880    5.7910   -0.8050 ho        1 2OL      0.404000
@<TRIPOS>BOND
     1    1    2 1   
     2    1   31 1   
     3    1   32 1   
     4    1   33 1   
     5    2    3 1   
     6    3    4 1   
     7    3   34 1   
     8    3   35 1   
     9    4    5 1   
    10    4   36 1   
    11    4   37 1   
    12    5    6 1   
    13    5   38 1   
    14    6    7 2   
    15    6   14 1   
    16    7    8 1   
    17    8    9 ar  
    18    8   13 ar  
    19    9   10 ar  
    20    9   39 1   
    21   10   11 ar  
    22   10   40 1   
    23   11   12 ar  
    24   11   22 1   
    25   12   13 ar  
    26   12   41 1   
    27   13   14 1   
    28   14   15 1   
    29   15   16 ar  
    30   15   20 ar  
    31   16   17 ar  
    32   16   42 1   
    33   17   18 ar  
    34   17   43 1   
    35   18   19 ar  
    36   19   20 ar  
    37   19   21 1   
    38   21   44 1   
    39   21   45 1   
    40   22   23 3   
    41   23   24 1   
    42   24   25 1   
    43   24   29 1   
    44   24   30 1   
    45   25   26 1   
    46   25   46 1   
    47   25   47 1   
    48   26   27 1   
    49   26   48 1   
    50   26   49 1   
    51   27   28 1   
    52   27   50 1   
    53   27   51 1   
    54   28   29 1   
    55   28   52 1   
    56   28   53 1   
    57   29   54 1   
    58   29   55 1   
    59   30   56 1   
@<TRIPOS>SUBSTRUCTURE
     1 2OL         1 TEMP              0 ****  ****    0 ROOT
