@<TRIPOS>MOLECULE
2OM
   36    37     1     0     0
SMALL
bcc


@<TRIPOS>ATOM
      1 O5'        -0.4460    2.6620   -3.0280 os        1 2OM     -0.568200
      2 C5'         0.2490    1.4110   -2.7400 c3        1 2OM      0.235400
      3 C4'         0.7270    1.4100   -1.2440 c3        1 2OM      0.065100
      4 O4'        -0.2210    0.9920   -0.4590 os        1 2OM     -0.460600
      5 C3'         1.8770    0.4060   -1.0520 c3        1 2OM      0.117100
      6 O3'         3.0370    1.0560   -0.8410 oh        1 2OM     -0.685800
      7 C2'         1.4970   -0.4240    0.1810 c3        1 2OM      0.110100
      8 O2'         2.6540   -0.4880    1.1430 oh        1 2OM     -0.614800
      9 C1'         0.4970    0.2100    0.7190 c3        1 2OM      0.247500
     10 N1         -0.4280   -0.7330    1.3310 n         1 2OM     -0.385800
     11 C2         -1.3340   -1.4420    0.5300 c         1 2OM      0.833500
     12 N3         -1.8840   -2.6760    0.9950 n         1 2OM     -0.582500
     13 C4         -1.8100   -3.0150    2.3860 c         1 2OM      0.743500
     14 C5         -0.8550   -2.2710    3.2930 c3        1 2OM     -0.158400
     15 C6         -0.4940   -0.8550    2.7920 c3        1 2OM     -0.051300
     16 P          -0.7380    3.0390   -4.5450 p5        1 2OM      1.336900
     17 O2         -1.6300   -1.0230   -0.5650 o         1 2OM     -0.697500
     18 O4         -2.4460   -3.9820    2.8180 o         1 2OM     -0.700500
     19 OP2        -1.4060    1.8610   -5.2400 o         1 2OM     -0.934833
     20 OP3        -1.6630    4.2560   -4.5980 o         1 2OM     -0.934833
     21 OP1         0.5720    3.3660   -5.2500 o         1 2OM     -0.934833
     22 C7         -1.4700    0.2330    3.4120 c         1 2OM      0.919600
     23 O71        -1.0360    1.0570    4.2630 o         1 2OM     -0.839800
     24 O72        -2.6890    0.2760    3.0480 o         1 2OM     -0.839800
     25 H5'        -0.3660    0.6500   -2.8910 h1        1 2OM      0.005700
     26 H5'A        1.0410    1.3240   -3.3420 h1        1 2OM      0.005700
     27 H4'         1.0090    2.2930   -0.9820 h1        1 2OM      0.062700
     28 H3'         1.9520   -0.1760   -1.8400 h1        1 2OM      0.049700
     29 HO3'        3.6250    0.8230   -1.4660 ho        1 2OM      0.520000
     30 H2'         1.2140   -1.3690   -0.1020 h1        1 2OM      0.088700
     31 HO2'        3.3500   -0.9280    0.7510 ho        1 2OM      0.417000
     32 H1'         0.8290    0.8580    1.4030 h2        1 2OM      0.072700
     33 HN3        -2.2860   -3.2430    0.4110 hn        1 2OM      0.311500
     34 H5         -1.2220   -2.1690    4.1930 hc        1 2OM      0.082200
     35 H5A        -0.0440   -2.8080    3.3420 hc        1 2OM      0.082200
     36 H6          0.3380   -0.5820    3.1720 h1        1 2OM      0.084700
@<TRIPOS>BOND
     1    1    2 1   
     2    1   16 1   
     3    2    3 1   
     4    2   25 1   
     5    2   26 1   
     6    3    4 1   
     7    3    5 1   
     8    3   27 1   
     9    4    9 1   
    10    5    6 1   
    11    5    7 1   
    12    5   28 1   
    13    6   29 1   
    14    7    8 1   
    15    7    9 1   
    16    7   30 1   
    17    8   31 1   
    18    9   10 1   
    19    9   32 1   
    20   10   11 1   
    21   10   15 1   
    22   11   12 1   
    23   11   17 2   
    24   12   13 1   
    25   12   33 1   
    26   13   14 1   
    27   13   18 2   
    28   14   15 1   
    29   14   34 1   
    30   14   35 1   
    31   15   22 1   
    32   15   36 1   
    33   16   19 1   
    34   16   20 1   
    35   16   21 1   
    36   22   23 1   
    37   22   24 1   
@<TRIPOS>SUBSTRUCTURE
     1 2OM         1 TEMP              0 ****  ****    0 ROOT
