@<TRIPOS>MOLECULE
2OM
   36    37     1     0     0
SMALL
bcc


@<TRIPOS>ATOM
      1 O5'         3.6130    0.0690    0.5670 os        1 2OM     -0.568200
      2 C5'         2.2480   -0.0140    0.6660 c3        1 2OM      0.231400
      3 C4'         1.5930    0.2790   -0.7040 c3        1 2OM      0.069100
      4 O4'         0.3520   -0.4550   -0.8680 os        1 2OM     -0.424600
      5 C3'         1.2600    1.7640   -0.8950 c3        1 2OM      0.054100
      6 O3'         1.3530    2.1740   -2.2530 oh        1 2OM     -0.616800
      7 C2'        -0.2170    1.8430   -0.4480 c3        1 2OM      0.078100
      8 O2'        -0.9500    2.8780   -1.0570 oh        1 2OM     -0.600800
      9 C1'        -0.7760    0.4300   -0.8420 c3        1 2OM      0.260500
     10 N1         -1.8200   -0.0550    0.0650 n         1 2OM     -0.407800
     11 C2         -2.0240   -1.4370    0.1930 c         1 2OM      0.821500
     12 N3         -3.0750   -1.8630    1.0700 n         1 2OM     -0.599500
     13 C4         -3.9350   -0.9960    1.7170 c         1 2OM      0.723500
     14 C5         -3.8010    0.4810    1.4360 c3        1 2OM     -0.140400
     15 C6         -3.0160    0.7810    0.1530 c3        1 2OM     -0.046300
     16 P           4.3340    1.3500    1.4960 p5        1 2OM      1.323900
     17 O2         -1.3420   -2.3560   -0.3070 o         1 2OM     -0.652500
     18 O4         -4.7790   -1.4570    2.5220 o         1 2OM     -0.719500
     19 OP2         4.1180    0.8990    2.9140 o         1 2OM     -0.934833
     20 OP3         5.7560    1.3530    1.0080 o         1 2OM     -0.934833
     21 OP1         3.4670    2.5080    1.0540 o         1 2OM     -0.934833
     22 C7         -4.0030    0.7430   -1.0670 c         1 2OM      0.900600
     23 O71        -3.6460    0.2140   -2.1520 o         1 2OM     -0.841300
     24 O72        -5.1280    1.2980   -0.8880 o         1 2OM     -0.841300
     25 H5'         1.9440   -1.0650    0.9480 h1        1 2OM      0.003700
     26 H5'A        1.8470    0.7050    1.4330 h1        1 2OM      0.003700
     27 H4'         2.2590   -0.1020   -1.5240 h1        1 2OM      0.060700
     28 H3'         1.9720    2.4310   -0.3030 h1        1 2OM      0.226700
     29 HO3'        1.0240    1.4410   -2.7890 ho        1 2OM      0.373000
     30 H2'        -0.2790    2.0320    0.6560 h1        1 2OM      0.102700
     31 HO2'       -0.6620    2.9310   -1.9790 ho        1 2OM      0.400000
     32 H1'        -1.2040    0.4560   -1.8920 h2        1 2OM      0.064700
     33 HN3        -3.1560   -2.8420    1.2160 hn        1 2OM      0.312500
     34 H5         -4.8300    0.9190    1.3230 hc        1 2OM      0.081700
     35 H5A        -3.3010    0.9460    2.3250 hc        1 2OM      0.081700
     36 H6         -2.6580    1.8530    0.2010 h1        1 2OM      0.090700
@<TRIPOS>BOND
     1    1    2 1   
     2    1   16 1   
     3    2    3 1   
     4    2   25 1   
     5    2   26 1   
     6    3    4 1   
     7    3    5 1   
     8    3   27 1   
     9    4    9 1   
    10    5    6 1   
    11    5    7 1   
    12    5   28 1   
    13    6   29 1   
    14    7    8 1   
    15    7    9 1   
    16    7   30 1   
    17    8   31 1   
    18    9   10 1   
    19    9   32 1   
    20   10   11 1   
    21   10   15 1   
    22   11   12 1   
    23   11   17 2   
    24   12   13 1   
    25   12   33 1   
    26   13   14 1   
    27   13   18 2   
    28   14   15 1   
    29   14   34 1   
    30   14   35 1   
    31   15   22 1   
    32   15   36 1   
    33   16   19 1   
    34   16   20 1   
    35   16   21 1   
    36   22   23 1   
    37   22   24 1   
@<TRIPOS>SUBSTRUCTURE
     1 2OM         1 TEMP              0 ****  ****    0 ROOT
