@<TRIPOS>MOLECULE
2ON
   15    16     1     0     0
SMALL
bcc


@<TRIPOS>ATOM
      1 C6         -0.0690   -0.0540   -0.0930 c         1 2ON      0.643000
      2 N1          1.3500    0.0540   -0.0420 n         1 2ON     -0.480400
      3 C2          2.0490    0.1720    1.1540 cc        1 2ON      0.527800
      4 N3          1.5120    0.2000    2.3760 nd        1 2ON     -0.639100
      5 C4          0.1270    0.0980    2.3930 cd        1 2ON      0.080800
      6 C5         -0.6990   -0.0290    1.2160 cc        1 2ON      0.201800
      7 N9         -0.7510    0.0920    3.4760 na        1 2ON     -0.307900
      8 C8         -2.0450   -0.0350    2.9250 cd        1 2ON      0.398400
      9 N7         -2.0430   -0.1100    1.5790 nc        1 2ON     -0.585000
     10 O6         -0.6080   -0.1560   -1.2020 o         1 2ON     -0.587500
     11 S2          3.7720    0.2920    0.9870 sh        1 2ON     -0.229000
     12 HN1         1.8520    0.0440   -0.9040 hn        1 2ON      0.346500
     13 HS2         4.1250    0.3890    2.2660 hs        1 2ON      0.241800
     14 HC8        -2.9370   -0.0670    3.5600 h5        1 2ON      0.070100
     15 HN9        -0.5070    0.1630    4.4280 hn        1 2ON      0.317700
@<TRIPOS>BOND
     1    1    2 1   
     2    1    6 1   
     3    1   10 2   
     4    2    3 1   
     5    2   12 1   
     6    3    4 2   
     7    3   11 1   
     8    4    5 1   
     9    5    6 2   
    10    5    7 1   
    11    6    9 1   
    12    7    8 1   
    13    7   15 1   
    14    8    9 2   
    15    8   14 1   
    16   11   13 1   
@<TRIPOS>SUBSTRUCTURE
     1 2ON         1 TEMP              0 ****  ****    0 ROOT
