@<TRIPOS>MOLECULE
2ON
   15    16     1     0     0
SMALL
bcc


@<TRIPOS>ATOM
      1 C6         -0.0770   -0.0350   -0.0920 c         1 2ON      0.643000
      2 N1          1.3420    0.0620   -0.0460 ns        1 2ON     -0.480400
      3 C2          2.0470    0.1640    1.1470 cc        1 2ON      0.527800
      4 N3          1.5160    0.1840    2.3720 nd        1 2ON     -0.639100
      5 C4          0.1310    0.0920    2.3940 cd        1 2ON      0.080800
      6 C5         -0.7020   -0.0180    1.2200 cc        1 2ON      0.201800
      7 N9         -0.7430    0.0820    3.4810 na        1 2ON     -0.307900
      8 C8         -2.0400   -0.0300    2.9340 cd        1 2ON      0.398400
      9 N7         -2.0440   -0.0920    1.5870 nc        1 2ON     -0.585000
     10 O6         -0.6220   -0.1230   -1.2000 o         1 2ON     -0.587500
     11 S2          3.7710    0.2730    0.9740 sh        1 2ON     -0.229000
     12 HN1         1.8410    0.0570   -0.9110 hn        1 2ON      0.346500
     13 HS2         4.1300    0.3550    2.2530 hs        1 2ON      0.241800
     14 HC8        -2.9290   -0.0610    3.5730 h5        1 2ON      0.070100
     15 HN9        -0.4950    0.1420    4.4320 hn        1 2ON      0.317700
@<TRIPOS>BOND
     1    1    2 1   
     2    1    6 1   
     3    1   10 2   
     4    2    3 1   
     5    2   12 1   
     6    3    4 2   
     7    3   11 1   
     8    4    5 1   
     9    5    6 2   
    10    5    7 1   
    11    6    9 1   
    12    7    8 1   
    13    7   15 1   
    14    8    9 2   
    15    8   14 1   
    16   11   13 1   
@<TRIPOS>SUBSTRUCTURE
     1 2ON         1 TEMP              0 ****  ****    0 ROOT
