@<TRIPOS>MOLECULE
2OO
   44    46     1     0     0
SMALL
bcc


@<TRIPOS>ATOM
      1 C1         -0.0470   -0.0780   -0.1140 c3        1 2OO     -0.108100
      2 C2          1.4650   -0.1690    0.0110 c3        1 2OO      0.193800
      3 N3          1.9300    0.1410    1.3510 nh        1 2OO     -0.783200
      4 C4          3.2920   -0.0330    1.6050 cc        1 2OO      0.665700
      5 N5          4.2520   -0.1880    0.6520 nd        1 2OO     -0.620100
      6 C6          5.4840   -0.1770    1.3340 ca        1 2OO      0.117400
      7 C7          6.7820   -0.3060    0.8320 ca        1 2OO     -0.102000
      8 C8          7.8440   -0.2810    1.7270 ca        1 2OO     -0.106000
      9 C9          7.6370   -0.1360    3.1130 ca        1 2OO      0.006000
     10 C10         6.3440   -0.0050    3.6470 ca        1 2OO     -0.071000
     11 C11         5.2730   -0.0170    2.7590 ca        1 2OO     -0.065200
     12 N12         3.8660    0.0510    2.9420 na        1 2OO     -0.226100
     13 C13         3.1980    0.3340    4.1470 ca        1 2OO      0.824500
     14 N14         3.9180    0.9490    5.1670 nb        1 2OO     -0.785000
     15 C15         3.2080    1.1680    6.3020 ca        1 2OO      0.708900
     16 N16         1.9150    0.8640    6.5450 nb        1 2OO     -0.796000
     17 C17         1.2630    0.2510    5.4680 ca        1 2OO      0.932900
     18 N18         1.8730   -0.0410    4.2510 nb        1 2OO     -0.846000
     19 N19        -0.0700   -0.0700    5.6100 nh        1 2OO     -0.948500
     20 C20         8.7460   -0.1230    3.9810 cg        1 2OO     -0.087000
     21 C21         9.6900   -0.1130    4.7190 c1        1 2OO     -0.164100
     22 C22        10.8360   -0.0880    5.6110 c3        1 2OO      0.240900
     23 C23        10.3690   -0.1950    7.0640 c3        1 2OO     -0.099600
     24 C24        11.6520    1.1890    5.4060 c3        1 2OO     -0.099600
     25 O25        11.7340   -1.1630    5.3180 oh        1 2OO     -0.591800
     26 H1         -0.3260   -0.2910   -1.1740 hc        1 2OO      0.044700
     27 H2         -0.4160    0.9410    0.1530 hc        1 2OO      0.044700
     28 H3         -0.5560   -0.8240    0.5440 hc        1 2OO      0.044700
     29 H4          1.7960   -1.2020   -0.3060 h1        1 2OO      0.057700
     30 H5          1.9430    0.5700   -0.6940 h1        1 2OO      0.057700
     31 H6          1.3100   -0.1530    2.0780 hn        1 2OO      0.437800
     32 H7          6.9520   -0.4250   -0.2470 ha        1 2OO      0.152000
     33 H8          8.8740   -0.3770    1.3490 ha        1 2OO      0.143000
     34 H9          6.2140    0.1040    4.7330 ha        1 2OO      0.164000
     35 H10         3.7610    1.6630    7.1310 h5        1 2OO      0.063100
     36 H11        -0.5070    0.0520    6.4910 hn        1 2OO      0.452300
     37 H12        -0.5320   -0.5830    4.9020 hn        1 2OO      0.452300
     38 H13         9.7360    0.6840    7.3280 hc        1 2OO      0.048533
     39 H14         9.7760   -1.1280    7.2150 hc        1 2OO      0.048533
     40 H15        11.2600   -0.2230    7.7350 hc        1 2OO      0.048533
     41 H16        12.0230    1.2400    4.3560 hc        1 2OO      0.048533
     42 H17        11.0140    2.0780    5.6190 hc        1 2OO      0.048533
     43 H18        12.5280    1.1820    6.0960 hc        1 2OO      0.048533
     44 H19        11.2320   -1.9820    5.3950 ho        1 2OO      0.404000
@<TRIPOS>BOND
     1    1    2 1   
     2    1   26 1   
     3    1   27 1   
     4    1   28 1   
     5    2    3 1   
     6    2   29 1   
     7    2   30 1   
     8    3    4 1   
     9    3   31 1   
    10    4    5 2   
    11    4   12 1   
    12    5    6 1   
    13    6    7 ar  
    14    6   11 ar  
    15    7    8 ar  
    16    7   32 1   
    17    8    9 ar  
    18    8   33 1   
    19    9   10 ar  
    20    9   20 1   
    21   10   11 ar  
    22   10   34 1   
    23   11   12 1   
    24   12   13 1   
    25   13   14 ar  
    26   13   18 ar  
    27   14   15 ar  
    28   15   16 ar  
    29   15   35 1   
    30   16   17 ar  
    31   17   18 ar  
    32   17   19 1   
    33   19   36 1   
    34   19   37 1   
    35   20   21 3   
    36   21   22 1   
    37   22   23 1   
    38   22   24 1   
    39   22   25 1   
    40   23   38 1   
    41   23   39 1   
    42   23   40 1   
    43   24   41 1   
    44   24   42 1   
    45   24   43 1   
    46   25   44 1   
@<TRIPOS>SUBSTRUCTURE
     1 2OO         1 TEMP              0 ****  ****    0 ROOT
