@<TRIPOS>MOLECULE
2OO
   44    46     1     0     0
SMALL
bcc


@<TRIPOS>ATOM
      1 C1          0.1040    0.0230   -0.1610 c3        1 2OO     -0.108100
      2 C2          1.6140    0.1430   -0.0290 c3        1 2OO      0.192800
      3 N3          2.0460    0.2040    1.3560 nu        1 2OO     -0.782200
      4 C4          3.4230    0.1910    1.5900 cc        1 2OO      0.663700
      5 N5          4.3800    0.4090    0.6470 nd        1 2OO     -0.619100
      6 C6          5.6060    0.4580    1.3380 ca        1 2OO      0.114400
      7 C7          6.8990    0.6510    0.8470 ca        1 2OO     -0.101000
      8 C8          7.9590    0.6380    1.7450 ca        1 2OO     -0.107000
      9 C9          7.7540    0.4300    3.1230 ca        1 2OO      0.013000
     10 C10         6.4650    0.2320    3.6470 ca        1 2OO     -0.075000
     11 C11         5.3950    0.2540    2.7580 ca        1 2OO     -0.064200
     12 N12         3.9980    0.0580    2.9230 na        1 2OO     -0.226100
     13 C13         3.3140   -0.0630    4.1460 ca        1 2OO      0.824500
     14 N14         3.9410    0.4060    5.2970 nb        1 2OO     -0.784000
     15 C15         3.2250    0.2350    6.4360 ca        1 2OO      0.708900
     16 N16         2.0040   -0.3250    6.5730 nb        1 2OO     -0.796000
     17 C17         1.4420   -0.7670    5.3690 ca        1 2OO      0.931900
     18 N18         2.0710   -0.6630    4.1310 nb        1 2OO     -0.846000
     19 N19         0.1800   -1.3220    5.4030 nv        1 2OO     -0.948500
     20 C20         8.8610    0.4210    3.9930 cg        1 2OO     -0.088000
     21 C21         9.8000    0.4160    4.7370 c1        1 2OO     -0.116100
     22 C22        10.9330    0.4120    5.6400 c3        1 2OO      0.241900
     23 C23        10.9950    1.7260    6.4230 c3        1 2OO     -0.120100
     24 C24        10.8400   -0.7710    6.6070 c3        1 2OO     -0.120100
     25 O25        12.1120    0.2790    4.8320 oh        1 2OO     -0.588800
     26 H1         -0.1540    0.0200   -1.2480 hc        1 2OO      0.044367
     27 H2         -0.2710   -0.9240    0.2960 hc        1 2OO      0.044367
     28 H3         -0.4150    0.8830    0.3260 hc        1 2OO      0.044367
     29 H4          1.9600    1.0900   -0.5350 h1        1 2OO      0.057700
     30 H5          2.0970   -0.7240   -0.5680 h1        1 2OO      0.057700
     31 H6          1.4950   -0.3500    1.9800 hn        1 2OO      0.436800
     32 H7          7.0690    0.8070   -0.2280 ha        1 2OO      0.152000
     33 H8          8.9850    0.7900    1.3760 ha        1 2OO      0.145000
     34 H9          6.3370    0.0700    4.7260 ha        1 2OO      0.163000
     35 H10         3.7040    0.6050    7.3690 h5        1 2OO      0.062100
     36 H11        -0.1990   -1.7300    4.5850 hn        1 2OO      0.451800
     37 H12        -0.2510   -1.4900    6.2780 hn        1 2OO      0.451800
     38 H13        10.0480    1.8760    6.9930 hc        1 2OO      0.048033
     39 H14        11.8510    1.6990    7.1380 hc        1 2OO      0.048033
     40 H15        11.1390    2.5800    5.7200 hc        1 2OO      0.048033
     41 H16        11.7010   -0.7470    7.3160 hc        1 2OO      0.048033
     42 H17         9.8900   -0.7170    7.1870 hc        1 2OO      0.048033
     43 H18        10.8690   -1.7300    6.0380 hc        1 2OO      0.048033
     44 H19        12.8570    0.2850    5.4440 ho        1 2OO      0.400000
@<TRIPOS>BOND
     1    1    2 1   
     2    1   26 1   
     3    1   27 1   
     4    1   28 1   
     5    2    3 1   
     6    2   29 1   
     7    2   30 1   
     8    3    4 1   
     9    3   31 1   
    10    4    5 2   
    11    4   12 1   
    12    5    6 1   
    13    6    7 ar  
    14    6   11 ar  
    15    7    8 ar  
    16    7   32 1   
    17    8    9 ar  
    18    8   33 1   
    19    9   10 ar  
    20    9   20 1   
    21   10   11 ar  
    22   10   34 1   
    23   11   12 1   
    24   12   13 1   
    25   13   14 ar  
    26   13   18 ar  
    27   14   15 ar  
    28   15   16 ar  
    29   15   35 1   
    30   16   17 ar  
    31   17   18 ar  
    32   17   19 1   
    33   19   36 1   
    34   19   37 1   
    35   20   21 3   
    36   21   22 1   
    37   22   23 1   
    38   22   24 1   
    39   22   25 1   
    40   23   38 1   
    41   23   39 1   
    42   23   40 1   
    43   24   41 1   
    44   24   42 1   
    45   24   43 1   
    46   25   44 1   
@<TRIPOS>SUBSTRUCTURE
     1 2OO         1 TEMP              0 ****  ****    0 ROOT
