@<TRIPOS>MOLECULE
2OO
   46    48     1     0     0
SMALL
bcc


@<TRIPOS>ATOM
      1 C1          0.1280    0.5380   -0.3880 c3        1 2OO     -0.148100
      2 C2          1.5950    0.2930   -0.1240 c3        1 2OO      0.124800
      3 N3          1.8720    0.1700    1.3590 n4        1 2OO     -0.673000
      4 C4          3.2900   -0.0120    1.6650 cc        1 2OO      0.386700
      5 N5          4.2270   -0.2570    0.7320 nd        1 2OO     -0.393100
      6 C6          5.4570   -0.2710    1.4040 ca        1 2OO      0.021400
      7 C7          6.7460   -0.4690    0.8920 ca        1 2OO     -0.002000
      8 C8          7.8180   -0.3880    1.7710 ca        1 2OO     -0.121000
      9 C9          7.6330   -0.1040    3.1400 ca        1 2OO      0.162000
     10 C10         6.3400    0.1000    3.6820 ca        1 2OO     -0.101000
     11 C11         5.2600   -0.0030    2.8210 ca        1 2OO     -0.023200
     12 N12         3.8440    0.1670    3.0070 na        1 2OO     -0.176100
     13 C13         3.1760    0.0330    4.2210 ca        1 2OO      0.828500
     14 N14         3.9500   -0.0150    5.3890 nb        1 2OO     -0.678000
     15 C15         3.2770   -0.0860    6.5470 ca        1 2OO      0.756900
     16 N16         1.9060   -0.1180    6.6860 nb        1 2OO     -0.699000
     17 C17         1.2390   -0.0720    5.5020 ca        1 2OO      0.791900
     18 N18         1.7760   -0.0010    4.2380 nb        1 2OO     -0.845000
     19 N19        -0.2550   -0.1100    5.6060 n4        1 2OO     -0.829300
     20 C20         8.7360   -0.0140    3.9990 cg        1 2OO     -0.214000
     21 C21         9.6770    0.0640    4.7400 c1        1 2OO      0.050900
     22 C22        10.8070    0.1600    5.6510 c3        1 2OO      0.215900
     23 C23        11.6290   -1.1290    5.6120 c3        1 2OO     -0.124600
     24 C24        11.6790    1.3620    5.2850 c3        1 2OO     -0.124600
     25 O25        10.2430    0.3420    6.9570 oh        1 2OO     -0.597800
     26 H1         -0.2300    1.4940    0.0670 hc        1 2OO      0.085700
     27 H2         -0.5120   -0.3050   -0.0310 hc        1 2OO      0.085700
     28 H3         -0.0030    0.6200   -1.5010 hc        1 2OO      0.085700
     29 H4          2.2200    1.1460   -0.5200 hx        1 2OO      0.131700
     30 H5          1.9340   -0.6640   -0.6200 hx        1 2OO      0.131700
     31 H6          1.5390    1.0260    1.8230 hn        1 2OO      0.459300
     32 H7          6.9010   -0.6760   -0.1810 ha        1 2OO      0.187000
     33 H8          8.8440   -0.5430    1.3910 ha        1 2OO      0.186000
     34 H9          6.2550    0.3380    4.7530 ha        1 2OO      0.190000
     35 H10         3.8720   -0.1250    7.4970 h5        1 2OO      0.134100
     36 H11        -0.6510    0.7450    5.1950 hn        1 2OO      0.493133
     37 H12        -0.5300   -0.1640    6.6040 hn        1 2OO      0.493133
     38 H13        12.0000   -1.3190    4.5770 hc        1 2OO      0.061200
     39 H14        11.0080   -1.9930    5.9470 hc        1 2OO      0.061200
     40 H15        12.5060   -1.0300    6.2970 hc        1 2OO      0.061200
     41 H16        11.0950    2.3080    5.3860 hc        1 2OO      0.061200
     42 H17        12.5560    1.4080    5.9740 hc        1 2OO      0.061200
     43 H18        12.0490    1.2660    4.2370 hc        1 2OO      0.061200
     44 H19        10.9890    0.4160    7.5670 ho        1 2OO      0.425000
     45 H32         1.3530   -0.6380    1.7260 hn        1 2OO      0.459300
     46 H193       -0.6150   -0.9360    5.1130 hn        1 2OO      0.493133
@<TRIPOS>BOND
     1    1    2 1   
     2    1   26 1   
     3    1   27 1   
     4    1   28 1   
     5    2    3 1   
     6    2   29 1   
     7    2   30 1   
     8    3    4 1   
     9    3   31 1   
    10    3   45 1   
    11    4    5 2   
    12    4   12 1   
    13    5    6 1   
    14    6    7 ar  
    15    6   11 ar  
    16    7    8 ar  
    17    7   32 1   
    18    8    9 ar  
    19    8   33 1   
    20    9   10 ar  
    21    9   20 1   
    22   10   11 ar  
    23   10   34 1   
    24   11   12 1   
    25   12   13 1   
    26   13   14 ar  
    27   13   18 ar  
    28   14   15 ar  
    29   15   16 ar  
    30   15   35 1   
    31   16   17 ar  
    32   17   18 ar  
    33   17   19 1   
    34   19   36 1   
    35   19   37 1   
    36   19   46 1   
    37   20   21 3   
    38   21   22 1   
    39   22   23 1   
    40   22   24 1   
    41   22   25 1   
    42   23   38 1   
    43   23   39 1   
    44   23   40 1   
    45   24   41 1   
    46   24   42 1   
    47   24   43 1   
    48   25   44 1   
@<TRIPOS>SUBSTRUCTURE
     1 2OO         1 TEMP              0 ****  ****    0 ROOT
