@<TRIPOS>MOLECULE
2OP
   11    10     1     0     0
SMALL
bcc


@<TRIPOS>ATOM
      1 C           0.0990    0.1950   -0.0410 c         1 2OP      0.892600
      2 O          -0.4110    0.2400    1.1180 o         1 2OP     -0.840300
      3 CB          2.0190   -1.2950   -0.6950 c3        1 2OP     -0.089100
      4 OHN         2.2490    0.2100    1.1560 oh        1 2OP     -0.651800
      5 CA          1.6400    0.0540   -0.1170 c3        1 2OP      0.013100
      6 OXT        -0.5520    0.2620   -1.1180 o         1 2OP     -0.840300
      7 HB1         3.1220   -1.3660   -0.8460 hc        1 2OP      0.020033
      8 HB2         1.5000   -1.4300   -1.6730 hc        1 2OP      0.020033
      9 HB3         1.7060   -2.1120   -0.0020 hc        1 2OP      0.020033
     10 HHN         1.5360    0.1660    1.8140 ho        1 2OP      0.422000
     11 HA          2.0550    0.8770   -0.7600 h1        1 2OP      0.031700
@<TRIPOS>BOND
     1    1    2 1   
     2    1    5 1   
     3    1    6 1   
     4    3    5 1   
     5    3    7 1   
     6    3    8 1   
     7    3    9 1   
     8    4    5 1   
     9    4   10 1   
    10    5   11 1   
@<TRIPOS>SUBSTRUCTURE
     1 2OP         1 TEMP              0 ****  ****    0 ROOT
