@<TRIPOS>MOLECULE
2OP
   11    10     1     0     0
SMALL
bcc


@<TRIPOS>ATOM
      1 C           0.1100    0.2200   -0.0520 c         1 2OP      0.892600
      2 O          -0.4100    0.2750    1.1010 o         1 2OP     -0.840300
      3 CB          2.0060   -1.3080   -0.6890 c3        1 2OP     -0.089100
      4 OHN         2.2490    0.1930    1.1650 oh        1 2OP     -0.651800
      5 CA          1.6490    0.0480   -0.1140 c3        1 2OP      0.013100
      6 OXT        -0.5300    0.2990   -1.1360 o         1 2OP     -0.840300
      7 HB1         3.1090   -1.4010   -0.8300 hc        1 2OP      0.020033
      8 HB2         1.4940   -1.4330   -1.6720 hc        1 2OP      0.020033
      9 HB3         1.6710   -2.1180    0.0020 hc        1 2OP      0.020033
     10 HHN         1.5290    0.1630    1.8160 ho        1 2OP      0.422000
     11 HA          2.0860    0.8630   -0.7540 h1        1 2OP      0.031700
@<TRIPOS>BOND
     1    1    2 1   
     2    1    5 1   
     3    1    6 1   
     4    3    5 1   
     5    3    7 1   
     6    3    8 1   
     7    3    9 1   
     8    4    5 1   
     9    4   10 1   
    10    5   11 1   
@<TRIPOS>SUBSTRUCTURE
     1 2OP         1 TEMP              0 ****  ****    0 ROOT
