@<TRIPOS>MOLECULE
2OP
   11     9     1     0     0
SMALL
bcc


@<TRIPOS>ATOM
      1 C          -1.3470    0.3780    0.0850 c1        1 2OP      0.312000
      2 O          -1.9770    1.0080   -0.8050 o         1 2OP     -0.575000
      3 CB          0.6680   -0.8570   -0.6270 c3        1 2OP     -0.207000
      4 OHN         0.6340    0.3780    1.4120 oh        1 2OP     -0.379000
      5 CA          0.1640    0.3780    0.0850 c2        1 2OP     -0.048000
      6 OXT        -1.9770   -0.2520    0.9750 o         1 2OP     -0.575000
      7 HB1         0.3870   -1.6530   -0.1380 hc        1 2OP      0.059333
      8 HB2         1.6430   -0.8310   -0.6730 hc        1 2OP      0.059333
      9 HB3         0.3010   -0.8830   -1.5310 hc        1 2OP      0.059333
     10 HHN         1.0150    1.1590    1.5920 ho        1 2OP      0.221000
     11 HA          0.4900    1.1750   -0.3750 h4        1 2OP      0.071000
@<TRIPOS>BOND
     1    1    2 1   
     2    1    6 1   
     3    3    5 1   
     4    3    7 1   
     5    3    8 1   
     6    3    9 1   
     7    4    5 1   
     8    4   10 1   
     9    5   11 1   
@<TRIPOS>SUBSTRUCTURE
     1 2OP         1 TEMP              0 ****  ****    0 ROOT
