@<TRIPOS>MOLECULE
2OP
   11    10     1     0     0
SMALL
bcc


@<TRIPOS>ATOM
      1 C          -0.7770   -0.1210    0.0830 c         1 2OP      0.931600
      2 O          -1.0380   -0.4510   -1.1040 o         1 2OP     -0.833800
      3 CB          1.2480    1.2260   -0.6100 c3        1 2OP     -0.110100
      4 OHN         1.4650   -0.9030    0.5260 oh        1 2OP     -0.585800
      5 CA          0.6890    0.2840    0.4380 c3        1 2OP      0.005100
      6 OXT        -1.6220   -0.0400    1.0170 o         1 2OP     -0.833800
      7 HB1         2.3250    1.4530   -0.4170 hc        1 2OP      0.022033
      8 HB2         1.1470    0.7560   -1.6180 hc        1 2OP      0.022033
      9 HB3         0.6710    2.1800   -0.6030 hc        1 2OP      0.022033
     10 HHN         2.3740   -0.6180    0.6720 ho        1 2OP      0.351000
     11 HA          0.6920    0.7890    1.4450 h1        1 2OP      0.008700
@<TRIPOS>BOND
     1    1    2 1   
     2    1    5 1   
     3    1    6 1   
     4    3    5 1   
     5    3    7 1   
     6    3    8 1   
     7    3    9 1   
     8    4    5 1   
     9    4   10 1   
    10    5   11 1   
@<TRIPOS>SUBSTRUCTURE
     1 2OP         1 TEMP              0 ****  ****    0 ROOT
