@<TRIPOS>MOLECULE
2OQ
   46    49     1     0     0
SMALL
bcc


@<TRIPOS>ATOM
      1 C1         -0.0800   -0.4050    0.0610 c3        1 2OQ     -0.112400
      2 C2          1.4050   -0.4200   -0.0460 cc        1 2OQ      0.474800
      3 N3          2.2260   -0.7130    0.9730 nd        1 2OQ     -0.565100
      4 C4          3.5400   -0.6370    0.4650 ca        1 2OQ      0.083400
      5 C5          4.7660   -0.8400    1.1040 ca        1 2OQ     -0.083000
      6 C6          5.9300   -0.6930    0.3630 ca        1 2OQ     -0.120000
      7 C7          5.8940   -0.3430   -1.0040 ca        1 2OQ      0.024000
      8 C8          4.6780   -0.1340   -1.6740 ca        1 2OQ     -0.078000
      9 C9          3.5020   -0.2840   -0.9420 ca        1 2OQ     -0.053200
     10 N10         2.1270   -0.1420   -1.2610 na        1 2OQ     -0.212100
     11 C11         1.5960    0.1910   -2.5230 ca        1 2OQ      0.816500
     12 N12         2.4080    0.0110   -3.6390 nb        1 2OQ     -0.787000
     13 C13         1.8300    0.3570   -4.8160 ca        1 2OQ      0.708900
     14 N14         0.5860    0.8420   -5.0190 nb        1 2OQ     -0.795000
     15 C15        -0.1660    0.9860   -3.8460 ca        1 2OQ      0.925900
     16 N16         0.3070    0.6800   -2.5720 nb        1 2OQ     -0.826000
     17 N17        -1.4650    1.4350   -3.9550 nv        1 2OQ     -0.945500
     18 C18         7.1030   -0.2000   -1.7130 cg        1 2OQ     -0.099000
     19 C19         8.1320   -0.0770   -2.3150 c1        1 2OQ     -0.146100
     20 C20         9.3740    0.0710   -3.0510 c3        1 2OQ      0.240900
     21 C21        10.5790    0.0670   -2.0910 c3        1 2OQ     -0.080400
     22 C22        10.8220   -1.3010   -1.4930 c3        1 2OQ     -0.076400
     23 C23        10.9850   -2.3550   -2.5680 c3        1 2OQ     -0.078400
     24 C24         9.7830   -2.3820   -3.4890 c3        1 2OQ     -0.076400
     25 C25         9.5300   -1.0290   -4.1160 c3        1 2OQ     -0.080400
     26 O26         9.3750    1.2990   -3.7880 oh        1 2OQ     -0.591800
     27 H1         -0.5380   -1.0430   -0.7330 hc        1 2OQ      0.070367
     28 H2         -0.3920   -0.8020    1.0610 hc        1 2OQ      0.070367
     29 H3         -0.4590    0.6430   -0.0400 hc        1 2OQ      0.070367
     30 H4          4.8010   -1.1100    2.1700 ha        1 2OQ      0.153000
     31 H5          6.9060   -0.8500    0.8470 ha        1 2OQ      0.141000
     32 H6          4.6860    0.1370   -2.7390 ha        1 2OQ      0.171000
     33 H7          2.4600    0.2230   -5.7230 h5        1 2OQ      0.063100
     34 H8         -1.7940    1.7530   -4.8340 hn        1 2OQ      0.451800
     35 H9         -1.9820    1.6430   -3.1370 hn        1 2OQ      0.451800
     36 H10        11.4780    0.3950   -2.6760 hc        1 2OQ      0.055200
     37 H11        10.4070    0.8160   -1.2760 hc        1 2OQ      0.055200
     38 H12        11.7430   -1.2660   -0.8550 hc        1 2OQ      0.045450
     39 H13         9.9600   -1.5760   -0.8290 hc        1 2OQ      0.045450
     40 H14        11.9110   -2.1420   -3.1650 hc        1 2OQ      0.041200
     41 H15        11.1160   -3.3600   -2.0910 hc        1 2OQ      0.041200
     42 H16         9.9470   -3.1370   -4.3010 hc        1 2OQ      0.045450
     43 H17         8.8760   -2.7000   -2.9090 hc        1 2OQ      0.045450
     44 H18         8.6050   -1.0600   -4.7450 hc        1 2OQ      0.055200
     45 H19        10.3870   -0.7420   -4.7790 hc        1 2OQ      0.055200
     46 H20         9.2350    2.0110   -3.1540 ho        1 2OQ      0.404000
@<TRIPOS>BOND
     1    1    2 1   
     2    1   27 1   
     3    1   28 1   
     4    1   29 1   
     5    2    3 2   
     6    2   10 1   
     7    3    4 1   
     8    4    5 ar  
     9    4    9 ar  
    10    5    6 ar  
    11    5   30 1   
    12    6    7 ar  
    13    6   31 1   
    14    7    8 ar  
    15    7   18 1   
    16    8    9 ar  
    17    8   32 1   
    18    9   10 1   
    19   10   11 1   
    20   11   12 ar  
    21   11   16 ar  
    22   12   13 ar  
    23   13   14 ar  
    24   13   33 1   
    25   14   15 ar  
    26   15   16 ar  
    27   15   17 1   
    28   17   34 1   
    29   17   35 1   
    30   18   19 3   
    31   19   20 1   
    32   20   21 1   
    33   20   25 1   
    34   20   26 1   
    35   21   22 1   
    36   21   36 1   
    37   21   37 1   
    38   22   23 1   
    39   22   38 1   
    40   22   39 1   
    41   23   24 1   
    42   23   40 1   
    43   23   41 1   
    44   24   25 1   
    45   24   42 1   
    46   24   43 1   
    47   25   44 1   
    48   25   45 1   
    49   26   46 1   
@<TRIPOS>SUBSTRUCTURE
     1 2OQ         1 TEMP              0 ****  ****    0 ROOT
