@<TRIPOS>MOLECULE
2OQ
   47    50     1     0     0
SMALL
bcc


@<TRIPOS>ATOM
      1 C1         -0.1880   -0.2770    0.1020 c3        1 2OQ     -0.115400
      2 C2          1.2790   -0.4600   -0.0580 cc        1 2OQ      0.457800
      3 N3          2.0760   -0.9670    0.8730 nd        1 2OQ     -0.497100
      4 C4          3.3930   -0.9750    0.3450 ca        1 2OQ      0.078400
      5 C5          4.5810   -1.4090    0.9270 ca        1 2OQ     -0.056000
      6 C6          5.7550   -1.3060    0.1820 ca        1 2OQ     -0.105000
      7 C7          5.7530   -0.7810   -1.1210 ca        1 2OQ      0.070000
      8 C8          4.5610   -0.3360   -1.7320 ca        1 2OQ     -0.082000
      9 C9          3.3870   -0.4340   -0.9990 ca        1 2OQ     -0.071200
     10 N10         2.0200   -0.0960   -1.2730 na        1 2OQ     -0.194100
     11 C11         1.5380    0.4480   -2.4400 ca        1 2OQ      0.843500
     12 N12         2.4310    0.7260   -3.4910 nb        1 2OQ     -0.709000
     13 C13         1.8980    1.2540   -4.6010 ca        1 2OQ      0.732900
     14 N14         0.5730    1.5530   -4.8200 nb        1 2OQ     -0.746000
     15 C15        -0.2140    1.2490   -3.7450 ca        1 2OQ      0.771900
     16 N16         0.1590    0.7120   -2.5510 nb        1 2OQ     -0.778000
     17 N17        -1.6760    1.5420   -3.8980 n4        1 2OQ     -0.826300
     18 C18         6.9560   -0.6920   -1.8460 cg        1 2OQ     -0.155000
     19 C19         7.9790   -0.6170   -2.4660 c1        1 2OQ     -0.077100
     20 C20         9.2090   -0.5200   -3.2370 c3        1 2OQ      0.227900
     21 C21        10.4330   -0.4640   -2.3070 c3        1 2OQ     -0.081900
     22 C22        10.6870   -1.7880   -1.6220 c3        1 2OQ     -0.076900
     23 C23        10.8220   -2.9150   -2.6250 c3        1 2OQ     -0.081400
     24 C24         9.5990   -3.0000   -3.5150 c3        1 2OQ     -0.076900
     25 C25         9.3350   -1.6930   -4.2270 c3        1 2OQ     -0.081900
     26 O26         9.1730    0.6530   -4.0560 oh        1 2OQ     -0.586800
     27 H1         -0.7420   -0.8820   -0.6580 hc        1 2OQ      0.073700
     28 H2         -0.4990   -0.6280    1.1210 hc        1 2OQ      0.073700
     29 H3         -0.4610    0.8020    0.0080 hc        1 2OQ      0.073700
     30 H4          4.5900   -1.8210    1.9480 ha        1 2OQ      0.171000
     31 H5          6.7070   -1.6440    0.6250 ha        1 2OQ      0.162000
     32 H6          4.6120    0.0660   -2.7540 ha        1 2OQ      0.173000
     33 H7          2.5930    1.4820   -5.4450 h5        1 2OQ      0.107100
     34 H8         -2.1850    1.2830   -3.0430 hn        1 2OQ      0.483800
     35 H9         -1.7960    2.5460   -4.0820 hn        1 2OQ      0.483800
     36 H10        11.3200   -0.1810   -2.9330 hc        1 2OQ      0.059450
     37 H11        10.2830    0.3400   -1.5410 hc        1 2OQ      0.059450
     38 H12        11.6250   -1.7120   -1.0120 hc        1 2OQ      0.047200
     39 H13         9.8430   -2.0140   -0.9170 hc        1 2OQ      0.047200
     40 H14        11.7350   -2.7480   -3.2560 hc        1 2OQ      0.048700
     41 H15        10.9600   -3.8850   -2.0820 hc        1 2OQ      0.048700
     42 H16         9.7460   -3.8090   -4.2780 hc        1 2OQ      0.047200
     43 H17         8.7060   -3.2790   -2.8960 hc        1 2OQ      0.047200
     44 H18         8.3970   -1.7620   -4.8340 hc        1 2OQ      0.059450
     45 H19        10.1790   -1.4540   -4.9270 hc        1 2OQ      0.059450
     46 H20         9.2330    1.4140   -3.4660 ho        1 2OQ      0.406000
     47 H173       -2.0410    1.0040   -4.6950 hn        1 2OQ      0.483800
@<TRIPOS>BOND
     1    1    2 1   
     2    1   27 1   
     3    1   28 1   
     4    1   29 1   
     5    2    3 2   
     6    2   10 1   
     7    3    4 1   
     8    4    5 ar  
     9    4    9 ar  
    10    5    6 ar  
    11    5   30 1   
    12    6    7 ar  
    13    6   31 1   
    14    7    8 ar  
    15    7   18 1   
    16    8    9 ar  
    17    8   32 1   
    18    9   10 1   
    19   10   11 1   
    20   11   12 ar  
    21   11   16 ar  
    22   12   13 ar  
    23   13   14 ar  
    24   13   33 1   
    25   14   15 ar  
    26   15   16 ar  
    27   15   17 1   
    28   17   34 1   
    29   17   35 1   
    30   17   47 1   
    31   18   19 3   
    32   19   20 1   
    33   20   21 1   
    34   20   25 1   
    35   20   26 1   
    36   21   22 1   
    37   21   36 1   
    38   21   37 1   
    39   22   23 1   
    40   22   38 1   
    41   22   39 1   
    42   23   24 1   
    43   23   40 1   
    44   23   41 1   
    45   24   25 1   
    46   24   42 1   
    47   24   43 1   
    48   25   44 1   
    49   25   45 1   
    50   26   46 1   
@<TRIPOS>SUBSTRUCTURE
     1 2OQ         1 TEMP              0 ****  ****    0 ROOT
