@<TRIPOS>MOLECULE
2OQ
   46    49     1     0     0
SMALL
bcc


@<TRIPOS>ATOM
      1 C1         -0.0170   -0.2540    0.1710 c3        1 2OQ     -0.112400
      2 C2          1.4560   -0.3940    0.0190 cc        1 2OQ      0.473800
      3 N3          2.2650   -0.8800    0.9710 nd        1 2OQ     -0.565100
      4 C4          3.5750   -0.8330    0.4500 ca        1 2OQ      0.083400
      5 C5          4.7880   -1.2270    1.0220 ca        1 2OQ     -0.083000
      6 C6          5.9500   -1.0750    0.2780 ca        1 2OQ     -0.120000
      7 C7          5.9240   -0.5420   -1.0280 ca        1 2OQ      0.025000
      8 C8          4.7220   -0.1380   -1.6300 ca        1 2OQ     -0.079000
      9 C9          3.5490   -0.2780   -0.8900 ca        1 2OQ     -0.053200
     10 N10         2.1840   -0.0030   -1.1610 na        1 2OQ     -0.212100
     11 C11         1.6680    0.5530   -2.3490 ca        1 2OQ      0.816500
     12 N12         2.5460    1.2420   -3.1800 nb        1 2OQ     -0.787000
     13 C13         1.9770    1.7430   -4.3050 ca        1 2OQ      0.708900
     14 N14         0.6870    1.6530   -4.6940 nb        1 2OQ     -0.794000
     15 C15        -0.1290    0.9520   -3.7980 ca        1 2OQ      0.925900
     16 N16         0.3260    0.3750   -2.6130 nb        1 2OQ     -0.825000
     17 N17        -1.4730    0.8420   -4.0870 nh        1 2OQ     -0.945500
     18 C18         7.1290   -0.4130   -1.7460 cg        1 2OQ     -0.099000
     19 C19         8.1560   -0.3010   -2.3540 c1        1 2OQ     -0.146100
     20 C20         9.3960   -0.1650   -3.0970 c3        1 2OQ      0.240900
     21 C21        10.5900   -0.0100   -2.1380 c3        1 2OQ     -0.080400
     22 C22        10.8970   -1.2950   -1.4030 c3        1 2OQ     -0.076400
     23 C23        11.1230   -2.4430   -2.3650 c3        1 2OQ     -0.078400
     24 C24         9.9310   -2.6250   -3.2810 c3        1 2OQ     -0.076400
     25 C25         9.6160   -1.3580   -4.0440 c3        1 2OQ     -0.080400
     26 O26         9.3400    0.9800   -3.9560 oh        1 2OQ     -0.591800
     27 H1         -0.5410   -0.9730   -0.5070 hc        1 2OQ      0.070367
     28 H2         -0.3120   -0.4800    1.2270 hc        1 2OQ      0.070367
     29 H3         -0.3400    0.7880   -0.0720 hc        1 2OQ      0.070367
     30 H4          4.8140   -1.6460    2.0380 ha        1 2OQ      0.153000
     31 H5          6.9150   -1.3780    0.7110 ha        1 2OQ      0.141000
     32 H6          4.7370    0.2720   -2.6500 ha        1 2OQ      0.171000
     33 H7          2.6590    2.2970   -4.9870 h5        1 2OQ      0.063100
     34 H8         -1.8040    1.1540   -4.9670 hn        1 2OQ      0.451800
     35 H9         -2.0490    0.2650   -3.5260 hn        1 2OQ      0.451800
     36 H10        11.4770    0.3030   -2.7500 hc        1 2OQ      0.055200
     37 H11        10.3740    0.8080   -1.4040 hc        1 2OQ      0.055200
     38 H12        11.8100   -1.1490   -0.7690 hc        1 2OQ      0.045450
     39 H13        10.0450   -1.5450   -0.7170 hc        1 2OQ      0.045450
     40 H14        12.0420   -2.2450   -2.9770 hc        1 2OQ      0.041200
     41 H15        11.3000   -3.3870   -1.7870 hc        1 2OQ      0.041200
     42 H16        10.1410   -3.4500   -4.0120 hc        1 2OQ      0.045450
     43 H17         9.0370   -2.9300   -2.6760 hc        1 2OQ      0.045450
     44 H18         8.6990   -1.5000   -4.6700 hc        1 2OQ      0.055200
     45 H19        10.4630   -1.0960   -4.7310 hc        1 2OQ      0.055200
     46 H20         9.1580    1.7450   -3.3980 ho        1 2OQ      0.405000
@<TRIPOS>BOND
     1    1    2 1   
     2    1   27 1   
     3    1   28 1   
     4    1   29 1   
     5    2    3 2   
     6    2   10 1   
     7    3    4 1   
     8    4    5 ar  
     9    4    9 ar  
    10    5    6 ar  
    11    5   30 1   
    12    6    7 ar  
    13    6   31 1   
    14    7    8 ar  
    15    7   18 1   
    16    8    9 ar  
    17    8   32 1   
    18    9   10 1   
    19   10   11 1   
    20   11   12 ar  
    21   11   16 ar  
    22   12   13 ar  
    23   13   14 ar  
    24   13   33 1   
    25   14   15 ar  
    26   15   16 ar  
    27   15   17 1   
    28   17   34 1   
    29   17   35 1   
    30   18   19 3   
    31   19   20 1   
    32   20   21 1   
    33   20   25 1   
    34   20   26 1   
    35   21   22 1   
    36   21   36 1   
    37   21   37 1   
    38   22   23 1   
    39   22   38 1   
    40   22   39 1   
    41   23   24 1   
    42   23   40 1   
    43   23   41 1   
    44   24   25 1   
    45   24   42 1   
    46   24   43 1   
    47   25   44 1   
    48   25   45 1   
    49   26   46 1   
@<TRIPOS>SUBSTRUCTURE
     1 2OQ         1 TEMP              0 ****  ****    0 ROOT
