@<TRIPOS>MOLECULE
2OS
   68    68     1     0     0
SMALL
bcc


@<TRIPOS>ATOM
      1 C4          1.9700    0.4690    0.3550 c1        1 2OS      0.318000
      2 C7          3.5240    0.5550    0.4140 c2        1 2OS     -0.155000
      3 C8          3.9430    1.2760    1.6830 c3        1 2OS     -0.158000
      4 C9          5.3940    1.6800    1.5830 c3        1 2OS     -0.157000
      5 C10         5.8200    2.4120    2.8830 c3        1 2OS     -0.158000
      6 C11         7.2520    2.9220    2.7280 c3        1 2OS     -0.158000
      7 C12         7.7150    3.6080    4.0710 c3        1 2OS     -0.159000
      8 C1         -5.5150   -2.9690   -2.0110 c3        1 2OS     -0.039000
      9 C2         -5.4980   -3.4160   -0.5060 c3        1 2OS     -0.023000
     10 C3         -4.1420   -3.0130    0.0230 c3        1 2OS     -0.012000
     11 C13        -3.4300   -2.6850   -1.0630 c3        1 2OS      0.163000
     12 O2         -4.4780   -2.2070   -2.1520 os        1 2OS     -0.313000
     13 O4         -5.6580   -4.7480   -0.4120 oh        1 2OS     -0.312000
     14 C17        -6.7890   -2.1960   -2.3140 c3        1 2OS     -0.037000
     15 O1         -7.0640   -2.2820   -3.6610 oh        1 2OS     -0.332000
     16 C18        -2.6550   -3.8960   -1.5680 c3        1 2OS     -0.042000
     17 O3         -3.4310   -5.0540   -1.3930 oh        1 2OS     -0.325000
     18 O5         -4.2730   -1.8640    0.9070 oh        1 2OS     -0.291000
     19 C21        -2.0320   -1.0460   -1.9330 c3        1 2OS      0.124000
     20 C24        -0.5460   -0.8930   -1.8290 c3        1 2OS     -0.007000
     21 C27        -0.1460    0.1560   -0.8290 c3        1 2OS     -0.030000
     22 C16        -0.8450    1.4500   -1.0660 c3        1 2OS      0.011000
     23 C29        -2.3310    1.2810   -1.1750 c3        1 2OS     -0.045000
     24 O9          0.0210   -2.1480   -1.4420 oh        1 2OS     -0.319000
     25 O11         1.2990    0.3720   -0.9260 os        1 2OS     -0.263000
     26 O13        -0.5520    2.3600    0.0470 oh        1 2OS     -0.304000
     27 O15        -2.7170    0.2370   -2.1580 os        1 2OS     -0.288000
     28 O6         -2.5160   -1.6140   -0.7480 os        1 2OS     -0.294000
     29 C32        -2.9270    2.5720   -1.5900 c3        1 2OS     -0.012000
     30 O17        -4.2860    2.6140   -1.1930 oh        1 2OS     -0.332000
     31 C31         9.1010    4.2610    3.8670 c3        1 2OS     -0.211000
     32 O7          1.3370    0.3900    1.3680 o         1 2OS     -0.366000
     33 H71         3.8490    1.0420   -0.3550 ha        1 2OS      0.122000
     34 H72         3.8910   -0.3220    0.4120 ha        1 2OS      0.122000
     35 H81         3.3960    2.0680    1.7970 hc        1 2OS      0.097000
     36 H82         3.8190    0.6630    2.4750 hc        1 2OS      0.097000
     37 H91         5.5170    2.2920    0.8010 hc        1 2OS      0.081000
     38 H92         5.9520    0.8780    1.4630 hc        1 2OS      0.081000
     39 H101        5.7740    1.7860    3.6420 hc        1 2OS      0.081500
     40 H102        5.2360    3.1440    3.0410 hc        1 2OS      0.081500
     41 H111        7.2900    3.5810    1.9910 hc        1 2OS      0.079000
     42 H112        7.8540    2.1580    2.5210 hc        1 2OS      0.079000
     43 H121        7.7750    2.9250    4.7890 hc        1 2OS      0.078500
     44 H122        7.0390    4.3230    4.3380 hc        1 2OS      0.078500
     45 H1         -5.4440   -3.7460   -2.5950 h1        1 2OS      0.136000
     46 H2         -6.2040   -2.9540   -0.0110 h1        1 2OS      0.143000
     47 H3         -3.7370   -3.7380    0.4790 h1        1 2OS      0.115000
     48 HO4        -6.4450   -4.9270   -0.0380 ho        1 2OS      0.216000
     49 H171       -6.6690   -1.2440   -2.0600 h1        1 2OS      0.104500
     50 H172       -7.5340   -2.5800   -1.8030 h1        1 2OS      0.104500
     51 HO1        -7.8930   -2.0760   -3.8000 ho        1 2OS      0.223000
     52 H181       -2.4470   -3.7820   -2.5220 h1        1 2OS      0.113500
     53 H182       -1.8400   -3.9810   -1.0730 h1        1 2OS      0.113500
     54 HO3        -2.9450   -5.7900   -1.6540 ho        1 2OS      0.215000
     55 HO5        -4.3450   -2.1430    1.7440 ho        1 2OS      0.208000
     56 H21        -2.2320   -1.6410   -2.6690 h2        1 2OS      0.145000
     57 H24        -0.1820   -0.6350   -2.7350 h1        1 2OS      0.139000
     58 H27        -0.3610   -0.1640    0.0760 h1        1 2OS      0.132000
     59 H16        -0.5140    1.8410   -1.8840 h1        1 2OS      0.139000
     60 H29        -2.6940    1.0300   -0.2780 h1        1 2OS      0.123000
     61 HO9         0.6900   -2.3930   -2.0560 ho        1 2OS      0.227000
     62 H13        -0.3900    3.1960   -0.2780 ho        1 2OS      0.203000
     63 H321       -2.8660    2.6630   -2.5810 h1        1 2OS      0.102500
     64 H322       -2.4450    3.2970   -1.1700 h1        1 2OS      0.102500
     65 H17        -4.6420    3.4170   -1.4230 ho        1 2OS      0.222000
     66 H311        9.7480    3.5750    3.5410 hc        1 2OS      0.072333
     67 H312        9.0260    5.0130    3.1780 hc        1 2OS      0.072333
     68 H313        9.4240    4.6360    4.7360 hc        1 2OS      0.072333
@<TRIPOS>BOND
     1    1   25 1   
     2    1   32 1   
     3    2    3 1   
     4    2   33 1   
     5    2   34 1   
     6    3    4 1   
     7    3   35 1   
     8    3   36 1   
     9    4    5 1   
    10    4   37 1   
    11    4   38 1   
    12    5    6 1   
    13    5   39 1   
    14    5   40 1   
    15    6    7 1   
    16    6   41 1   
    17    6   42 1   
    18    7   31 1   
    19    7   43 1   
    20    7   44 1   
    21    8    9 1   
    22    8   12 1   
    23    8   14 1   
    24    8   45 1   
    25    9   10 1   
    26    9   13 1   
    27    9   46 1   
    28   10   11 1   
    29   10   18 1   
    30   10   47 1   
    31   11   12 1   
    32   11   16 1   
    33   11   28 1   
    34   13   48 1   
    35   14   15 1   
    36   14   49 1   
    37   14   50 1   
    38   15   51 1   
    39   16   17 1   
    40   16   52 1   
    41   16   53 1   
    42   17   54 1   
    43   18   55 1   
    44   19   20 1   
    45   19   27 1   
    46   19   28 1   
    47   19   56 1   
    48   20   21 1   
    49   20   24 1   
    50   20   57 1   
    51   21   22 1   
    52   21   25 1   
    53   21   58 1   
    54   22   23 1   
    55   22   26 1   
    56   22   59 1   
    57   23   27 1   
    58   23   29 1   
    59   23   60 1   
    60   24   61 1   
    61   26   62 1   
    62   29   30 1   
    63   29   63 1   
    64   29   64 1   
    65   30   65 1   
    66   31   66 1   
    67   31   67 1   
    68   31   68 1   
@<TRIPOS>SUBSTRUCTURE
     1 2OS         1 TEMP              0 ****  ****    0 ROOT
