@<TRIPOS>MOLECULE
2OS
   68    69     1     0     0
SMALL
bcc


@<TRIPOS>ATOM
      1 C4         -0.5830   -0.5410    2.6230 c         1 2OS      0.649100
      2 C7         -1.0870   -0.4190    4.0260 c3        1 2OS     -0.125400
      3 C8          0.0560   -0.2140    4.9980 c3        1 2OS     -0.080400
      4 C9         -0.4460   -0.2260    6.4260 c3        1 2OS     -0.078400
      5 C10         0.6890   -0.0030    7.4030 c3        1 2OS     -0.079400
      6 C11         0.1920   -0.0180    8.8320 c3        1 2OS     -0.079400
      7 C12         1.3250    0.2050    9.8110 c3        1 2OS     -0.080400
      8 C1          1.0020    0.1030   -5.1250 c3        1 2OS      0.072100
      9 C2          1.4980   -1.3380   -4.9170 c3        1 2OS      0.079100
     10 C3          2.0550   -1.3810   -3.4730 c3        1 2OS      0.134100
     11 C13         1.7240    0.0190   -2.8810 c3        1 2OS      0.314600
     12 O2          1.3220    0.8640   -3.9470 os        1 2OS     -0.420600
     13 O4          2.5710   -1.6730   -5.7780 oh        1 2OS     -0.594800
     14 C18         2.9560    0.6180   -2.1750 c3        1 2OS      0.127400
     15 O3          2.7690    1.9480   -1.7620 oh        1 2OS     -0.591800
     16 O5          1.4250   -2.3740   -2.6970 oh        1 2OS     -0.561800
     17 C21        -0.0860    1.0660   -1.6640 c3        1 2OS      0.303900
     18 C24        -0.2330    1.0670   -0.1260 c3        1 2OS      0.101100
     19 C27        -1.1150   -0.1030    0.3230 c3        1 2OS      0.119100
     20 C16        -2.4540   -0.0690   -0.4240 c3        1 2OS      0.121100
     21 C29        -2.2040   -0.0480   -1.9430 c3        1 2OS      0.070100
     22 O9          1.0450    1.0210    0.4740 oh        1 2OS     -0.603800
     23 O11        -1.4260    0.0490    1.7150 os        1 2OS     -0.430900
     24 O13        -3.1370   -1.2610   -0.0660 oh        1 2OS     -0.581800
     25 O15        -1.3330    1.0210   -2.3240 os        1 2OS     -0.435600
     26 O6          0.5950   -0.1200   -2.0340 os        1 2OS     -0.446600
     27 C31         0.8360    0.1910   11.2360 c3        1 2OS     -0.093100
     28 O7          0.4410   -1.0860    2.2050 o         1 2OS     -0.551000
     29 H71        -1.6390   -1.3690    4.2640 hc        1 2OS      0.080200
     30 H72        -1.8190    0.4290    4.0930 hc        1 2OS      0.080200
     31 H81         0.5640    0.7620    4.7820 hc        1 2OS      0.059200
     32 H82         0.8200   -1.0240    4.8520 hc        1 2OS      0.059200
     33 H91        -0.9430   -1.2080    6.6440 hc        1 2OS      0.041200
     34 H92        -1.2210    0.5750    6.5600 hc        1 2OS      0.041200
     35 H101        1.1840    0.9800    7.1870 hc        1 2OS      0.043200
     36 H102        1.4650   -0.8020    7.2650 hc        1 2OS      0.043200
     37 H111       -0.3030   -1.0020    9.0490 hc        1 2OS      0.039700
     38 H112       -0.5850    0.7800    8.9700 hc        1 2OS      0.039700
     39 H121        1.8190    1.1880    9.5920 hc        1 2OS      0.039700
     40 H122        2.1020   -0.5930    9.6710 hc        1 2OS      0.039700
     41 H1          1.5440    0.6210   -5.9620 h1        1 2OS      0.086700
     42 H2          0.6620   -2.0790   -5.0420 h1        1 2OS      0.068700
     43 H3          3.1690   -1.5360   -3.4930 h1        1 2OS      0.074700
     44 HO4         2.2520   -1.5660   -6.6820 ho        1 2OS      0.412000
     45 HO1        -0.7100    1.8340   -4.3980 ho        1 2OS      0.426000
     46 H181        3.8030    0.6600   -2.9130 h1        1 2OS      0.065200
     47 H182        3.2130   -0.0510   -1.3110 h1        1 2OS      0.065200
     48 HO3         2.3090    1.9330   -0.9100 ho        1 2OS      0.422000
     49 HO5         1.7410   -3.2220   -3.0350 ho        1 2OS      0.409000
     50 H21         0.4090    2.0030   -2.0480 h2        1 2OS      0.119700
     51 H24        -0.6750    2.0500    0.2000 h1        1 2OS      0.096700
     52 H27        -0.5930   -1.0840    0.1400 h1        1 2OS      0.111700
     53 H16        -3.0430    0.8350   -0.1080 h1        1 2OS      0.056700
     54 H29        -1.7470   -1.0230   -2.2680 h1        1 2OS      0.091700
     55 HO9         1.3360    0.0960    0.4810 ho        1 2OS      0.436000
     56 H13        -4.0620   -1.1360   -0.3080 ho        1 2OS      0.405000
     57 H17        -2.8380    0.8030   -4.3880 ho        1 2OS      0.429000
     58 H311        1.6860    0.3570   11.9400 hc        1 2OS      0.033033
     59 H312        0.0790    0.9950   11.4010 hc        1 2OS      0.033033
     60 H313        0.3620   -0.7910   11.4810 hc        1 2OS      0.033033
     61 C32        -3.5240    0.2100   -2.6820 c3        1 2OS      0.137400
     62 C17        -0.5110    0.1570   -5.3340 c3        1 2OS      0.114400
     63 O1         -0.9890    1.4840   -5.2580 oh        1 2OS     -0.604800
     64 O17        -3.3840    0.0670   -4.0740 oh        1 2OS     -0.601800
     65 H171       -1.0260   -0.4750   -4.5570 h1        1 2OS      0.060200
     66 H172       -0.7780   -0.1970   -6.3640 h1        1 2OS      0.060200
     67 H321       -4.2700   -0.5750   -2.3830 h1        1 2OS      0.048700
     68 H322       -3.9120    1.2310   -2.4220 h1        1 2OS      0.048700
@<TRIPOS>BOND
     1    1    2 1   
     2    1   23 1   
     3    1   28 2   
     4    2    3 1   
     5    2   29 1   
     6    2   30 1   
     7    3    4 1   
     8    3   31 1   
     9    3   32 1   
    10    4    5 1   
    11    4   33 1   
    12    4   34 1   
    13    5    6 1   
    14    5   35 1   
    15    5   36 1   
    16    6    7 1   
    17    6   37 1   
    18    6   38 1   
    19    7   27 1   
    20    7   39 1   
    21    7   40 1   
    22    8    9 1   
    23    8   12 1   
    24    8   41 1   
    25    8   62 1   
    26    9   10 1   
    27    9   13 1   
    28    9   42 1   
    29   10   11 1   
    30   10   16 1   
    31   10   43 1   
    32   11   12 1   
    33   11   14 1   
    34   11   26 1   
    35   13   44 1   
    36   14   15 1   
    37   14   46 1   
    38   14   47 1   
    39   15   48 1   
    40   16   49 1   
    41   17   18 1   
    42   17   25 1   
    43   17   26 1   
    44   17   50 1   
    45   18   19 1   
    46   18   22 1   
    47   18   51 1   
    48   19   20 1   
    49   19   23 1   
    50   19   52 1   
    51   20   21 1   
    52   20   24 1   
    53   20   53 1   
    54   21   25 1   
    55   21   54 1   
    56   21   61 1   
    57   22   55 1   
    58   24   56 1   
    59   27   58 1   
    60   27   59 1   
    61   27   60 1   
    62   45   63 1   
    63   57   64 1   
    64   61   64 1   
    65   61   67 1   
    66   61   68 1   
    67   62   63 1   
    68   62   65 1   
    69   62   66 1   
@<TRIPOS>SUBSTRUCTURE
     1 2OS         1 TEMP              0 ****  ****    0 ROOT
