@<TRIPOS>MOLECULE
2OT
   50    51     1     0     0
SMALL
bcc


@<TRIPOS>ATOM
      1 P           4.6810   -0.8590   -2.6900 p5        1 2OT      1.427800
      2 OP1         6.1300   -1.1490   -2.7270 o         1 2OT     -0.841000
      3 OP2         4.3730   -0.3560   -4.2180 oh        1 2OT     -0.782400
      4 O5'         4.4810    0.5960   -1.9370 os        1 2OT     -0.582200
      5 C5'         3.1730    1.0050   -1.6770 c3        1 2OT      0.185400
      6 C4'         2.9560    1.1420   -0.1610 c3        1 2OT      0.085100
      7 O4'         2.1540    2.3120    0.0810 os        1 2OT     -0.431600
      8 C1'         0.9720    1.9710    0.8410 c3        1 2OT      0.309500
      9 N1         -0.1900    2.7180    0.4010 n         1 2OT     -0.320400
     10 C6         -1.2100    2.0870   -0.2670 c1        1 2OT     -0.104900
     11 C2         -0.2310    4.1040    0.7060 c         1 2OT      0.724100
     12 O2          0.6300    4.6980    1.4090 o         1 2OT     -0.695100
     13 N3         -1.3340    4.8360    0.2370 n         1 2OT     -0.597500
     14 C4         -2.4040    4.2420   -0.4750 c         1 2OT      0.677300
     15 O4         -3.3280    5.0180   -0.8330 o         1 2OT     -0.720100
     16 C5         -2.3110    2.8140   -0.6900 ce        1 2OT     -0.497500
     17 C5M        -3.4250    2.1520   -1.3900 c3        1 2OT      0.044100
     18 C2'         0.8200    0.4230    0.7360 c3        1 2OT      0.077100
     19 O2'         0.3840   -0.0820    1.9930 os        1 2OT     -0.429600
     20 CB'        -0.9980   -0.4400    1.9920 c3        1 2OT      0.095400
     21 CC'        -1.4160   -0.6100    3.4450 c3        1 2OT      0.134400
     22 OD'        -1.2010   -1.9720    3.8770 os        1 2OT     -0.277100
     23 NE'        -0.0620   -2.1710    4.5940 n3        1 2OT     -0.468100
     24 CF'        -0.3760   -3.1600    5.6280 c3        1 2OT      0.113100
     25 CG'         1.0130   -2.6530    3.7230 c3        1 2OT      0.113100
     26 C3'         2.2530   -0.0780    0.4660 c3        1 2OT      0.100100
     27 O3'         2.8960   -0.5060    1.6510 oh        1 2OT     -0.592800
     28 OP3         3.5990   -1.7540   -2.2340 o         1 2OT     -0.841000
     29 H5'         3.0230    2.0220   -2.1400 h1        1 2OT      0.043200
     30 H5''        2.4380    0.2780   -2.1180 h1        1 2OT      0.043200
     31 H4'         3.9430    1.3290    0.3440 h1        1 2OT      0.068700
     32 H1'         1.1960    2.2760    1.9090 h2        1 2OT      0.055700
     33 H6          5.1660   -0.0700   -4.6550 ho        1 2OT      0.418000
     34 HN3        -1.3450    5.8110    0.4220 hn        1 2OT      0.302500
     35 H71        -3.1530    1.1010   -1.6520 hc        1 2OT      0.000700
     36 H72        -3.6860    2.7020   -2.3290 hc        1 2OT      0.000700
     37 H73        -4.3450    2.1300   -0.7500 hc        1 2OT      0.000700
     38 H2'         0.1270    0.1390   -0.1020 h1        1 2OT      0.126700
     39 HB'1       -1.6030    0.3690    1.4940 h1        1 2OT      0.064200
     40 HB'2       -1.1210   -1.4030    1.4290 h1        1 2OT      0.064200
     41 HC'1       -2.5290   -0.4960    3.5320 h1        1 2OT      0.057700
     42 HC'2       -0.8940    0.1290    4.1010 h1        1 2OT      0.057700
     43 HF'1       -1.2450   -2.7900    6.2280 h1        1 2OT      0.042533
     44 HF'2        0.5260   -3.2450    6.2870 h1        1 2OT      0.042533
     45 HF'3       -0.6310   -4.1730    5.2200 h1        1 2OT      0.042533
     46 HG'1        1.9220   -2.8030    4.3590 h1        1 2OT      0.042533
     47 HG'2        1.2290   -1.8640    2.9490 h1        1 2OT      0.042533
     48 HG'3        0.7650   -3.6130    3.2000 h1        1 2OT      0.042533
     49 H3'         2.2830   -0.9740   -0.2160 h1        1 2OT      0.142700
     50 HO3'        2.7430    0.1750    2.3170 ho        1 2OT      0.391000
@<TRIPOS>BOND
     1    1    2 1   
     2    1    3 1   
     3    1    4 1   
     4    1   28 1   
     5    3   33 1   
     6    4    5 1   
     7    5    6 1   
     8    5   29 1   
     9    5   30 1   
    10    6    7 1   
    11    6   26 1   
    12    6   31 1   
    13    7    8 1   
    14    8    9 1   
    15    8   18 1   
    16    8   32 1   
    17    9   10 2   
    18    9   11 1   
    19   10   16 2   
    20   11   12 2   
    21   11   13 1   
    22   13   14 1   
    23   13   34 1   
    24   14   15 2   
    25   14   16 1   
    26   16   17 1   
    27   17   35 1   
    28   17   36 1   
    29   17   37 1   
    30   18   19 1   
    31   18   26 1   
    32   18   38 1   
    33   19   20 1   
    34   20   21 1   
    35   20   39 1   
    36   20   40 1   
    37   21   22 1   
    38   21   41 1   
    39   21   42 1   
    40   22   23 1   
    41   23   24 1   
    42   23   25 1   
    43   24   43 1   
    44   24   44 1   
    45   24   45 1   
    46   25   46 1   
    47   25   47 1   
    48   25   48 1   
    49   26   27 1   
    50   26   49 1   
    51   27   50 1   
@<TRIPOS>SUBSTRUCTURE
     1 2OT         1 TEMP              0 ****  ****    0 ROOT
