@<TRIPOS>MOLECULE
2OT
   50    50     1     0     0
SMALL
bcc


@<TRIPOS>ATOM
      1 P           4.0410   -0.2170    4.3570 p4        1 2OT      1.712200
      2 OP1         4.8980   -1.0710    3.4270 o         1 2OT     -0.939500
      3 OP2         4.9360    0.6430    5.2180 os        1 2OT     -1.214000
      4 O5'         3.0730    0.7180    3.4810 os        1 2OT     -0.569200
      5 C5'         2.1620    0.0970    2.6060 c3        1 2OT      0.221400
      6 C4'         1.0000    1.0680    2.2870 c3        1 2OT      0.067100
      7 O4'         1.3980    2.0250    1.1120 os        1 2OT     -0.431600
      8 C1'         0.5990    1.5390   -0.0980 c3        1 2OT      0.303500
      9 N1          1.4640    1.3960   -1.2510 n         1 2OT     -0.371000
     10 C6          2.8540    1.6810   -1.1330 cc        1 2OT      0.051600
     11 C2          0.8800    1.1460   -2.5730 c         1 2OT      0.797500
     12 O2         -0.2880    0.8770   -2.6740 o         1 2OT     -0.706500
     13 N3          1.7120    1.2410   -3.7700 n         1 2OT     -0.599500
     14 C4          3.0710    1.6760   -3.6660 c         1 2OT      0.716700
     15 O4          3.7010    1.9300   -4.6600 o         1 2OT     -0.685500
     16 C5          3.6820    1.8410   -2.3540 cd        1 2OT     -0.289400
     17 C5M         5.1010    2.3780   -2.2440 c3        1 2OT     -0.044900
     18 C2'         0.1140    0.3710    0.2600 c3        1 2OT      0.098100
     19 O2'        -1.2050    0.1630   -0.3540 os        1 2OT     -0.412600
     20 CB'        -1.7640   -1.0760   -0.0760 c3        1 2OT      0.124400
     21 CC'        -3.0360   -1.2900   -0.9690 c3        1 2OT      0.101400
     22 OD'        -4.1630   -1.5650   -0.1360 os        1 2OT     -0.268100
     23 NE'        -4.9410   -2.5440   -0.7120 n3        1 2OT     -0.476100
     24 CF'        -5.9780   -1.9390   -1.4750 c3        1 2OT      0.122600
     25 CG'        -5.5270   -3.3790    0.3340 c3        1 2OT      0.122600
     26 C3'        -0.0200    0.4150    1.8590 c3        1 2OT      0.086100
     27 O3'        -1.2730    1.1190    2.2440 oh        1 2OT     -0.650800
     28 OP3         3.2050   -1.1190    5.2430 o         1 2OT     -0.988300
     29 H5'         2.6210   -0.1460    1.7770 h1        1 2OT      0.000200
     30 H5''        1.8070   -0.7050    3.0270 h1        1 2OT      0.000200
     31 H4'         0.7580    1.5960    3.0950 h1        1 2OT      0.053700
     32 H1'        -0.1350    2.1670   -0.2950 h2        1 2OT      0.109700
     33 H6          3.2480    1.7870   -0.2720 h4        1 2OT      0.300000
     34 HN3         1.3530    1.0870   -4.5760 hn        1 2OT      0.320500
     35 H71         5.2380    3.0770   -2.9200 hc        1 2OT      0.059033
     36 H72         5.2410    2.7560   -1.3500 hc        1 2OT      0.059033
     37 H73         5.7420    1.6450   -2.3950 hc        1 2OT      0.059033
     38 H2'         0.7340   -0.3540   -0.0100 h1        1 2OT      0.052700
     39 HB'1       -1.1030   -1.7860   -0.2690 h1        1 2OT      0.078700
     40 HB'2       -2.0190   -1.1140    0.8730 h1        1 2OT      0.078700
     41 HC'1       -2.8840   -2.0560   -1.5820 h1        1 2OT      0.044200
     42 HC'2       -3.2110   -0.4620   -1.5060 h1        1 2OT      0.044200
     43 HF'1       -5.6280   -1.6890   -2.3650 h1        1 2OT      0.037200
     44 HF'2       -6.7120   -2.5680   -1.5800 h1        1 2OT      0.037200
     45 HF'3       -6.3010   -1.1290   -1.0080 h1        1 2OT      0.037200
     46 HG'1       -6.0570   -4.1020   -0.0810 h1        1 2OT      0.037200
     47 HG'2       -4.8100   -3.7720    0.8800 h1        1 2OT      0.037200
     48 HG'3       -6.1120   -2.8280    0.9050 h1        1 2OT      0.037200
     49 H3'        -0.0170   -0.4960    2.2250 h1        1 2OT      0.152700
     50 HO3'       -1.4480    0.9720    3.1440 ho        1 2OT      0.486000
@<TRIPOS>BOND
     1    1    2 1   
     2    1    4 1   
     3    1   28 2   
     4    4    5 1   
     5    5    6 1   
     6    5   29 1   
     7    5   30 1   
     8    6    7 1   
     9    6   26 1   
    10    6   31 1   
    11    7    8 1   
    12    8    9 1   
    13    8   18 1   
    14    8   32 1   
    15    9   10 1   
    16    9   11 1   
    17   10   16 2   
    18   10   33 1   
    19   11   12 2   
    20   11   13 1   
    21   13   14 1   
    22   13   34 1   
    23   14   15 2   
    24   14   16 1   
    25   16   17 1   
    26   17   35 1   
    27   17   36 1   
    28   17   37 1   
    29   18   19 1   
    30   18   26 1   
    31   18   38 1   
    32   19   20 1   
    33   20   21 1   
    34   20   39 1   
    35   20   40 1   
    36   21   22 1   
    37   21   41 1   
    38   21   42 1   
    39   22   23 1   
    40   23   24 1   
    41   23   25 1   
    42   24   43 1   
    43   24   44 1   
    44   24   45 1   
    45   25   46 1   
    46   25   47 1   
    47   25   48 1   
    48   26   27 1   
    49   26   49 1   
    50   27   50 1   
@<TRIPOS>SUBSTRUCTURE
     1 2OT         1 TEMP              0 ****  ****    0 ROOT
