@<TRIPOS>MOLECULE
2OW
   53    52     1     0     0
SMALL
bcc


@<TRIPOS>ATOM
      1 C10         0.7530    0.8850   -0.8620 c2        1 2OW     -0.089000
      2 C13         1.2180    2.3110    1.5400 c2        1 2OW     -0.256000
      3 C20         7.5380    2.4810    4.0310 c2        1 2OW     -0.011000
      4 C22         7.8940    0.1920    3.4100 c2        1 2OW     -0.064000
      5 C24         6.9330   -0.5550    3.9070 c1        1 2OW     -0.212000
      6 C26         1.9930    0.8740   -0.2960 c2        1 2OW     -0.003000
      7 C28         0.7950   -2.2710   -2.2000 c2        1 2OW     -0.221000
      8 C01        -0.0250   -6.5580   -5.5910 c3        1 2OW     -0.053000
      9 O02         0.2030   -5.4560   -4.7060 os        1 2OW     -0.276000
     10 O04        -1.9300   -4.8510   -5.1490 o         1 2OW     -0.377000
     11 N05        -0.6630   -3.5370   -3.6940 ns        1 2OW     -0.306000
     12 C06        -1.9510   -2.5440   -0.9090 c3        1 2OW     -0.248000
     13 C07        -1.2730   -1.2950   -1.2900 c1        1 2OW     -0.161000
     14 N08        -0.0920   -1.2110   -1.8630 n3        1 2OW     -0.105000
     15 C09         0.4430    0.1290   -2.1220 c3        1 2OW      0.008000
     16 C11        -0.3660    1.6160   -0.2280 c3        1 2OW     -0.195000
     17 C12        -0.0790    2.3260    1.0030 c1        1 2OW     -0.101000
     18 C14         2.2730    1.6330    0.9500 c2        1 2OW      0.166000
     19 N15         3.5720    1.5720    1.4350 ns        1 2OW     -0.331000
     20 C16         4.0880    2.3370    2.5150 c2        1 2OW      0.416000
     21 O17         3.4250    3.2500    3.0470 o         1 2OW     -0.344000
     22 N18         5.3910    2.0190    2.9260 ns        1 2OW     -0.332000
     23 C19         6.0580    2.6650    3.9810 c2        1 2OW     -0.007000
     24 N21         8.2930    1.4750    3.7940 n2        1 2OW     -0.144000
     25 C25         5.4870    3.4410    4.9250 c2        1 2OW     -0.214000
     26 F27         3.0100    0.1610   -0.8570 f         1 2OW     -0.122000
     27 C29         0.5320   -3.3140   -3.0250 c2        1 2OW     -0.002000
     28 H1          1.3730    2.8870    2.4710 ha        1 2OW      0.186000
     29 H2          8.0750    3.4070    4.3420 h4        1 2OW      0.164000
     30 H3          4.4090    3.6410    4.9840 ha        1 2OW      0.145000
     31 H4          4.0680   -2.1290   -1.1200 ha        1 2OW      0.001000
     32 H5          4.1410   -1.9070   -1.7550 ha        1 2OW      0.001000
     33 H6         -0.8560   -7.1940   -5.2020 h1        1 2OW      0.096667
     34 H7          1.3150   -4.0790   -3.2050 h4        1 2OW      0.175000
     35 H8          0.9530   -7.0990   -5.5770 h1        1 2OW      0.096667
     36 H9         -1.3440   -3.4830   -0.9760 hc        1 2OW      0.096000
     37 H10        -1.4400   -2.9260   -3.5580 hn        1 2OW      0.261000
     38 H11        -2.2950   -2.4210    0.1510 hc        1 2OW      0.096000
     39 H12        -2.8610   -2.6540   -1.5540 hc        1 2OW      0.096000
     40 H14         1.3720    0.0360   -2.7530 h1        1 2OW      0.114000
     41 H15        -0.3340    0.7040   -2.7040 h1        1 2OW      0.114000
     42 H16        -1.2020    0.8670   -0.0300 hc        1 2OW      0.184500
     43 H17        -0.8090    2.3580   -0.9580 hc        1 2OW      0.184500
     44 H18         4.2040    0.9960    0.9200 hn        1 2OW      0.239000
     45 H19         5.8480    1.2240    2.5360 hn        1 2OW      0.240000
     46 H20         8.5830   -0.2310    2.6460 h4        1 2OW      0.166000
     47 H21         6.2500   -1.9640    5.3070 ha        1 2OW      0.136000
     48 H22         5.0290   -1.4450    4.0040 ha        1 2OW      0.136000
     49 H23         6.1060    3.9290    5.6890 ha        1 2OW      0.145000
     50 H24        -0.2740   -6.1800   -6.6120 h1        1 2OW      0.096667
     51 H25         1.7990   -2.1890   -1.7390 h4        1 2OW      0.162000
     52 C23         6.0430   -1.3450    4.4200 c2        1 2OW     -0.140000
     53 C03        -0.8740   -4.6110   -4.5440 c2        1 2OW      0.395000
@<TRIPOS>BOND
     1    1    6 1   
     2    1   15 1   
     3    1   16 1   
     4    2   17 1   
     5    2   18 1   
     6    2   28 1   
     7    3   23 1   
     8    3   24 1   
     9    3   29 1   
    10    4    5 1   
    11    4   24 1   
    12    4   46 1   
    13    5   52 1   
    14    6   18 1   
    15    6   26 1   
    16    7   14 1   
    17    7   27 1   
    18    7   51 1   
    19    8    9 1   
    20    8   33 1   
    21    8   35 1   
    22    8   50 1   
    23    9   53 1   
    24   10   53 1   
    25   11   27 1   
    26   11   37 1   
    27   11   53 1   
    28   12   13 1   
    29   12   36 1   
    30   12   38 1   
    31   12   39 1   
    32   13   14 1   
    33   14   15 1   
    34   15   40 1   
    35   15   41 1   
    36   16   17 1   
    37   16   42 1   
    38   16   43 1   
    39   18   19 1   
    40   19   20 1   
    41   19   44 1   
    42   20   21 1   
    43   20   22 1   
    44   22   23 1   
    45   22   45 1   
    46   23   25 1   
    47   25   30 1   
    48   25   49 1   
    49   27   34 1   
    50   31   32 1   
    51   47   52 1   
    52   48   52 1   
@<TRIPOS>SUBSTRUCTURE
     1 2OW         1 TEMP              0 ****  ****    0 ROOT
