@<TRIPOS>MOLECULE
2OW
   53    55     1     0     0
SMALL
bcc


@<TRIPOS>ATOM
      1 C10         0.5730   -0.3650   -0.3380 ca        1 2OW     -0.096300
      2 C13         1.6490   -0.3910    2.2620 ca        1 2OW     -0.109000
      3 C20         7.7340    1.9860    3.5300 ca        1 2OW      0.359200
      4 C22         7.8900    3.0830    5.5610 ca        1 2OW      0.389600
      5 C24         6.4880    3.2050    5.6340 ca        1 2OW     -0.225300
      6 C26         1.9120    0.0150   -0.1250 ca        1 2OW      0.072900
      7 C28         0.1480   -2.6780   -2.1930 c3        1 2OW      0.134800
      8 C01         0.5050   -5.5680   -6.3160 c3        1 2OW      0.136700
      9 O02         0.1340   -5.0330   -5.0440 os        1 2OW     -0.440900
     10 O04        -1.3980   -3.8390   -6.1750 o         1 2OW     -0.582000
     11 N05        -1.4220   -3.7820   -3.8110 n         1 2OW     -0.400800
     12 C06        -2.2600   -2.5970   -3.7600 c3        1 2OW      0.070500
     13 C07        -1.5200   -1.3200   -3.3100 c3        1 2OW      0.134800
     14 N08        -0.7310   -1.5210   -2.1010 n3        1 2OW     -0.729600
     15 C09        -0.0230   -0.3050   -1.7150 c3        1 2OW      0.212100
     16 C11        -0.2120   -0.7430    0.7530 ca        1 2OW     -0.106000
     17 C12         0.3250   -0.7540    2.0360 ca        1 2OW     -0.126000
     18 C14         2.4730    0.0030    1.1900 ca        1 2OW      0.024600
     19 N15         3.8380    0.3120    1.3650 n         1 2OW     -0.452100
     20 C16         4.3020    1.0410    2.4870 c         1 2OW      0.767100
     21 O17         3.5960    1.1950    3.5070 o         1 2OW     -0.608100
     22 N18         5.6060    1.5750    2.3990 n         1 2OW     -0.453100
     23 C19         6.3070    2.0640    3.5140 ca        1 2OW     -0.063700
     24 N21         8.5000    2.4780    4.5090 nb        1 2OW     -0.648000
     25 C25         5.6890    2.6980    4.6110 ca        1 2OW     -0.100000
     26 F27         2.6870    0.3880   -1.1780 f         1 2OW     -0.149900
     27 C29        -0.5950   -3.9580   -2.6330 c3        1 2OW      0.070500
     28 H1          2.0500   -0.3990    3.2900 ha        1 2OW      0.174000
     29 H2          8.2880    1.5070    2.7020 h4        1 2OW      0.017100
     30 H3          6.0210    3.7000    6.4970 ha        1 2OW      0.146000
     31 H4          1.0090   -2.4960   -2.9010 h1        1 2OW      0.045700
     32 H5          0.5760   -2.8610   -1.1680 h1        1 2OW      0.045700
     33 H6          1.3520   -6.2550   -6.0670 h1        1 2OW      0.052700
     34 H7          0.8300   -4.7450   -6.9970 h1        1 2OW      0.052700
     35 H8         -0.3550   -6.1200   -6.7650 h1        1 2OW      0.052700
     36 H9         -2.7150   -2.4070   -4.7720 h1        1 2OW      0.077200
     37 H10        -3.0850   -2.8250   -3.0260 h1        1 2OW      0.077200
     38 H11        -0.8860   -0.9460   -4.1670 h1        1 2OW      0.045700
     39 H12        -2.2970   -0.5360   -3.0890 h1        1 2OW      0.045700
     40 H14        -0.7730    0.5400   -1.7220 h1        1 2OW      0.051200
     41 H15         0.7860   -0.0460   -2.4620 h1        1 2OW      0.051200
     42 H16        -1.2610   -1.0350    0.5880 ha        1 2OW      0.155000
     43 H17        -0.3020   -1.0540    2.8900 ha        1 2OW      0.143000
     44 H18         4.3400    0.4170    0.5080 hn        1 2OW      0.314500
     45 H19         6.1890    1.2610    1.6530 hn        1 2OW      0.311500
     46 H20         8.0860    4.1060    7.4450 hc        1 2OW      0.052367
     47 H21         9.4440    4.3980    6.2740 hc        1 2OW      0.052367
     48 H22         9.3260    2.8130    7.1460 hc        1 2OW      0.052367
     49 H23         4.5920    2.7860    4.6710 ha        1 2OW      0.175000
     50 H24         0.1650   -4.7680   -2.8040 h1        1 2OW      0.077200
     51 H25        -1.2880   -4.2840   -1.8050 h1        1 2OW      0.077200
     52 C23         8.7320    3.6310    6.6670 c3        1 2OW     -0.144400
     53 C03        -0.9300   -4.1500   -5.0660 c         1 2OW      0.716100
@<TRIPOS>BOND
     1    1    6 ar  
     2    1   15 1   
     3    1   16 ar  
     4    2   17 ar  
     5    2   18 ar  
     6    2   28 1   
     7    3   23 ar  
     8    3   24 ar  
     9    3   29 1   
    10    4    5 ar  
    11    4   24 ar  
    12    4   52 1   
    13    5   25 ar  
    14    5   30 1   
    15    6   18 ar  
    16    6   26 1   
    17    7   14 1   
    18    7   27 1   
    19    7   31 1   
    20    7   32 1   
    21    8    9 1   
    22    8   33 1   
    23    8   34 1   
    24    8   35 1   
    25    9   53 1   
    26   10   53 2   
    27   11   12 1   
    28   11   27 1   
    29   11   53 1   
    30   12   13 1   
    31   12   36 1   
    32   12   37 1   
    33   13   14 1   
    34   13   38 1   
    35   13   39 1   
    36   14   15 1   
    37   15   40 1   
    38   15   41 1   
    39   16   17 ar  
    40   16   42 1   
    41   17   43 1   
    42   18   19 1   
    43   19   20 1   
    44   19   44 1   
    45   20   21 2   
    46   20   22 1   
    47   22   23 1   
    48   22   45 1   
    49   23   25 ar  
    50   25   49 1   
    51   27   50 1   
    52   27   51 1   
    53   46   52 1   
    54   47   52 1   
    55   48   52 1   
@<TRIPOS>SUBSTRUCTURE
     1 2OW         1 TEMP              0 ****  ****    0 ROOT
