@<TRIPOS>MOLECULE
2OX
   35    37     1     0     0
SMALL
bcc


@<TRIPOS>ATOM
      1 CAO        -0.0870   -0.3460   -0.0250 ca        1 2OX     -0.131000
      2 CAP         1.3040   -0.3860   -0.0930 ca        1 2OX     -0.115500
      3 CAQ         2.0810   -0.0320    1.0080 ca        1 2OX     -0.130000
      4 CAR         1.4630    0.3740    2.1890 ca        1 2OX     -0.115500
      5 CAS         0.0750    0.4290    2.2800 ca        1 2OX     -0.131000
      6 CAN        -0.7150    0.0620    1.1700 ca        1 2OX      0.016800
      7 NAK        -2.1320    0.1050    1.2630 na        1 2OX      0.114300
      8 CAJ        -2.8770   -0.0150    2.4500 cc        1 2OX     -0.209600
      9 NAL        -2.9840    0.2740    0.2120 nc        1 2OX     -0.155800
     10 NAM        -4.1820    0.2700    0.6220 nd        1 2OX     -0.340000
     11 CAF        -4.2130    0.0990    2.0300 cd        1 2OX      0.267600
     12 CAD        -5.4460    0.0020    2.8590 c3        1 2OX      0.123200
     13 NAE        -6.1670   -1.2520    2.6010 n7        1 2OX     -0.777200
     14 CAA        -7.4020   -0.9270    1.8780 c3        1 2OX      0.160500
     15 CAG        -8.5650   -1.8580    2.1640 c3        1 2OX     -0.089100
     16 CAB        -7.7610    0.5600    2.1760 c3        1 2OX      0.122100
     17 OAH        -8.7170    0.5920    3.2150 oh        1 2OX     -0.593800
     18 CAC        -6.4090    1.2010    2.5770 c3        1 2OX      0.085100
     19 OAI        -6.6190    1.9660    3.7490 oh        1 2OX     -0.603800
     20 H1         -0.6820   -0.6300   -0.9070 ha        1 2OX      0.149500
     21 H2          1.7870   -0.7040   -1.0290 ha        1 2OX      0.140500
     22 H3          3.1790   -0.0700    0.9440 ha        1 2OX      0.139000
     23 H4          2.0720    0.6590    3.0600 ha        1 2OX      0.140500
     24 H5         -0.3920    0.7650    3.2180 ha        1 2OX      0.149500
     25 H6         -2.4260   -0.1760    3.4260 h4        1 2OX      0.193000
     26 H7         -5.1230    0.0490    3.9420 h1        1 2OX      0.059700
     27 H8         -6.3860   -1.6960    3.4750 hn        1 2OX      0.359800
     28 H10        -7.1420   -0.9890    0.7790 h1        1 2OX      0.077700
     29 H11        -9.4470   -1.5260    1.5660 hc        1 2OX      0.046700
     30 H12        -8.3060   -2.9070    1.8830 hc        1 2OX      0.046700
     31 H13        -8.8480   -1.8280    3.2450 hc        1 2OX      0.046700
     32 H14        -8.1800    1.0640    1.2660 h1        1 2OX      0.052700
     33 H15        -8.7210    1.4870    3.5790 ho        1 2OX      0.420000
     34 H16        -6.0250    1.8550    1.7520 h1        1 2OX      0.068700
     35 H17        -5.8110    2.4710    3.9010 ho        1 2OX      0.411000
@<TRIPOS>BOND
     1    1    2 ar  
     2    1    6 ar  
     3    1   20 1   
     4    2    3 ar  
     5    2   21 1   
     6    3    4 ar  
     7    3   22 1   
     8    4    5 ar  
     9    4   23 1   
    10    5    6 ar  
    11    5   24 1   
    12    6    7 1   
    13    7    8 1   
    14    7    9 1   
    15    8   11 2   
    16    8   25 1   
    17    9   10 2   
    18   10   11 1   
    19   11   12 1   
    20   12   13 1   
    21   12   18 1   
    22   12   26 1   
    23   13   14 1   
    24   13   27 1   
    25   14   15 1   
    26   14   16 1   
    27   14   28 1   
    28   15   29 1   
    29   15   30 1   
    30   15   31 1   
    31   16   17 1   
    32   16   18 1   
    33   16   32 1   
    34   17   33 1   
    35   18   19 1   
    36   18   34 1   
    37   19   35 1   
@<TRIPOS>SUBSTRUCTURE
     1 2OX         1 TEMP              0 ****  ****    0 ROOT
