@<TRIPOS>MOLECULE
2OX
   35    37     1     0     0
SMALL
bcc


@<TRIPOS>ATOM
      1 CAO        -0.0490    0.1440   -0.0670 ca        1 2OX     -0.129000
      2 CAP         1.3330    0.3040   -0.1390 ca        1 2OX     -0.115500
      3 CAQ         2.1160    0.2580    1.0140 ca        1 2OX     -0.128000
      4 CAR         1.5120    0.0440    2.2520 ca        1 2OX     -0.115500
      5 CAS         0.1340   -0.1250    2.3490 ca        1 2OX     -0.129000
      6 CAN        -0.6610   -0.0690    1.1850 ca        1 2OX      0.013800
      7 NAK        -2.0710   -0.2290    1.2820 na        1 2OX      0.115300
      8 CAJ        -2.8480    0.0620    2.4180 cc        1 2OX     -0.193600
      9 NAL        -2.8780   -0.6980    0.2900 nc        1 2OX     -0.152800
     10 NAM        -4.0800   -0.7270    0.6890 nd        1 2OX     -0.357000
     11 CAF        -4.1590   -0.2620    2.0280 cd        1 2OX      0.225600
     12 CAD        -5.4140   -0.1520    2.8200 c3        1 2OX      0.155200
     13 NAE        -6.3400   -1.2780    2.6980 n3        1 2OX     -0.804200
     14 CAA        -7.5080   -0.8670    1.9070 c3        1 2OX      0.133500
     15 CAG        -8.7930   -1.5260    2.3840 c3        1 2OX     -0.082100
     16 CAB        -7.5910    0.6830    1.9780 c3        1 2OX      0.104100
     17 OAH        -8.5690    1.1630    2.8730 oh        1 2OX     -0.596800
     18 CAC        -6.1810    1.1460    2.4220 c3        1 2OX      0.101100
     19 OAI        -6.2370    1.9620    3.5770 oh        1 2OX     -0.601800
     20 H1         -0.6480    0.1820   -0.9900 ha        1 2OX      0.150500
     21 H2          1.8060    0.4690   -1.1190 ha        1 2OX      0.141000
     22 H3          3.2060    0.3880    0.9460 ha        1 2OX      0.140000
     23 H4          2.1270    0.0020    3.1640 ha        1 2OX      0.141000
     24 H5         -0.3200   -0.3080    3.3350 ha        1 2OX      0.150500
     25 H6         -2.4380    0.4620    3.3430 h4        1 2OX      0.199000
     26 H7         -5.1290   -0.0850    3.9140 h1        1 2OX      0.093700
     27 H8         -5.9020   -2.0820    2.2920 hn        1 2OX      0.378800
     28 H10        -7.3680   -1.1380    0.8170 h1        1 2OX      0.043700
     29 H11        -8.7750   -2.6180    2.1580 hc        1 2OX      0.043367
     30 H12        -8.9380   -1.3960    3.4840 hc        1 2OX      0.043367
     31 H13        -9.6560   -1.0540    1.8550 hc        1 2OX      0.043367
     32 H14        -7.8800    1.1140    0.9840 h1        1 2OX      0.087700
     33 H15        -8.3970    0.7570    3.7340 ho        1 2OX      0.419000
     34 H16        -5.6590    1.6980    1.5990 h1        1 2OX      0.060700
     35 H17        -6.9390    2.6120    3.4300 ho        1 2OX      0.419000
@<TRIPOS>BOND
     1    1    2 ar  
     2    1    6 ar  
     3    1   20 1   
     4    2    3 ar  
     5    2   21 1   
     6    3    4 ar  
     7    3   22 1   
     8    4    5 ar  
     9    4   23 1   
    10    5    6 ar  
    11    5   24 1   
    12    6    7 1   
    13    7    8 1   
    14    7    9 1   
    15    8   11 2   
    16    8   25 1   
    17    9   10 2   
    18   10   11 1   
    19   11   12 1   
    20   12   13 1   
    21   12   18 1   
    22   12   26 1   
    23   13   14 1   
    24   13   27 1   
    25   14   15 1   
    26   14   16 1   
    27   14   28 1   
    28   15   29 1   
    29   15   30 1   
    30   15   31 1   
    31   16   17 1   
    32   16   18 1   
    33   16   32 1   
    34   17   33 1   
    35   18   19 1   
    36   18   34 1   
    37   19   35 1   
@<TRIPOS>SUBSTRUCTURE
     1 2OX         1 TEMP              0 ****  ****    0 ROOT
