@<TRIPOS>MOLECULE
2OX
   35    37     1     0     0
SMALL
bcc


@<TRIPOS>ATOM
      1 CAO        -0.0780   -0.3750   -0.0010 ca        1 2OX     -0.131000
      2 CAP         1.3130   -0.4160   -0.0620 ca        1 2OX     -0.115500
      3 CAQ         2.0860   -0.0440    1.0370 ca        1 2OX     -0.130000
      4 CAR         1.4610    0.3800    2.2090 ca        1 2OX     -0.115500
      5 CAS         0.0730    0.4360    2.2920 ca        1 2OX     -0.131000
      6 CAN        -0.7110    0.0510    1.1850 ca        1 2OX      0.016800
      7 NAK        -2.1290    0.0950    1.2700 na        1 2OX      0.114300
      8 CAJ        -2.8790   -0.0070    2.4560 cc        1 2OX     -0.209600
      9 NAL        -2.9760    0.2470    0.2130 nc        1 2OX     -0.155800
     10 NAM        -4.1760    0.2490    0.6170 nd        1 2OX     -0.340000
     11 CAF        -4.2130    0.1000    2.0270 cd        1 2OX      0.267600
     12 CAD        -5.4500    0.0150    2.8520 c3        1 2OX      0.123200
     13 NAE        -6.1700   -1.2430    2.6090 n3        1 2OX     -0.777200
     14 CAA        -7.4010   -0.9290    1.8750 c3        1 2OX      0.160500
     15 CAG        -8.5660   -1.8560    2.1700 c3        1 2OX     -0.089100
     16 CAB        -7.7610    0.5630    2.1500 c3        1 2OX      0.122100
     17 OAH        -8.7240    0.6100    3.1820 oh        1 2OX     -0.593800
     18 CAC        -6.4120    1.2100    2.5480 c3        1 2OX      0.085100
     19 OAI        -6.6280    1.9920    3.7070 oh        1 2OX     -0.603800
     20 H1         -0.6690   -0.6740   -0.8820 ha        1 2OX      0.149500
     21 H2          1.8020   -0.7480   -0.9910 ha        1 2OX      0.140500
     22 H3          3.1830   -0.0830    0.9790 ha        1 2OX      0.139000
     23 H4          2.0670    0.6780    3.0780 ha        1 2OX      0.140500
     24 H5         -0.3990    0.7860    3.2230 ha        1 2OX      0.149500
     25 H6         -2.4330   -0.1530    3.4360 h4        1 2OX      0.193000
     26 H7         -5.1320    0.0780    3.9350 h1        1 2OX      0.059700
     27 H8         -6.3940   -1.6730    3.4890 hn        1 2OX      0.359800
     28 H10        -7.1360   -1.0070    0.7790 h1        1 2OX      0.077700
     29 H11        -9.4450   -1.5330    1.5620 hc        1 2OX      0.046700
     30 H12        -8.3060   -2.9080    1.9050 hc        1 2OX      0.046700
     31 H13        -8.8540   -1.8100    3.2480 hc        1 2OX      0.046700
     32 H14        -8.1770    1.0530    1.2300 h1        1 2OX      0.052700
     33 H15        -8.7290    1.5100    3.5330 ho        1 2OX      0.420000
     34 H16        -6.0240    1.8510    1.7150 h1        1 2OX      0.068700
     35 H17        -5.8210    2.5000    3.8550 ho        1 2OX      0.411000
@<TRIPOS>BOND
     1    1    2 ar  
     2    1    6 ar  
     3    1   20 1   
     4    2    3 ar  
     5    2   21 1   
     6    3    4 ar  
     7    3   22 1   
     8    4    5 ar  
     9    4   23 1   
    10    5    6 ar  
    11    5   24 1   
    12    6    7 1   
    13    7    8 1   
    14    7    9 1   
    15    8   11 2   
    16    8   25 1   
    17    9   10 2   
    18   10   11 1   
    19   11   12 1   
    20   12   13 1   
    21   12   18 1   
    22   12   26 1   
    23   13   14 1   
    24   13   27 1   
    25   14   15 1   
    26   14   16 1   
    27   14   28 1   
    28   15   29 1   
    29   15   30 1   
    30   15   31 1   
    31   16   17 1   
    32   16   18 1   
    33   16   32 1   
    34   17   33 1   
    35   18   19 1   
    36   18   34 1   
    37   19   35 1   
@<TRIPOS>SUBSTRUCTURE
     1 2OX         1 TEMP              0 ****  ****    0 ROOT
