@<TRIPOS>MOLECULE
2OZ
   39    40     1     0     0
SMALL
bcc


@<TRIPOS>ATOM
      1 CAA        -0.0490    0.0110   -0.5310 ca        1 2OZ     -0.067500
      2 CAE         1.9500    0.2580    0.8140 ca        1 2OZ      0.197900
      3 CAF         1.3340    0.0890   -0.4430 ca        1 2OZ     -0.151500
      4 FAG         3.2920    0.3320    0.9010 f         1 2OZ     -0.095900
      5 CAD         1.1630    0.3530    1.9820 ca        1 2OZ     -0.151500
      6 CAC        -0.2190    0.2760    1.8920 ca        1 2OZ     -0.067500
      7 CAB        -0.8330    0.1070    0.6360 ca        1 2OZ     -0.069400
      8 NAH        -2.2880    0.0680    0.5360 n4        1 2OZ     -0.526200
      9 CAI        -2.9050   -1.3430    0.6870 c         1 2OZ      0.248400
     10 SAU        -1.9700   -2.5450    0.8480 s         1 2OZ      0.007600
     11 NAJ        -4.3140   -1.3720    0.6890 n         1 2OZ     -0.367800
     12 CAO        -5.0340   -0.3740    1.4620 c3        1 2OZ      0.026000
     13 CAN        -5.4350    0.9040    0.6970 c3        1 2OZ      0.123100
     14 OAS        -6.3250    1.5890    1.5540 oh        1 2OZ     -0.577800
     15 CAM        -6.1130    0.5590   -0.6420 c3        1 2OZ      0.062100
     16 OAR        -6.1660    1.7760   -1.3700 oh        1 2OZ     -0.607800
     17 CAL        -5.2760   -0.4570   -1.4390 c3        1 2OZ      0.091100
     18 OAQ        -4.0350    0.1200   -1.8230 oh        1 2OZ     -0.646800
     19 CAK        -4.9950   -1.7020   -0.5700 c3        1 2OZ      0.022700
     20 CAP        -4.3360   -2.8070   -1.4170 c3        1 2OZ      0.135400
     21 OAT        -4.5960   -4.0770   -0.8750 oh        1 2OZ     -0.568800
     22 H1         -0.5160   -0.1220   -1.5220 ha        1 2OZ      0.159000
     23 H2          1.9570    0.0180   -1.3500 ha        1 2OZ      0.184500
     24 H3          1.6540    0.4880    2.9600 ha        1 2OZ      0.184500
     25 H4         -0.8180    0.3530    2.8150 ha        1 2OZ      0.159000
     26 H5         -2.6780    0.6940    1.2510 hn        1 2OZ      0.459300
     27 H6         -4.4480   -0.0880    2.3790 h1        1 2OZ      0.099700
     28 H7         -5.9820   -0.8760    1.8230 h1        1 2OZ      0.099700
     29 H8         -4.5440    1.5600    0.4830 h1        1 2OZ      0.028700
     30 H9         -6.6380    2.3670    1.0690 ho        1 2OZ      0.437000
     31 H10        -7.1410    0.1470   -0.4510 h1        1 2OZ      0.086700
     32 H11        -6.9390    1.7410   -1.9470 ho        1 2OZ      0.433000
     33 H12        -5.8400   -0.7700   -2.3630 h1        1 2OZ      0.082700
     34 H13        -4.2470    0.9170   -2.3330 ho        1 2OZ      0.448000
     35 H14        -6.0050   -2.1100   -0.2410 h1        1 2OZ      0.119700
     36 H15        -4.8260   -2.8230   -2.4300 h1        1 2OZ      0.065200
     37 H16        -3.2350   -2.6270   -1.5440 h1        1 2OZ      0.065200
     38 H17        -4.0720   -4.1720   -0.0670 ho        1 2OZ      0.415000
     39 HAH2       -2.5720    0.4300   -0.3920 hn        1 2OZ      0.459300
@<TRIPOS>BOND
     1    1    3 ar  
     2    1    7 ar  
     3    1   22 1   
     4    2    3 ar  
     5    2    4 1   
     6    2    5 ar  
     7    3   23 1   
     8    5    6 ar  
     9    5   24 1   
    10    6    7 ar  
    11    6   25 1   
    12    7    8 1   
    13    8    9 1   
    14    8   26 1   
    15    8   39 1   
    16    9   10 2   
    17    9   11 1   
    18   11   12 1   
    19   11   19 1   
    20   12   13 1   
    21   12   27 1   
    22   12   28 1   
    23   13   14 1   
    24   13   15 1   
    25   13   29 1   
    26   14   30 1   
    27   15   16 1   
    28   15   17 1   
    29   15   31 1   
    30   16   32 1   
    31   17   18 1   
    32   17   19 1   
    33   17   33 1   
    34   18   34 1   
    35   19   20 1   
    36   19   35 1   
    37   20   21 1   
    38   20   36 1   
    39   20   37 1   
    40   21   38 1   
@<TRIPOS>SUBSTRUCTURE
     1 2OZ         1 TEMP              0 ****  ****    0 ROOT
