@<TRIPOS>MOLECULE
2P0
   29    29     1     0     0
SMALL
bcc


@<TRIPOS>ATOM
      1 C          -5.6380   -0.9520   -0.3540 c         1 2P0      0.920600
      2 N          -3.2280   -0.0630   -0.3910 n         1 2P0     -0.417800
      3 OXT        -6.0130   -0.4450   -1.4510 o         1 2P0     -0.875300
      4 CA         -4.4080   -0.3950    0.4220 c3        1 2P0     -0.033300
      5 CB         -4.8710    0.9350    1.0900 c3        1 2P0     -0.088400
      6 CD         -3.4260    1.3100   -0.8340 c3        1 2P0      0.062000
      7 CG         -4.2480    2.0460    0.2510 c3        1 2P0     -0.101400
      8 OAB        -1.8820   -1.4750    0.8100 o         1 2P0     -0.615100
      9 OAC         5.0030   -1.3650    0.0740 o         1 2P0     -0.964500
     10 OAD         1.2450    2.2040    0.4340 o         1 2P0     -0.930000
     11 OAF         4.6430   -0.1710    2.2700 o         1 2P0     -0.964500
     12 OAG         5.5480    1.0930    0.2800 o         1 2P0     -0.964500
     13 OAH         1.6050    1.0220   -1.7740 o         1 2P0     -0.930000
     14 CAK        -0.7200    0.3550   -0.3560 c3        1 2P0      0.139400
     15 OAM         0.4760   -0.1400    0.1110 os        1 2P0     -0.548200
     16 OAN         3.0610    0.3830    0.2570 os        1 2P0     -0.804800
     17 CAP        -1.9400   -0.4570    0.0950 c         1 2P0      0.615100
     18 PAS         4.7140   -0.0620    0.7710 p5        1 2P0      1.465900
     19 PAT         1.7320    0.9890   -0.2870 p5        1 2P0      1.576800
     20 O          -6.3010   -1.8720    0.2200 o         1 2P0     -0.875300
     21 HA         -4.1270   -1.1580    1.2000 h1        1 2P0      0.075700
     22 HB         -5.9840    0.9980    1.0950 hc        1 2P0      0.017700
     23 HBA        -4.5130    0.9840    2.1470 hc        1 2P0      0.017700
     24 HD         -2.4700    1.8470   -1.0550 h1        1 2P0      0.057200
     25 HDA        -4.0420    1.2590   -1.7760 h1        1 2P0      0.057200
     26 HG         -5.0290    2.6880   -0.2220 hc        1 2P0      0.015200
     27 HGA        -3.5860    2.6990    0.8690 hc        1 2P0      0.015200
     28 HAK        -0.8530    1.4100    0.0380 h1        1 2P0      0.038700
     29 HAKA       -0.7020    0.3760   -1.4840 h1        1 2P0      0.038700
@<TRIPOS>BOND
     1    1    3 1   
     2    1    4 1   
     3    1   20 1   
     4    2    4 1   
     5    2    6 1   
     6    2   17 1   
     7    4    5 1   
     8    4   21 1   
     9    5    7 1   
    10    5   22 1   
    11    5   23 1   
    12    6    7 1   
    13    6   24 1   
    14    6   25 1   
    15    7   26 1   
    16    7   27 1   
    17    8   17 2   
    18    9   18 1   
    19   10   19 1   
    20   11   18 1   
    21   12   18 1   
    22   13   19 1   
    23   14   15 1   
    24   14   17 1   
    25   14   28 1   
    26   14   29 1   
    27   15   19 1   
    28   16   18 1   
    29   16   19 1   
@<TRIPOS>SUBSTRUCTURE
     1 2P0         1 TEMP              0 ****  ****    0 ROOT
