@<TRIPOS>MOLECULE
2P1
   48    51     1     0     0
SMALL
bcc


@<TRIPOS>ATOM
      1 C1         -0.2060   -0.8260    0.3550 ca        1 2P1     -0.152000
      2 C2          1.0660   -0.2970    0.1360 ca        1 2P1     -0.012000
      3 C3          1.7650    0.2750    1.2040 ca        1 2P1     -0.195300
      4 C4          1.2030    0.3060    2.4780 ca        1 2P1      0.027000
      5 C5         -0.0810   -0.2040    2.7050 ca        1 2P1     -0.396500
      6 C6         -0.7730   -0.7760    1.6260 ca        1 2P1      0.008000
      7 S7         -0.7580   -0.1930    4.2380 sy        1 2P1      1.437600
      8 O8         -1.9800   -0.8680    4.2200 o         1 2P1     -0.631800
      9 O9          0.2030   -0.5250    5.1940 o         1 2P1     -0.631800
     10 C10        -1.0780    1.4840    4.3960 ca        1 2P1     -0.304500
     11 C11        -0.1490    2.3190    5.0270 ca        1 2P1     -0.015500
     12 C12        -0.4110    3.6760    5.1990 ca        1 2P1     -0.128500
     13 C13        -1.6190    4.2130    4.7370 ca        1 2P1     -0.130300
     14 C14        -2.5590    3.3890    4.1150 ca        1 2P1     -0.128500
     15 C15        -2.2860    2.0290    3.9550 ca        1 2P1     -0.015500
     16 C16        -1.9210    5.6570    4.9630 c3        1 2P1      0.164100
     17 N17        -1.1240    6.5250    4.0370 n4        1 2P1     -0.674800
     18 C18        -1.3390    8.0120    4.2670 c         1 2P1      0.580700
     19 O19        -2.1510    8.2970    5.1420 o         1 2P1     -0.450100
     20 C20        -0.5670    8.9130    3.4370 ca        1 2P1     -0.383900
     21 C21        -0.7210   10.2830    3.6670 ca        1 2P1      0.124000
     22 C22         0.0160   11.1620    2.8760 ca        1 2P1     -0.301300
     23 C23         0.1670   12.5720    2.7670 cc        1 2P1     -0.057100
     24 N24         1.0760   12.7730    1.7540 na        1 2P1      0.078800
     25 N25         1.5420   11.6620    1.1800 nc        1 2P1     -0.201400
     26 C27         0.9230   10.6170    1.8310 ca        1 2P1      0.310300
     27 N28         1.0560    9.2490    1.6210 nb        1 2P1     -0.570000
     28 C29         0.3370    8.4720    2.3970 ca        1 2P1      0.434200
     29 C30         3.1550    0.8640    0.9870 c3        1 2P1      0.690200
     30 F31         3.4210    1.2280   -0.3100 f         1 2P1     -0.230300
     31 F32         3.3880    2.0090    1.7130 f         1 2P1     -0.230300
     32 F33         4.1840    0.0270    1.3320 f         1 2P1     -0.230300
     33 H1         -0.7580   -1.2890   -0.4780 ha        1 2P1      0.163000
     34 H2          1.5220   -0.3280   -0.8690 ha        1 2P1      0.168000
     35 H3          1.7810    0.7310    3.3190 ha        1 2P1      0.157000
     36 H4         -1.7790   -1.2040    1.7970 ha        1 2P1      0.172000
     37 H5          0.7930    1.8870    5.4160 ha        1 2P1      0.176500
     38 H6          0.3200    4.3110    5.7230 ha        1 2P1      0.146500
     39 H7         -3.5230    3.7960    3.7710 ha        1 2P1      0.146500
     40 H8         -3.0450    1.3700    3.4920 ha        1 2P1      0.176500
     41 H9         -3.0130    5.8840    4.7920 hx        1 2P1      0.121200
     42 H10        -1.6640    5.9590    6.0210 hx        1 2P1      0.121200
     43 H11        -1.3760    6.3060    3.0670 hn        1 2P1      0.457800
     44 H12        -1.4060   10.6540    4.4510 ha        1 2P1      0.175000
     45 H13        -0.3010   13.3840    3.3290 h4        1 2P1      0.212000
     46 H14         1.4080   13.6590    1.4190 hn        1 2P1      0.356700
     47 H15         0.4770    7.3940    2.1880 h4        1 2P1      0.011100
     48 H172       -0.1260    6.3150    4.1580 hn        1 2P1      0.457800
@<TRIPOS>BOND
     1    1    2 ar  
     2    1    6 ar  
     3    1   33 1   
     4    2    3 ar  
     5    2   34 1   
     6    3    4 ar  
     7    3   29 1   
     8    4    5 ar  
     9    4   35 1   
    10    5    6 ar  
    11    5    7 1   
    12    6   36 1   
    13    7    8 2   
    14    7    9 2   
    15    7   10 1   
    16   10   11 ar  
    17   10   15 ar  
    18   11   12 ar  
    19   11   37 1   
    20   12   13 ar  
    21   12   38 1   
    22   13   14 ar  
    23   13   16 1   
    24   14   15 ar  
    25   14   39 1   
    26   15   40 1   
    27   16   17 1   
    28   16   41 1   
    29   16   42 1   
    30   17   18 1   
    31   17   43 1   
    32   17   48 1   
    33   18   19 2   
    34   18   20 1   
    35   20   21 ar  
    36   20   28 ar  
    37   21   22 ar  
    38   21   44 1   
    39   22   23 2   
    40   22   26 ar  
    41   23   24 1   
    42   23   45 1   
    43   24   25 1   
    44   24   46 1   
    45   25   26 2   
    46   26   27 ar  
    47   27   28 ar  
    48   28   47 1   
    49   29   30 1   
    50   29   31 1   
    51   29   32 1   
@<TRIPOS>SUBSTRUCTURE
     1 2P1         1 TEMP              0 ****  ****    0 ROOT
