@<TRIPOS>MOLECULE
2P1
   48    51     1     0     0
SMALL
bcc


@<TRIPOS>ATOM
      1 C1         -0.1790   -0.8230    0.3480 ca        1 2P1     -0.152000
      2 C2          1.0920   -0.2900    0.1370 ca        1 2P1     -0.012000
      3 C3          1.7830    0.2830    1.2090 ca        1 2P1     -0.195300
      4 C4          1.2140    0.3110    2.4800 ca        1 2P1      0.027000
      5 C5         -0.0690   -0.2040    2.7000 ca        1 2P1     -0.396500
      6 C6         -0.7530   -0.7760    1.6170 ca        1 2P1      0.008000
      7 S7         -0.7540   -0.1950    4.2290 sy        1 2P1      1.437600
      8 O8         -1.9740   -0.8740    4.2040 o         1 2P1     -0.631800
      9 O9          0.2030   -0.5260    5.1900 o         1 2P1     -0.631800
     10 C10        -1.0790    1.4800    4.3870 ca        1 2P1     -0.304500
     11 C11        -0.1550    2.3170    5.0240 ca        1 2P1     -0.015500
     12 C12        -0.4220    3.6730    5.1960 ca        1 2P1     -0.128500
     13 C13        -1.6280    4.2080    4.7280 ca        1 2P1     -0.130300
     14 C14        -2.5630    3.3810    4.1000 ca        1 2P1     -0.128500
     15 C15        -2.2860    2.0230    3.9400 ca        1 2P1     -0.015500
     16 C16        -1.9350    5.6510    4.9530 c3        1 2P1      0.164100
     17 N17        -1.1340    6.5210    4.0330 ny        1 2P1     -0.674800
     18 C18        -1.3540    8.0070    4.2640 c         1 2P1      0.580700
     19 O19        -2.1710    8.2900    5.1340 o         1 2P1     -0.450100
     20 C20        -0.5790    8.9110    3.4400 ca        1 2P1     -0.383900
     21 C21        -0.7360   10.2810    3.6710 ca        1 2P1      0.124000
     22 C22         0.0040   11.1620    2.8860 ca        1 2P1     -0.301300
     23 C23         0.1540   12.5720    2.7800 cc        1 2P1     -0.057100
     24 N24         1.0680   12.7770    1.7720 na        1 2P1      0.078800
     25 N25         1.5390   11.6670    1.1990 nc        1 2P1     -0.201400
     26 C27         0.9180   10.6200    1.8450 ca        1 2P1      0.310300
     27 N28         1.0540    9.2530    1.6330 nb        1 2P1     -0.570000
     28 C29         0.3320    8.4740    2.4050 ca        1 2P1      0.434200
     29 C30         3.1730    0.8760    0.9990 c3        1 2P1      0.690200
     30 F31         3.4440    1.2430   -0.2950 f         1 2P1     -0.230300
     31 F32         3.3990    2.0200    1.7290 f         1 2P1     -0.230300
     32 F33         4.2030    0.0410    1.3480 f         1 2P1     -0.230300
     33 H1         -0.7260   -1.2880   -0.4880 ha        1 2P1      0.163000
     34 H2          1.5530   -0.3190   -0.8660 ha        1 2P1      0.168000
     35 H3          1.7880    0.7360    3.3240 ha        1 2P1      0.157000
     36 H4         -1.7590   -1.2080    1.7820 ha        1 2P1      0.172000
     37 H5          0.7860    1.8870    5.4170 ha        1 2P1      0.176500
     38 H6          0.3050    4.3090    5.7240 ha        1 2P1      0.146500
     39 H7         -3.5260    3.7870    3.7510 ha        1 2P1      0.146500
     40 H8         -3.0410    1.3630    3.4730 ha        1 2P1      0.176500
     41 H9         -1.6850    5.9520    6.0140 hx        1 2P1      0.121200
     42 H10        -3.0270    5.8750    4.7770 hx        1 2P1      0.121200
     43 H11        -1.3810    6.3030    3.0610 hn        1 2P1      0.457800
     44 H12        -1.4250   10.6490    4.4520 ha        1 2P1      0.175000
     45 H13        -0.3190   13.3830    3.3420 h4        1 2P1      0.212000
     46 H14         1.4010   13.6630    1.4410 hn        1 2P1      0.356700
     47 H15         0.4750    7.3960    2.1940 h4        1 2P1      0.011100
     48 H172       -0.1370    6.3130    4.1590 hn        1 2P1      0.457800
@<TRIPOS>BOND
     1    1    2 ar  
     2    1    6 ar  
     3    1   33 1   
     4    2    3 ar  
     5    2   34 1   
     6    3    4 ar  
     7    3   29 1   
     8    4    5 ar  
     9    4   35 1   
    10    5    6 ar  
    11    5    7 1   
    12    6   36 1   
    13    7    8 2   
    14    7    9 2   
    15    7   10 1   
    16   10   11 ar  
    17   10   15 ar  
    18   11   12 ar  
    19   11   37 1   
    20   12   13 ar  
    21   12   38 1   
    22   13   14 ar  
    23   13   16 1   
    24   14   15 ar  
    25   14   39 1   
    26   15   40 1   
    27   16   17 1   
    28   16   41 1   
    29   16   42 1   
    30   17   18 1   
    31   17   43 1   
    32   17   48 1   
    33   18   19 2   
    34   18   20 1   
    35   20   21 ar  
    36   20   28 ar  
    37   21   22 ar  
    38   21   44 1   
    39   22   23 2   
    40   22   26 ar  
    41   23   24 1   
    42   23   45 1   
    43   24   25 1   
    44   24   46 1   
    45   25   26 2   
    46   26   27 ar  
    47   27   28 ar  
    48   28   47 1   
    49   29   30 1   
    50   29   31 1   
    51   29   32 1   
@<TRIPOS>SUBSTRUCTURE
     1 2P1         1 TEMP              0 ****  ****    0 ROOT
