@<TRIPOS>MOLECULE
2P1
   47    50     1     0     0
SMALL
bcc


@<TRIPOS>ATOM
      1 C1          0.0250    0.8600   -0.0940 ca        1 2P1     -0.158000
      2 C2          1.3780    0.5550    0.0430 ca        1 2P1     -0.025000
      3 C3          1.8710    0.1580    1.2890 ca        1 2P1     -0.195300
      4 C4          1.0200    0.0710    2.3900 ca        1 2P1      0.026000
      5 C5         -0.3370    0.3890    2.2640 ca        1 2P1     -0.363500
      6 C6         -0.8230    0.7750    1.0080 ca        1 2P1      0.006000
      7 S7         -1.3790    0.2710    3.5910 sy        1 2P1      1.441600
      8 O8         -2.6900    0.1040    3.1190 o         1 2P1     -0.651800
      9 O9         -0.8710   -0.6870    4.4800 o         1 2P1     -0.651800
     10 C10        -1.2040    1.8010    4.2510 ca        1 2P1     -0.379500
     11 C11        -0.2220    2.0570    5.2170 ca        1 2P1     -0.018500
     12 C12        -0.0830    3.3210    5.7830 ca        1 2P1     -0.144000
     13 C13        -0.9370    4.3560    5.3940 ca        1 2P1     -0.056300
     14 C14        -1.9310    4.1130    4.4400 ca        1 2P1     -0.144000
     15 C15        -2.0600    2.8470    3.8790 ca        1 2P1     -0.018500
     16 C16        -0.8190    5.7220    6.0180 c3        1 2P1      0.124300
     17 N17        -0.3560    6.7520    5.1310 n         1 2P1     -0.559900
     18 C18        -1.2280    7.5050    4.3620 c         1 2P1      0.678700
     19 O19        -2.4640    7.4030    4.5110 o         1 2P1     -0.609100
     20 C20        -0.6420    8.4820    3.4090 ca        1 2P1     -0.292900
     21 C21        -1.2780    9.6900    3.2170 ca        1 2P1      0.038000
     22 C22        -0.7010   10.5940    2.3040 ca        1 2P1     -0.262300
     23 C23        -0.9910   11.8900    1.8260 cc        1 2P1     -0.121100
     24 N24         0.0130   12.1910    0.9220 na        1 2P1      0.055800
     25 N25         0.9250   11.2360    0.7560 nc        1 2P1     -0.243400
     26 C27         0.5380   10.2030    1.5930 ca        1 2P1      0.287300
     27 N28         1.1430    8.9690    1.7890 nb        1 2P1     -0.613000
     28 C29         0.5540    8.1770    2.6610 ca        1 2P1      0.436200
     29 C30         3.3440   -0.1990    1.4410 c3        1 2P1      0.690200
     30 F31         4.1820    0.4740    0.5850 f         1 2P1     -0.234300
     31 F32         3.8650    0.0500    2.6880 f         1 2P1     -0.234300
     32 F33         3.6290   -1.5240    1.2150 f         1 2P1     -0.234300
     33 H1         -0.3730    1.1660   -1.0740 ha        1 2P1      0.152000
     34 H2          2.0600    0.6260   -0.8210 ha        1 2P1      0.157000
     35 H3          1.4170   -0.2600    3.3690 ha        1 2P1      0.169000
     36 H4         -1.8990    1.0010    0.8950 ha        1 2P1      0.162000
     37 H5          0.4420    1.2350    5.5410 ha        1 2P1      0.154500
     38 H6          0.6940    3.4980    6.5420 ha        1 2P1      0.154500
     39 H7         -2.6120    4.9310    4.1460 ha        1 2P1      0.154500
     40 H8         -2.8590    2.6520    3.1400 ha        1 2P1      0.154500
     41 H9         -1.8390    6.0170    6.4070 h1        1 2P1      0.076700
     42 H10        -0.1050    5.6740    6.8900 h1        1 2P1      0.076700
     43 H11         0.6100    6.7580    4.9060 hn        1 2P1      0.312500
     44 H12        -2.2070    9.9390    3.7540 ha        1 2P1      0.162000
     45 H13        -1.8050   12.5750    2.0620 h4        1 2P1      0.190000
     46 H14         0.1030   13.0370    0.4020 hn        1 2P1      0.331700
     47 H15         1.0380    7.1880    2.7870 h4        1 2P1      0.022100
@<TRIPOS>BOND
     1    1    2 ar  
     2    1    6 ar  
     3    1   33 1   
     4    2    3 ar  
     5    2   34 1   
     6    3    4 ar  
     7    3   29 1   
     8    4    5 ar  
     9    4   35 1   
    10    5    6 ar  
    11    5    7 1   
    12    6   36 1   
    13    7    8 2   
    14    7    9 2   
    15    7   10 1   
    16   10   11 ar  
    17   10   15 ar  
    18   11   12 ar  
    19   11   37 1   
    20   12   13 ar  
    21   12   38 1   
    22   13   14 ar  
    23   13   16 1   
    24   14   15 ar  
    25   14   39 1   
    26   15   40 1   
    27   16   17 1   
    28   16   41 1   
    29   16   42 1   
    30   17   18 1   
    31   17   43 1   
    32   18   19 2   
    33   18   20 1   
    34   20   21 ar  
    35   20   28 ar  
    36   21   22 ar  
    37   21   44 1   
    38   22   23 2   
    39   22   26 ar  
    40   23   24 1   
    41   23   45 1   
    42   24   25 1   
    43   24   46 1   
    44   25   26 2   
    45   26   27 ar  
    46   27   28 ar  
    47   28   47 1   
    48   29   30 1   
    49   29   31 1   
    50   29   32 1   
@<TRIPOS>SUBSTRUCTURE
     1 2P1         1 TEMP              0 ****  ****    0 ROOT
