@<TRIPOS>MOLECULE
2P2
   69    71     1     0     0
SMALL
bcc


@<TRIPOS>ATOM
      1 C23        -0.0670   -0.1290   -0.1790 c3        1 2P2     -0.152400
      2 C24         1.4340   -0.0210   -0.0130 c3        1 2P2     -0.070400
      3 C25         1.8310   -0.2780    1.4280 c3        1 2P2     -0.037100
      4 C26         3.3010   -0.1560    1.6250 ca        1 2P2     -0.077300
      5 C27         3.9170    1.1000    1.5670 ca        1 2P2     -0.126000
      6 C31         4.0800   -1.2900    1.8810 ca        1 2P2     -0.126000
      7 C28         5.2920    1.2190    1.7630 ca        1 2P2     -0.128500
      8 C20         5.4550   -1.1680    2.0760 ca        1 2P2     -0.128500
      9 C29         6.0630    0.0850    2.0180 ca        1 2P2     -0.132000
     10 C21        -0.4770    0.1650   -1.6090 c         1 2P2      0.672100
     11 O22         0.3240    0.6360   -2.4400 o         1 2P2     -0.602100
     12 C10        -2.9450   -1.7240   -0.4320 c         1 2P2      0.645100
     13 O11        -2.1420   -2.6310   -0.7300 o         1 2P2     -0.611100
     14 C12        -2.8590   -0.3040   -1.0350 c3        1 2P2      0.051700
     15 C13        -4.1750    0.0570   -1.7660 c3        1 2P2     -0.085400
     16 C14        -3.7680    0.5850   -3.1360 c3        1 2P2     -0.094400
     17 C15        -2.2850    0.1920   -3.3290 c3        1 2P2      0.114700
     18 C16        -2.0980   -0.9360   -4.3790 c3        1 2P2     -0.052000
     19 C17        -2.5100   -0.3920   -5.7430 c3        1 2P2     -0.091767
     20 C18        -0.6280   -1.3320   -4.4530 c3        1 2P2     -0.091767
     21 C19        -2.9220   -2.1690   -4.0510 c3        1 2P2     -0.091767
     22 N20        -1.7830   -0.1250   -1.9910 n         1 2P2     -0.458800
     23 C1         -4.8460   -4.3590    0.3230 c3        1 2P2      0.138100
     24 O2         -6.1750   -3.9260    0.0780 oh        1 2P2     -0.602800
     25 C3         -4.1240   -4.6860   -0.9860 c3        1 2P2      0.090400
     26 O4         -4.8100   -5.8000   -1.5420 oh        1 2P2     -0.621800
     27 C5         -4.1020   -3.2700    1.1300 c3        1 2P2      0.109700
     28 C6         -4.8450   -3.0050    2.4610 c3        1 2P2     -0.083400
     29 C7         -5.2770   -1.5430    2.4380 c3        1 2P2     -0.086400
     30 C8         -4.7700   -0.9620    1.1080 c3        1 2P2      0.096000
     31 N9         -3.9710   -1.9820    0.4580 n         1 2P2     -0.464800
     32 H23        -0.5790    0.6040    0.4990 hc        1 2P2      0.068200
     33 H23A       -0.4080   -1.1630    0.1000 hc        1 2P2      0.068200
     34 H24         1.9390   -0.7600   -0.6890 hc        1 2P2      0.064200
     35 H24A        1.7770    0.9990   -0.3320 hc        1 2P2      0.064200
     36 H25         1.3080    0.4600    2.0960 hc        1 2P2      0.044700
     37 H25A        1.4850   -1.3020    1.7320 hc        1 2P2      0.044700
     38 H27         3.3110    1.9940    1.3630 ha        1 2P2      0.131000
     39 H31         3.6060   -2.2820    1.9260 ha        1 2P2      0.131000
     40 H28         5.7690    2.2090    1.7140 ha        1 2P2      0.130000
     41 H20         6.0610   -2.0650    2.2760 ha        1 2P2      0.130000
     42 H29         7.1480    0.1790    2.1710 ha        1 2P2      0.130000
     43 H12        -2.6960    0.4020   -0.1640 h1        1 2P2      0.057700
     44 H13        -4.8280   -0.8450   -1.8780 hc        1 2P2      0.061200
     45 H13A       -4.7360    0.8240   -1.1800 hc        1 2P2      0.061200
     46 H14        -3.8670    1.6980   -3.1740 hc        1 2P2      0.057700
     47 H14A       -4.4170    0.1570   -3.9370 hc        1 2P2      0.057700
     48 H15        -1.6990    1.0820   -3.7130 h1        1 2P2      0.075700
     49 H17        -2.3240   -1.1650   -6.5270 hc        1 2P2      0.038922
     50 H17A       -1.9130    0.5170   -5.9950 hc        1 2P2      0.038922
     51 H17B       -3.5930   -0.1280   -5.7670 hc        1 2P2      0.038922
     52 H18        -0.3130   -1.8570   -3.5200 hc        1 2P2      0.038922
     53 H18A       -0.4620   -2.0190   -5.3180 hc        1 2P2      0.038922
     54 H18B        0.0130   -0.4260   -4.5800 hc        1 2P2      0.038922
     55 H19        -2.6310   -2.5780   -3.0510 hc        1 2P2      0.038922
     56 H19A       -4.0130   -1.9320   -4.0360 hc        1 2P2      0.038922
     57 H19B       -2.7440   -2.9570   -4.8220 hc        1 2P2      0.038922
     58 HO2        -6.5580   -4.5660   -0.5370 ho        1 2P2      0.419000
     59 H3         -4.1710   -3.8160   -1.6950 h1        1 2P2      0.052200
     60 H3A        -3.0500   -4.9390   -0.7860 h1        1 2P2      0.052200
     61 HO4        -4.3580   -6.0190   -2.3640 ho        1 2P2      0.410000
     62 H5         -3.0670   -3.6820    1.3260 h1        1 2P2      0.071700
     63 H6         -5.7340   -3.6780    2.5490 hc        1 2P2      0.060200
     64 H6A        -4.1630   -3.2080    3.3220 hc        1 2P2      0.060200
     65 H7         -6.3890   -1.4550    2.4940 hc        1 2P2      0.054700
     66 H7A        -4.8410   -0.9820    3.3000 hc        1 2P2      0.054700
     67 H8         -4.1630   -0.0320    1.2880 h1        1 2P2      0.043200
     68 H8A        -5.6360   -0.6920    0.4420 h1        1 2P2      0.043200
     69 H1         -4.8800   -5.2890    0.9620 h1        1 2P2      0.048700
@<TRIPOS>BOND
     1    1    2 1   
     2    1   10 1   
     3    1   32 1   
     4    1   33 1   
     5    2    3 1   
     6    2   34 1   
     7    2   35 1   
     8    3    4 1   
     9    3   36 1   
    10    3   37 1   
    11    4    5 ar  
    12    4    6 ar  
    13    5    7 ar  
    14    5   38 1   
    15    6    8 ar  
    16    6   39 1   
    17    7    9 ar  
    18    7   40 1   
    19    8    9 ar  
    20    8   41 1   
    21    9   42 1   
    22   10   11 2   
    23   10   22 1   
    24   12   13 2   
    25   12   14 1   
    26   12   31 1   
    27   14   15 1   
    28   14   22 1   
    29   14   43 1   
    30   15   16 1   
    31   15   44 1   
    32   15   45 1   
    33   16   17 1   
    34   16   46 1   
    35   16   47 1   
    36   17   18 1   
    37   17   22 1   
    38   17   48 1   
    39   18   19 1   
    40   18   20 1   
    41   18   21 1   
    42   19   49 1   
    43   19   50 1   
    44   19   51 1   
    45   20   52 1   
    46   20   53 1   
    47   20   54 1   
    48   21   55 1   
    49   21   56 1   
    50   21   57 1   
    51   23   24 1   
    52   23   25 1   
    53   23   27 1   
    54   23   69 1   
    55   24   58 1   
    56   25   26 1   
    57   25   59 1   
    58   25   60 1   
    59   26   61 1   
    60   27   28 1   
    61   27   31 1   
    62   27   62 1   
    63   28   29 1   
    64   28   63 1   
    65   28   64 1   
    66   29   30 1   
    67   29   65 1   
    68   29   66 1   
    69   30   31 1   
    70   30   67 1   
    71   30   68 1   
@<TRIPOS>SUBSTRUCTURE
     1 2P2         1 TEMP              0 ****  ****    0 ROOT
