@<TRIPOS>MOLECULE
2P2
   69    67     1     0     0
SMALL
bcc


@<TRIPOS>ATOM
      1 C23         1.9170   -1.6600   -1.4030 c3        1 2P2     -0.173000
      2 C24         3.3310   -1.3710   -1.9840 c3        1 2P2     -0.153000
      3 C25         4.0860   -2.7020   -2.1970 c3        1 2P2     -0.123000
      4 C26         5.1530   -2.5200   -3.3000 c2        1 2P2     -0.071000
      5 C27         6.2870   -1.7600   -3.0510 c2        1 2P2     -0.125000
      6 C31         4.9840   -3.1240   -4.5300 c1        1 2P2     -0.127000
      7 C28         7.2460   -1.6070   -4.0350 c1        1 2P2     -0.127000
      8 C20         5.9490   -2.9690   -5.5190 c1        1 2P2     -0.130500
      9 C29         7.0750   -2.2140   -5.2710 c1        1 2P2     -0.130500
     10 C21         1.4280   -0.4200   -0.5700 c1        1 2P2      0.300000
     11 O22         2.2210    0.2070    0.1030 o         1 2P2     -0.386000
     12 C10        -1.3860    1.1500    1.0750 c1        1 2P2      0.315000
     13 O11        -1.8080    0.0140    1.2110 o         1 2P2     -0.348000
     14 C12        -0.5920    1.4820   -0.0610 c3        1 2P2      0.007000
     15 C13        -1.3750    1.9300   -1.0290 c3        1 2P2     -0.163000
     16 C14        -1.7980    0.6710   -1.8560 c3        1 2P2     -0.172000
     17 C15        -0.8690   -0.4780   -1.4030 c3        1 2P2      0.036000
     18 C16        -1.6700   -1.5070   -0.4910 c3        1 2P2     -0.050000
     19 C17        -3.0440   -0.9740   -0.2230 c3        1 2P2     -0.212667
     20 C18        -1.7810   -2.8590   -1.2170 c3        1 2P2     -0.212667
     21 C19        -0.9230   -1.6990    0.8460 c3        1 2P2     -0.212667
     22 N20         0.0550    0.0730   -0.7310 n2        1 2P2     -0.295000
     23 C1         -3.7660    2.3890    3.5290 c3        1 2P2      0.034000
     24 O2         -4.4410    1.7220    2.5040 oh        1 2P2     -0.314000
     25 C3         -4.4770    2.1180    4.8770 c3        1 2P2     -0.064000
     26 O4         -5.6370    2.9640    4.9900 oh        1 2P2     -0.340000
     27 C5         -2.3710    1.8990    3.6010 c3        1 2P2      0.015000
     28 C6         -1.6900    2.5890    4.5050 c3        1 2P2     -0.174000
     29 C7         -1.0140    3.7620    3.7010 c3        1 2P2     -0.171000
     30 C8         -1.2000    3.3810    2.1450 c3        1 2P2     -0.048000
     31 N9         -1.5920    2.1440    2.1460 n2        1 2P2     -0.302000
     32 H23         1.9580   -2.4500   -0.8200 hc        1 2P2      0.108500
     33 H23A        1.2900   -1.8280   -2.1360 hc        1 2P2      0.108500
     34 H24         3.8300   -0.8100   -1.3600 hc        1 2P2      0.101500
     35 H24A        3.2410   -0.9070   -2.8380 hc        1 2P2      0.101500
     36 H25         3.4510   -3.3960   -2.4680 hc        1 2P2      0.085500
     37 H25A        4.5250   -2.9670   -1.3600 hc        1 2P2      0.085500
     38 H27         6.4070   -1.3390   -2.1940 ha        1 2P2      0.134000
     39 H31         4.1880   -3.6590   -4.7060 ha        1 2P2      0.129000
     40 H28         8.0390   -1.0750   -3.8610 ha        1 2P2      0.131000
     41 H20         5.8280   -3.3970   -6.3900 ha        1 2P2      0.130000
     42 H29         7.7560   -2.1060   -5.9690 ha        1 2P2      0.130000
     43 H12         0.0350    2.1130    0.3290 h1        1 2P2      0.114000
     44 H13        -0.8790    2.5670   -1.6030 hc        1 2P2      0.109000
     45 H13A       -2.1670    2.3650   -0.6480 hc        1 2P2      0.109000
     46 H14        -1.6780    0.8420   -2.8140 hc        1 2P2      0.095000
     47 H14A       -2.7230    0.4450   -1.6690 hc        1 2P2      0.095000
     48 H15        -0.4960   -0.9340   -2.1760 h1        1 2P2      0.083000
     49 H17        -3.5810   -1.0610   -1.0150 hc        1 2P2      0.079333
     50 H17A       -2.9840   -0.0260    0.0300 hc        1 2P2      0.079333
     51 H17B       -3.4570   -1.4860    0.5130 hc        1 2P2      0.079333
     52 H18        -2.4440   -3.4400   -0.7410 hc        1 2P2      0.079333
     53 H18A       -0.9050   -3.3000   -1.2230 hc        1 2P2      0.079333
     54 H18B       -2.0770   -2.7130   -2.1300 hc        1 2P2      0.079333
     55 H19        -1.5690   -1.6340    1.6010 hc        1 2P2      0.079333
     56 H19A       -0.2390   -1.0040    0.9410 hc        1 2P2      0.079333
     57 H19B       -0.4990   -2.5720    0.8580 hc        1 2P2      0.079333
     58 H1         -3.7640    3.3500    3.3480 h1        1 2P2      0.088000
     59 HO2        -5.3020    1.7340    2.6640 ho        1 2P2      0.211000
     60 H3         -3.8520    2.3120    5.6240 h1        1 2P2      0.076500
     61 H3A        -4.7550    1.1700    4.9170 h1        1 2P2      0.076500
     62 HO4        -6.0510    2.8030    5.7760 ho        1 2P2      0.206000
     63 H5         -2.3610    0.9400    3.8310 h1        1 2P2      0.123000
     64 H6         -0.9990    2.0170    4.9260 hc        1 2P2      0.091000
     65 H6A        -2.2950    2.9490    5.1850 hc        1 2P2      0.091000
     66 H7         -0.0670    3.8190    3.9230 hc        1 2P2      0.092000
     67 H7A        -1.4640    4.6180    3.9000 hc        1 2P2      0.092000
     68 H8         -1.8900    3.9610    1.7300 h1        1 2P2      0.103500
     69 H8A        -0.3460    3.4680    1.6650 h1        1 2P2      0.103500
@<TRIPOS>BOND
     1    1    2 1   
     2    1   10 1   
     3    1   32 1   
     4    1   33 1   
     5    2    3 1   
     6    2   34 1   
     7    2   35 1   
     8    3    4 1   
     9    3   36 1   
    10    3   37 1   
    11    4    5 1   
    12    4    6 1   
    13    5    7 1   
    14    5   38 1   
    15    6   39 1   
    16    7   40 1   
    17    8    9 1   
    18    8   41 1   
    19    9   42 1   
    20   10   11 1   
    21   12   13 1   
    22   12   14 1   
    23   14   15 1   
    24   14   22 1   
    25   14   43 1   
    26   15   16 1   
    27   15   44 1   
    28   15   45 1   
    29   16   17 1   
    30   16   46 1   
    31   16   47 1   
    32   17   18 1   
    33   17   22 1   
    34   17   48 1   
    35   18   19 1   
    36   18   20 1   
    37   18   21 1   
    38   19   49 1   
    39   19   50 1   
    40   19   51 1   
    41   20   52 1   
    42   20   53 1   
    43   20   54 1   
    44   21   55 1   
    45   21   56 1   
    46   21   57 1   
    47   23   24 1   
    48   23   25 1   
    49   23   27 1   
    50   23   58 1   
    51   24   59 1   
    52   25   26 1   
    53   25   60 1   
    54   25   61 1   
    55   26   62 1   
    56   27   28 1   
    57   27   31 1   
    58   27   63 1   
    59   28   29 1   
    60   28   64 1   
    61   28   65 1   
    62   29   30 1   
    63   29   66 1   
    64   29   67 1   
    65   30   31 1   
    66   30   68 1   
    67   30   69 1   
@<TRIPOS>SUBSTRUCTURE
     1 2P2         1 TEMP              0 ****  ****    0 ROOT
