@<TRIPOS>MOLECULE
2P2
   69    71     1     0     0
SMALL
bcc


@<TRIPOS>ATOM
      1 C23        -0.0760   -0.1230   -0.1680 c3        1 2P2     -0.152400
      2 C24         1.4230   -0.0080    0.0040 c3        1 2P2     -0.070400
      3 C25         1.8150   -0.2670    1.4470 c3        1 2P2     -0.037100
      4 C26         3.2840   -0.1410    1.6510 ca        1 2P2     -0.077300
      5 C27         3.8960    1.1180    1.5980 ca        1 2P2     -0.126000
      6 C31         4.0660   -1.2720    1.9090 ca        1 2P2     -0.126000
      7 C28         5.2690    1.2410    1.8000 ca        1 2P2     -0.128500
      8 C20         5.4390   -1.1460    2.1110 ca        1 2P2     -0.128500
      9 C29         6.0430    0.1100    2.0570 ca        1 2P2     -0.132000
     10 C21        -0.4810    0.1740   -1.5990 c         1 2P2      0.672100
     11 O22         0.3210    0.6530   -2.4240 o         1 2P2     -0.602100
     12 C10        -2.9450   -1.7320   -0.4410 c         1 2P2      0.645100
     13 O11        -2.1350   -2.6340   -0.7380 o         1 2P2     -0.611100
     14 C12        -2.8640   -0.3090   -1.0380 c3        1 2P2      0.051700
     15 C13        -4.1780    0.0470   -1.7740 c3        1 2P2     -0.085400
     16 C14        -3.7670    0.5820   -3.1400 c3        1 2P2     -0.094400
     17 C15        -2.2810    0.1980   -3.3270 c3        1 2P2      0.114700
     18 C16        -2.0840   -0.9260   -4.3810 c3        1 2P2     -0.052000
     19 C17        -2.4920   -0.3780   -5.7440 c3        1 2P2     -0.091767
     20 C18        -0.6120   -1.3140   -4.4490 c3        1 2P2     -0.091767
     21 C19        -2.9030   -2.1630   -4.0610 c3        1 2P2     -0.091767
     22 N20        -1.7840   -0.1210   -1.9880 n         1 2P2     -0.458800
     23 C1         -4.8340   -4.3800    0.2980 c3        1 2P2      0.138100
     24 O2         -6.1640   -3.9540    0.0490 oh        1 2P2     -0.602800
     25 C3         -4.1040   -4.6990   -1.0080 c3        1 2P2      0.090400
     26 O4         -4.7810   -5.8150   -1.5700 oh        1 2P2     -0.621800
     27 C5         -4.1000   -3.2900    1.1120 c3        1 2P2      0.109700
     28 C6         -4.8500   -3.0320    2.4400 c3        1 2P2     -0.083400
     29 C7         -5.2900   -1.5730    2.4200 c3        1 2P2     -0.086400
     30 C8         -4.7800   -0.9850    1.0940 c3        1 2P2      0.096000
     31 N9         -3.9730   -1.9980    0.4440 n         1 2P2     -0.464800
     32 H23        -0.5950    0.6060    0.5100 hc        1 2P2      0.068200
     33 H23A       -0.4140   -1.1590    0.1060 hc        1 2P2      0.068200
     34 H24         1.9350   -0.7430   -0.6710 hc        1 2P2      0.064200
     35 H24A        1.7640    1.0140   -0.3090 hc        1 2P2      0.064200
     36 H25         1.4710   -1.2940    1.7470 hc        1 2P2      0.044700
     37 H25A        1.2860    0.4670    2.1140 hc        1 2P2      0.044700
     38 H27         3.2870    2.0100    1.3920 ha        1 2P2      0.131000
     39 H31         3.5950   -2.2660    1.9510 ha        1 2P2      0.131000
     40 H28         5.7420    2.2330    1.7550 ha        1 2P2      0.130000
     41 H20         6.0470   -2.0400    2.3120 ha        1 2P2      0.130000
     42 H29         7.1270    0.2080    2.2160 ha        1 2P2      0.130000
     43 H12        -2.7080    0.3940   -0.1640 h1        1 2P2      0.057700
     44 H13        -4.7460    0.8090   -1.1880 hc        1 2P2      0.061200
     45 H13A       -4.8250   -0.8580   -1.8920 hc        1 2P2      0.061200
     46 H14        -4.4100    0.1540   -3.9450 hc        1 2P2      0.057700
     47 H14A       -3.8720    1.6950   -3.1750 hc        1 2P2      0.057700
     48 H15        -1.6990    1.0920   -3.7050 h1        1 2P2      0.075700
     49 H17        -1.8980    0.5350   -5.9900 hc        1 2P2      0.038922
     50 H17A       -2.2990   -1.1480   -6.5310 hc        1 2P2      0.038922
     51 H17B       -3.5760   -0.1190   -5.7720 hc        1 2P2      0.038922
     52 H18         0.0250   -0.4040   -4.5690 hc        1 2P2      0.038922
     53 H18A       -0.4380   -1.9970   -5.3150 hc        1 2P2      0.038922
     54 H18B       -0.2990   -1.8400   -3.5160 hc        1 2P2      0.038922
     55 H19        -2.6150   -2.5740   -3.0610 hc        1 2P2      0.038922
     56 H19A       -3.9950   -1.9320   -4.0510 hc        1 2P2      0.038922
     57 H19B       -2.7170   -2.9480   -4.8340 hc        1 2P2      0.038922
     58 HO2        -6.5410   -4.5950   -0.5700 ho        1 2P2      0.419000
     59 H3         -3.0300   -4.9470   -0.8040 h1        1 2P2      0.052200
     60 H3A        -4.1530   -3.8270   -1.7150 h1        1 2P2      0.052200
     61 HO4        -4.3240   -6.0300   -2.3910 ho        1 2P2      0.410000
     62 H5         -3.0630   -3.6950    1.3110 h1        1 2P2      0.071700
     63 H6         -4.1700   -3.2340    3.3040 hc        1 2P2      0.060200
     64 H6A        -5.7350   -3.7100    2.5230 hc        1 2P2      0.060200
     65 H7         -6.4030   -1.4910    2.4710 hc        1 2P2      0.054700
     66 H7A        -4.8610   -1.0120    3.2850 hc        1 2P2      0.054700
     67 H8         -4.1800   -0.0520    1.2790 h1        1 2P2      0.043200
     68 H8A        -5.6460   -0.7180    0.4240 h1        1 2P2      0.043200
     69 H1         -4.8660   -5.3120    0.9340 h1        1 2P2      0.048700
@<TRIPOS>BOND
     1    1    2 1   
     2    1   10 1   
     3    1   32 1   
     4    1   33 1   
     5    2    3 1   
     6    2   34 1   
     7    2   35 1   
     8    3    4 1   
     9    3   36 1   
    10    3   37 1   
    11    4    5 ar  
    12    4    6 ar  
    13    5    7 ar  
    14    5   38 1   
    15    6    8 ar  
    16    6   39 1   
    17    7    9 ar  
    18    7   40 1   
    19    8    9 ar  
    20    8   41 1   
    21    9   42 1   
    22   10   11 2   
    23   10   22 1   
    24   12   13 2   
    25   12   14 1   
    26   12   31 1   
    27   14   15 1   
    28   14   22 1   
    29   14   43 1   
    30   15   16 1   
    31   15   44 1   
    32   15   45 1   
    33   16   17 1   
    34   16   46 1   
    35   16   47 1   
    36   17   18 1   
    37   17   22 1   
    38   17   48 1   
    39   18   19 1   
    40   18   20 1   
    41   18   21 1   
    42   19   49 1   
    43   19   50 1   
    44   19   51 1   
    45   20   52 1   
    46   20   53 1   
    47   20   54 1   
    48   21   55 1   
    49   21   56 1   
    50   21   57 1   
    51   23   24 1   
    52   23   25 1   
    53   23   27 1   
    54   23   69 1   
    55   24   58 1   
    56   25   26 1   
    57   25   59 1   
    58   25   60 1   
    59   26   61 1   
    60   27   28 1   
    61   27   31 1   
    62   27   62 1   
    63   28   29 1   
    64   28   63 1   
    65   28   64 1   
    66   29   30 1   
    67   29   65 1   
    68   29   66 1   
    69   30   31 1   
    70   30   67 1   
    71   30   68 1   
@<TRIPOS>SUBSTRUCTURE
     1 2P2         1 TEMP              0 ****  ****    0 ROOT
