@<TRIPOS>MOLECULE
2P2
   69    71     1     0     0
SMALL
bcc


@<TRIPOS>ATOM
      1 C23        -1.6770   -0.0050   -0.7510 c3        1 2P2     -0.152400
      2 C24        -3.1490    0.0590   -0.4040 c3        1 2P2     -0.070400
      3 C25        -3.7450   -1.3350   -0.3540 c3        1 2P2     -0.037100
      4 C26        -5.1990   -1.3020   -0.0360 ca        1 2P2     -0.078300
      5 C27        -6.1160   -0.8300   -0.9840 ca        1 2P2     -0.126000
      6 C31        -5.6660   -1.7510    1.2040 ca        1 2P2     -0.126000
      7 C28        -7.4790   -0.8080   -0.6940 ca        1 2P2     -0.127500
      8 C20        -7.0300   -1.7290    1.4920 ca        1 2P2     -0.127500
      9 C29        -7.9380   -1.2580    0.5450 ca        1 2P2     -0.132000
     10 C21        -1.0820    1.3870   -0.8410 c         1 2P2      0.672100
     11 O22        -1.7940    2.4100   -0.8330 o         1 2P2     -0.599100
     12 C10         1.5370   -0.5470   -0.1500 c         1 2P2      0.635100
     13 O11         1.0610   -0.4270    0.9960 o         1 2P2     -0.595100
     14 C12         1.1690    0.4110   -1.3050 c3        1 2P2      0.051700
     15 C13         2.4390    1.0420   -1.9270 c3        1 2P2     -0.083400
     16 C14         2.1800    2.5420   -1.9910 c3        1 2P2     -0.095400
     17 C15         0.9540    2.8080   -1.0880 c3        1 2P2      0.113700
     18 C16         1.3310    3.5280    0.2350 c3        1 2P2     -0.052000
     19 C17         1.8250    4.9290   -0.1090 c3        1 2P2     -0.091433
     20 C18         0.0950    3.6650    1.1160 c3        1 2P2     -0.091433
     21 C19         2.4050    2.7830    1.0090 c3        1 2P2     -0.091433
     22 N20         0.3030    1.5080   -0.9140 n         1 2P2     -0.459800
     23 C1          3.9060   -2.2050    1.5610 c3        1 2P2      0.139100
     24 O2          5.1240   -1.9970    0.8790 oh        1 2P2     -0.582800
     25 C3          3.5150   -1.0090    2.4320 c3        1 2P2      0.095400
     26 O4          4.3850   -1.0100    3.5510 oh        1 2P2     -0.597800
     27 C5          2.7540   -2.5760    0.5940 c3        1 2P2      0.059700
     28 C6          3.1110   -3.8720   -0.1690 c3        1 2P2     -0.088400
     29 C7          3.0500   -3.5410   -1.6550 c3        1 2P2     -0.090400
     30 C8          2.7380   -2.0390   -1.7500 c3        1 2P2      0.084000
     31 N9          2.4670   -1.5480   -0.4100 n         1 2P2     -0.466800
     32 H23        -1.1260   -0.5960    0.0300 hc        1 2P2      0.068200
     33 H23A       -1.5410   -0.5180   -1.7400 hc        1 2P2      0.068200
     34 H24        -3.2780    0.5680    0.5870 hc        1 2P2      0.064200
     35 H24A       -3.6910    0.6820   -1.1630 hc        1 2P2      0.064200
     36 H25        -3.5980   -1.8400   -1.3480 hc        1 2P2      0.044700
     37 H25A       -3.1970   -1.9470    0.4120 hc        1 2P2      0.044700
     38 H27        -5.7540   -0.4720   -1.9590 ha        1 2P2      0.131000
     39 H31        -4.9540   -2.1220    1.9560 ha        1 2P2      0.131000
     40 H28        -8.1920   -0.4340   -1.4420 ha        1 2P2      0.130000
     41 H20        -7.3890   -2.0820    2.4700 ha        1 2P2      0.130000
     42 H29        -9.0140   -1.2390    0.7730 ha        1 2P2      0.130000
     43 H12         0.6340   -0.2210   -2.0770 h1        1 2P2      0.059700
     44 H13         3.3390    0.8350   -1.2950 hc        1 2P2      0.058200
     45 H13A        2.6180    0.6100   -2.9410 hc        1 2P2      0.058200
     46 H14         3.0750    3.1160   -1.6540 hc        1 2P2      0.058700
     47 H14A        1.9470    2.8560   -3.0390 hc        1 2P2      0.058700
     48 H15         0.2240    3.4890   -1.6230 h1        1 2P2      0.076700
     49 H17         1.0410    5.4900   -0.6720 hc        1 2P2      0.039033
     50 H17A        2.0530    5.4870    0.8310 hc        1 2P2      0.039033
     51 H17B        2.7540    4.8940   -0.7260 hc        1 2P2      0.039033
     52 H18        -0.2230    2.6690    1.5070 hc        1 2P2      0.039033
     53 H18A        0.3180    4.3310    1.9840 hc        1 2P2      0.039033
     54 H18B       -0.7520    4.1000    0.5320 hc        1 2P2      0.039033
     55 H19         3.3520    2.7160    0.4210 hc        1 2P2      0.039033
     56 H19A        2.6230    3.3210    1.9630 hc        1 2P2      0.039033
     57 H19B        2.0630    1.7480    1.2560 hc        1 2P2      0.039033
     58 HO2         5.0590   -1.1550    0.4130 ho        1 2P2      0.400000
     59 H3          3.6230   -0.0500    1.8570 h1        1 2P2      0.043200
     60 H3A         2.4470   -1.1080    2.7680 h1        1 2P2      0.043200
     61 HO4         4.1160   -0.2690    4.1060 ho        1 2P2      0.402000
     62 H5          1.8330   -2.7370    1.2280 h1        1 2P2      0.073700
     63 H6          4.1370   -4.2150    0.1150 hc        1 2P2      0.064200
     64 H6A         2.3860   -4.6800    0.0940 hc        1 2P2      0.064200
     65 H7          4.0230   -3.7650   -2.1570 hc        1 2P2      0.055200
     66 H7A         2.2540   -4.1360   -2.1660 hc        1 2P2      0.055200
     67 H8          3.6230   -1.4780   -2.1630 h1        1 2P2      0.043700
     68 H8A         1.8660   -1.8630   -2.4360 h1        1 2P2      0.043700
     69 H1          4.1120   -3.0980    2.2210 h1        1 2P2      0.094700
@<TRIPOS>BOND
     1    1    2 1   
     2    1   10 1   
     3    1   32 1   
     4    1   33 1   
     5    2    3 1   
     6    2   34 1   
     7    2   35 1   
     8    3    4 1   
     9    3   36 1   
    10    3   37 1   
    11    4    5 ar  
    12    4    6 ar  
    13    5    7 ar  
    14    5   38 1   
    15    6    8 ar  
    16    6   39 1   
    17    7    9 ar  
    18    7   40 1   
    19    8    9 ar  
    20    8   41 1   
    21    9   42 1   
    22   10   11 2   
    23   10   22 1   
    24   12   13 2   
    25   12   14 1   
    26   12   31 1   
    27   14   15 1   
    28   14   22 1   
    29   14   43 1   
    30   15   16 1   
    31   15   44 1   
    32   15   45 1   
    33   16   17 1   
    34   16   46 1   
    35   16   47 1   
    36   17   18 1   
    37   17   22 1   
    38   17   48 1   
    39   18   19 1   
    40   18   20 1   
    41   18   21 1   
    42   19   49 1   
    43   19   50 1   
    44   19   51 1   
    45   20   52 1   
    46   20   53 1   
    47   20   54 1   
    48   21   55 1   
    49   21   56 1   
    50   21   57 1   
    51   23   24 1   
    52   23   25 1   
    53   23   27 1   
    54   23   69 1   
    55   24   58 1   
    56   25   26 1   
    57   25   59 1   
    58   25   60 1   
    59   26   61 1   
    60   27   28 1   
    61   27   31 1   
    62   27   62 1   
    63   28   29 1   
    64   28   63 1   
    65   28   64 1   
    66   29   30 1   
    67   29   65 1   
    68   29   66 1   
    69   30   31 1   
    70   30   67 1   
    71   30   68 1   
@<TRIPOS>SUBSTRUCTURE
     1 2P2         1 TEMP              0 ****  ****    0 ROOT
