@<TRIPOS>MOLECULE
2P2
   69    71     1     0     0
SMALL
bcc


@<TRIPOS>ATOM
      1 C23        -0.0730   -0.1270   -0.1720 c3        1 2P2     -0.152400
      2 C24         1.4260   -0.0130    0.0010 c3        1 2P2     -0.070400
      3 C25         1.8160   -0.2660    1.4450 c3        1 2P2     -0.037100
      4 C26         3.2850   -0.1400    1.6500 ca        1 2P2     -0.077300
      5 C27         3.8980    1.1180    1.5930 ca        1 2P2     -0.126000
      6 C31         4.0660   -1.2700    1.9120 ca        1 2P2     -0.126000
      7 C28         5.2710    1.2420    1.7960 ca        1 2P2     -0.128500
      8 C20         5.4400   -1.1440    2.1150 ca        1 2P2     -0.128500
      9 C29         6.0440    0.1110    2.0570 ca        1 2P2     -0.132000
     10 C21        -0.4770    0.1640   -1.6050 c         1 2P2      0.672100
     11 O22         0.3270    0.6360   -2.4320 o         1 2P2     -0.602100
     12 C10        -2.9460   -1.7300   -0.4380 c         1 2P2      0.645100
     13 O11        -2.1380   -2.6350   -0.7290 o         1 2P2     -0.611100
     14 C12        -2.8610   -0.3100   -1.0420 c3        1 2P2      0.051700
     15 C13        -4.1740    0.0450   -1.7810 c3        1 2P2     -0.085400
     16 C14        -3.7610    0.5720   -3.1500 c3        1 2P2     -0.094400
     17 C15        -2.2760    0.1830   -3.3340 c3        1 2P2      0.114700
     18 C16        -2.0800   -0.9470   -4.3810 c3        1 2P2     -0.052000
     19 C17        -2.4860   -0.4060   -5.7480 c3        1 2P2     -0.091767
     20 C18        -0.6090   -1.3390   -4.4470 c3        1 2P2     -0.091767
     21 C19        -2.9020   -2.1810   -4.0550 c3        1 2P2     -0.091767
     22 N20        -1.7800   -0.1300   -1.9930 n         1 2P2     -0.458800
     23 C1         -4.8430   -4.3690    0.3120 c3        1 2P2      0.138100
     24 O2         -6.1710   -3.9410    0.0600 oh        1 2P2     -0.602800
     25 C3         -4.1130   -4.6960   -0.9920 c3        1 2P2      0.090400
     26 O4         -4.7920   -5.8140   -1.5490 oh        1 2P2     -0.621800
     27 C5         -4.1070   -3.2770    1.1220 c3        1 2P2      0.108700
     28 C6         -4.8570   -3.0110    2.4480 c3        1 2P2     -0.083400
     29 C7         -5.2930   -1.5510    2.4200 c3        1 2P2     -0.086400
     30 C8         -4.7810   -0.9710    1.0910 c3        1 2P2      0.096000
     31 N9         -3.9750   -1.9890    0.4480 n         1 2P2     -0.464800
     32 H23        -0.5920    0.6060    0.5020 hc        1 2P2      0.068200
     33 H23A       -0.4130   -1.1610    0.1070 hc        1 2P2      0.068200
     34 H24         1.7680    1.0070   -0.3170 hc        1 2P2      0.064200
     35 H24A        1.9370   -0.7520   -0.6710 hc        1 2P2      0.064200
     36 H25         1.4720   -1.2910    1.7490 hc        1 2P2      0.044700
     37 H25A        1.2880    0.4710    2.1090 hc        1 2P2      0.044700
     38 H27         3.2890    2.0100    1.3840 ha        1 2P2      0.131000
     39 H31         3.5950   -2.2640    1.9570 ha        1 2P2      0.131000
     40 H28         5.7450    2.2330    1.7480 ha        1 2P2      0.130000
     41 H20         6.0470   -2.0380    2.3190 ha        1 2P2      0.130000
     42 H29         7.1280    0.2090    2.2160 ha        1 2P2      0.130000
     43 H12        -2.7040    0.3970   -0.1720 h1        1 2P2      0.057700
     44 H13        -4.7400    0.8120   -1.1990 hc        1 2P2      0.061200
     45 H13A       -4.8230   -0.8590   -1.8950 hc        1 2P2      0.061200
     46 H14        -4.4040    0.1410   -3.9530 hc        1 2P2      0.057700
     47 H14A       -3.8620    1.6850   -3.1910 hc        1 2P2      0.057700
     48 H15        -1.6910    1.0730   -3.7170 h1        1 2P2      0.075700
     49 H17        -2.2940   -1.1800   -6.5300 hc        1 2P2      0.038922
     50 H17A       -1.8910    0.5040   -5.9980 hc        1 2P2      0.038922
     51 H17B       -3.5700   -0.1450   -5.7780 hc        1 2P2      0.038922
     52 H18        -0.4360   -2.0270   -5.3090 hc        1 2P2      0.038922
     53 H18A        0.0300   -0.4310   -4.5720 hc        1 2P2      0.038922
     54 H18B       -0.2980   -1.8610   -3.5110 hc        1 2P2      0.038922
     55 H19        -2.6160   -2.5880   -3.0530 hc        1 2P2      0.038922
     56 H19A       -3.9940   -1.9480   -4.0460 hc        1 2P2      0.038922
     57 H19B       -2.7190   -2.9700   -4.8240 hc        1 2P2      0.038922
     58 HO2        -6.5500   -4.5830   -0.5560 ho        1 2P2      0.419000
     59 H3         -3.0390   -4.9460   -0.7860 h1        1 2P2      0.052200
     60 H3A        -4.1590   -3.8280   -1.7030 h1        1 2P2      0.052200
     61 HO4        -4.3350   -6.0330   -2.3690 ho        1 2P2      0.410000
     62 H5         -3.0720   -3.6840    1.3230 h1        1 2P2      0.071700
     63 H6         -5.7440   -3.6860    2.5330 hc        1 2P2      0.060200
     64 H6A        -4.1790   -3.2110    3.3130 hc        1 2P2      0.060200
     65 H7         -4.8630   -0.9860    3.2830 hc        1 2P2      0.054700
     66 H7A        -6.4060   -1.4650    2.4700 hc        1 2P2      0.054700
     67 H8         -4.1780   -0.0390    1.2730 h1        1 2P2      0.043200
     68 H8A        -5.6450   -0.7040    0.4200 h1        1 2P2      0.043200
     69 H1         -4.8780   -5.2980    0.9530 h1        1 2P2      0.048700
@<TRIPOS>BOND
     1    1    2 1   
     2    1   10 1   
     3    1   32 1   
     4    1   33 1   
     5    2    3 1   
     6    2   34 1   
     7    2   35 1   
     8    3    4 1   
     9    3   36 1   
    10    3   37 1   
    11    4    5 ar  
    12    4    6 ar  
    13    5    7 ar  
    14    5   38 1   
    15    6    8 ar  
    16    6   39 1   
    17    7    9 ar  
    18    7   40 1   
    19    8    9 ar  
    20    8   41 1   
    21    9   42 1   
    22   10   11 2   
    23   10   22 1   
    24   12   13 2   
    25   12   14 1   
    26   12   31 1   
    27   14   15 1   
    28   14   22 1   
    29   14   43 1   
    30   15   16 1   
    31   15   44 1   
    32   15   45 1   
    33   16   17 1   
    34   16   46 1   
    35   16   47 1   
    36   17   18 1   
    37   17   22 1   
    38   17   48 1   
    39   18   19 1   
    40   18   20 1   
    41   18   21 1   
    42   19   49 1   
    43   19   50 1   
    44   19   51 1   
    45   20   52 1   
    46   20   53 1   
    47   20   54 1   
    48   21   55 1   
    49   21   56 1   
    50   21   57 1   
    51   23   24 1   
    52   23   25 1   
    53   23   27 1   
    54   23   69 1   
    55   24   58 1   
    56   25   26 1   
    57   25   59 1   
    58   25   60 1   
    59   26   61 1   
    60   27   28 1   
    61   27   31 1   
    62   27   62 1   
    63   28   29 1   
    64   28   63 1   
    65   28   64 1   
    66   29   30 1   
    67   29   65 1   
    68   29   66 1   
    69   30   31 1   
    70   30   67 1   
    71   30   68 1   
@<TRIPOS>SUBSTRUCTURE
     1 2P2         1 TEMP              0 ****  ****    0 ROOT
