@<TRIPOS>MOLECULE
2P3
   25    27     1     0     0
SMALL
bcc


@<TRIPOS>ATOM
      1 C2         -0.0180   -0.3360    0.0190 c         1 2P3      0.479400
      2 N3          1.3410   -0.6350    0.2350 n         1 2P3     -0.412400
      3 S1         -1.0030   -0.9140   -1.0670 s         1 2P3     -0.475400
      4 C4          1.7900    0.1320    1.3330 cc        1 2P3      0.330900
      5 N5          0.7820    0.9050    1.7950 n2        1 2P3     -0.476300
      6 N6         -0.2810    0.6300    1.0210 n         1 2P3     -0.262900
      7 C7          3.1950    0.1240    1.8600 c3        1 2P3      0.104800
      8 C8          3.2100    0.1940    3.3890 c3        1 2P3      0.102400
      9 O9          4.5540    0.1910    3.8740 os        1 2P3     -0.309900
     10 C10         5.3370   -0.7960    3.2960 ca        1 2P3      0.054100
     11 C11         4.9920   -1.3950    2.0730 ca        1 2P3      0.054100
     12 O12         3.8200   -1.0870    1.3950 os        1 2P3     -0.331900
     13 C13         5.8220   -2.3660    1.4980 ca        1 2P3     -0.116000
     14 C14         6.9960   -2.7200    2.1580 ca        1 2P3     -0.128000
     15 C15         7.3460   -2.1170    3.3690 ca        1 2P3     -0.126000
     16 C16         6.5230   -1.1550    3.9490 ca        1 2P3     -0.115000
     17 H1          1.8660   -1.3310   -0.2340 hn        1 2P3      0.383500
     18 H2         -1.1520    1.0890    1.1690 hn        1 2P3      0.388500
     19 H3          3.7620    0.9950    1.4210 h1        1 2P3      0.094700
     20 H4          2.6550   -0.6750    3.8270 h1        1 2P3      0.086700
     21 H5          2.7880    1.1650    3.7590 h1        1 2P3      0.086700
     22 H6          5.5370   -2.8320    0.5450 ha        1 2P3      0.152000
     23 H7          7.6550   -3.4820    1.7160 ha        1 2P3      0.141000
     24 H8          8.2800   -2.4050    3.8730 ha        1 2P3      0.140000
     25 H9          6.7850   -0.6730    4.9020 ha        1 2P3      0.155000
@<TRIPOS>BOND
     1    1    2 1   
     2    1    3 2   
     3    1    6 1   
     4    2    4 1   
     5    2   17 1   
     6    4    5 2   
     7    4    7 1   
     8    5    6 1   
     9    6   18 1   
    10    7    8 1   
    11    7   12 1   
    12    7   19 1   
    13    8    9 1   
    14    8   20 1   
    15    8   21 1   
    16    9   10 1   
    17   10   11 ar  
    18   10   16 ar  
    19   11   12 1   
    20   11   13 ar  
    21   13   14 ar  
    22   13   22 1   
    23   14   15 ar  
    24   14   23 1   
    25   15   16 ar  
    26   15   24 1   
    27   16   25 1   
@<TRIPOS>SUBSTRUCTURE
     1 2P3         1 TEMP              0 ****  ****    0 ROOT
