@<TRIPOS>MOLECULE
2P3
   25    27     1     0     0
SMALL
bcc


@<TRIPOS>ATOM
      1 C2         -0.0160   -0.3140    0.0360 c         1 2P3      0.479400
      2 N3          1.3460   -0.6050    0.2410 ns        1 2P3     -0.412400
      3 S1         -0.9960   -0.8680   -1.0670 s         1 2P3     -0.475400
      4 C4          1.7880    0.1330    1.3620 cc        1 2P3      0.330900
      5 N5          0.7720    0.8810    1.8480 n2        1 2P3     -0.476300
      6 N6         -0.2890    0.6180    1.0670 ns        1 2P3     -0.262900
      7 C7          3.1930    0.1230    1.8870 c3        1 2P3      0.104800
      8 C8          3.2110    0.1560    3.4170 c3        1 2P3      0.102400
      9 O9          4.5550    0.1510    3.9000 os        1 2P3     -0.309900
     10 C10         5.3450   -0.8160    3.2970 ca        1 2P3      0.054100
     11 C11         5.0030   -1.3870    2.0600 ca        1 2P3      0.054100
     12 O12         3.8270   -1.0720    1.3910 os        1 2P3     -0.331900
     13 C13         5.8390   -2.3380    1.4610 ca        1 2P3     -0.116000
     14 C14         7.0170   -2.6990    2.1100 ca        1 2P3     -0.128000
     15 C15         7.3640   -2.1220    3.3340 ca        1 2P3     -0.126000
     16 C16         6.5350   -1.1810    3.9390 ca        1 2P3     -0.115000
     17 H1          1.8770   -1.2810   -0.2490 hn        1 2P3      0.383500
     18 H2         -1.1640    1.0630    1.2300 hn        1 2P3      0.388500
     19 H3          3.7540    1.0090    1.4680 h1        1 2P3      0.094700
     20 H4          2.7820    1.1150    3.8110 h1        1 2P3      0.086700
     21 H5          2.6630   -0.7290    3.8350 h1        1 2P3      0.086700
     22 H6          5.5560   -2.7830    0.4960 ha        1 2P3      0.152000
     23 H7          7.6810   -3.4450    1.6490 ha        1 2P3      0.141000
     24 H8          8.3010   -2.4160    3.8300 ha        1 2P3      0.140000
     25 H9          6.7950   -0.7210    4.9030 ha        1 2P3      0.155000
@<TRIPOS>BOND
     1    1    2 1   
     2    1    3 2   
     3    1    6 1   
     4    2    4 1   
     5    2   17 1   
     6    4    5 2   
     7    4    7 1   
     8    5    6 1   
     9    6   18 1   
    10    7    8 1   
    11    7   12 1   
    12    7   19 1   
    13    8    9 1   
    14    8   20 1   
    15    8   21 1   
    16    9   10 1   
    17   10   11 ar  
    18   10   16 ar  
    19   11   12 1   
    20   11   13 ar  
    21   13   14 ar  
    22   13   22 1   
    23   14   15 ar  
    24   14   23 1   
    25   15   16 ar  
    26   15   24 1   
    27   16   25 1   
@<TRIPOS>SUBSTRUCTURE
     1 2P3         1 TEMP              0 ****  ****    0 ROOT
