@<TRIPOS>MOLECULE
2P3
   25    27     1     0     0
SMALL
bcc


@<TRIPOS>ATOM
      1 C2         -0.0270   -0.3170    0.0540 c         1 2P3      0.479400
      2 N3          1.3410   -0.5910    0.2480 n         1 2P3     -0.413400
      3 S1         -1.0000   -0.8550   -1.0620 s         1 2P3     -0.475400
      4 C4          1.7720    0.1210    1.3900 cc        1 2P3      0.330900
      5 N5          0.7450    0.8360    1.9000 n2        1 2P3     -0.476300
      6 N6         -0.3130    0.5790    1.1140 n         1 2P3     -0.262900
      7 C7          3.1790    0.1190    1.9110 c3        1 2P3      0.104800
      8 C8          3.2000    0.1140    3.4420 c3        1 2P3      0.102400
      9 O9          4.5460    0.1170    3.9210 os        1 2P3     -0.309900
     10 C10         5.3490   -0.8220    3.2920 ca        1 2P3      0.054100
     11 C11         5.0120   -1.3680    2.0420 ca        1 2P3      0.054100
     12 O12         3.8300   -1.0530    1.3840 os        1 2P3     -0.331900
     13 C13         5.8600   -2.2910    1.4170 ca        1 2P3     -0.116000
     14 C14         7.0450   -2.6500    2.0540 ca        1 2P3     -0.128000
     15 C15         7.3870   -2.0990    3.2920 ca        1 2P3     -0.126000
     16 C16         6.5460   -1.1860    3.9220 ca        1 2P3     -0.115000
     17 H1          1.8810   -1.2440   -0.2620 hn        1 2P3      0.383500
     18 H2         -1.1950    1.0030    1.2920 hn        1 2P3      0.388500
     19 H3          3.7250    1.0240    1.5130 h1        1 2P3      0.094700
     20 H4          2.6670   -0.7890    3.8380 h1        1 2P3      0.086700
     21 H5          2.7590    1.0560    3.8610 h1        1 2P3      0.086700
     22 H6          5.5810   -2.7150    0.4430 ha        1 2P3      0.152000
     23 H7          7.7190   -3.3750    1.5730 ha        1 2P3      0.141000
     24 H8          8.3300   -2.3910    3.7780 ha        1 2P3      0.140000
     25 H9          6.8010   -0.7460    4.8970 ha        1 2P3      0.155000
@<TRIPOS>BOND
     1    1    2 1   
     2    1    3 2   
     3    1    6 1   
     4    2    4 1   
     5    2   17 1   
     6    4    5 2   
     7    4    7 1   
     8    5    6 1   
     9    6   18 1   
    10    7    8 1   
    11    7   12 1   
    12    7   19 1   
    13    8    9 1   
    14    8   20 1   
    15    8   21 1   
    16    9   10 1   
    17   10   11 ar  
    18   10   16 ar  
    19   11   12 1   
    20   11   13 ar  
    21   13   14 ar  
    22   13   22 1   
    23   14   15 ar  
    24   14   23 1   
    25   15   16 ar  
    26   15   24 1   
    27   16   25 1   
@<TRIPOS>SUBSTRUCTURE
     1 2P3         1 TEMP              0 ****  ****    0 ROOT
