@<TRIPOS>MOLECULE
2P4
   53    55     1     0     0
SMALL
bcc


@<TRIPOS>ATOM
      1 C10        -0.1560   -0.2910   -0.2240 c         1 2P4      0.660100
      2 O11        -0.9140    0.6670   -0.5370 o         1 2P4     -0.700100
      3 C12         1.3550   -0.1720   -0.4040 c3        1 2P4     -0.090500
      4 C13         2.1060   -0.4560    0.9200 c3        1 2P4     -0.080400
      5 C14         3.0450    0.7290    1.1650 c3        1 2P4     -0.091200
      6 C15         2.7690    1.6830    0.0570 c2        1 2P4      0.037800
      7 C16         1.8330    1.2000   -0.8080 ce        1 2P4     -0.265400
      8 C1         -2.6530   -1.0840    1.8080 c3        1 2P4      0.134100
      9 O2         -1.8780   -1.5940    2.8800 oh        1 2P4     -0.604800
     10 C3         -2.6400    0.4480    1.8150 c3        1 2P4      0.096400
     11 O4         -3.2930    0.8270    3.0150 oh        1 2P4     -0.610800
     12 C5         -2.1100   -1.6630    0.4820 c3        1 2P4      0.106700
     13 C6         -2.3300   -3.1950    0.4530 c3        1 2P4     -0.085400
     14 C7         -0.9490   -3.8400    0.4190 c3        1 2P4     -0.085400
     15 C8          0.0680   -2.6880    0.4540 c3        1 2P4      0.086000
     16 N9         -0.6790   -1.4560    0.2510 n         1 2P4     -0.424800
     17 C17         1.4340    1.9630   -1.9760 c         1 2P4      0.583300
     18 O18         1.8930    3.0430   -2.3380 o         1 2P4     -0.453100
     19 N19         0.3410    1.3840   -2.8320 n4        1 2P4     -0.668800
     20 C20         0.2950    1.9560   -4.2160 c3        1 2P4      0.176100
     21 C21        -0.8080    1.3460   -5.0100 ca        1 2P4     -0.182300
     22 C22        -2.1250    1.7840   -4.8230 ca        1 2P4     -0.101500
     23 C23        -3.1520    1.2440   -5.5960 ca        1 2P4     -0.120000
     24 C24        -2.8670    0.2710   -6.5560 ca        1 2P4     -0.083000
     25 C25        -1.5540   -0.1640   -6.7440 ca        1 2P4     -0.120000
     26 C26        -0.5230    0.3700   -5.9710 ca        1 2P4     -0.101500
     27 H12         1.6710   -0.9190   -1.1860 hc        1 2P4      0.075700
     28 H13         1.3930   -0.5580    1.7760 hc        1 2P4      0.080200
     29 H13A        2.6800   -1.4120    0.8340 hc        1 2P4      0.080200
     30 H14         2.8500    1.2100    2.1590 hc        1 2P4      0.101200
     31 H14A        4.1220    0.4140    1.1500 hc        1 2P4      0.101200
     32 H15         3.2850    2.6490   -0.0230 ha        1 2P4      0.181000
     33 H1         -3.7200   -1.4350    1.9190 h1        1 2P4      0.064700
     34 HO2        -2.2290   -1.1890    3.6860 ho        1 2P4      0.432000
     35 H3         -1.5870    0.8360    1.8120 h1        1 2P4      0.040200
     36 H3A        -3.1830    0.8480    0.9200 h1        1 2P4      0.040200
     37 HO4        -3.3330    1.7910    3.0230 ho        1 2P4      0.416000
     38 H5         -2.6800   -1.1560   -0.3500 h1        1 2P4      0.074700
     39 H6         -2.9260   -3.4740   -0.4500 hc        1 2P4      0.070700
     40 H6A        -2.8940   -3.5220    1.3620 hc        1 2P4      0.070700
     41 H7         -0.7960   -4.5090    1.3020 hc        1 2P4      0.067200
     42 H7A        -0.8140   -4.4520   -0.5060 hc        1 2P4      0.067200
     43 H8          0.8480   -2.8080   -0.3450 h1        1 2P4      0.054200
     44 H8A         0.5800   -2.6520    1.4560 h1        1 2P4      0.054200
     45 HN19       -0.5610    1.5680   -2.3490 hn        1 2P4      0.471300
     46 H20         1.2980    1.7720   -4.6970 hx        1 2P4      0.112200
     47 H20A        0.1520    3.0720   -4.1170 hx        1 2P4      0.112200
     48 H22        -2.3500    2.5640   -4.0800 ha        1 2P4      0.139000
     49 H23        -4.1870    1.5930   -5.4540 ha        1 2P4      0.157000
     50 H24        -3.6790   -0.1490   -7.1710 ha        1 2P4      0.158000
     51 H25        -1.3290   -0.9240   -7.5080 ha        1 2P4      0.157000
     52 H26         0.5120    0.0350   -6.1340 ha        1 2P4      0.139000
     53 H192        0.4500    0.3660   -2.8760 hn        1 2P4      0.471300
@<TRIPOS>BOND
     1    1    2 2   
     2    1    3 1   
     3    1   16 1   
     4    3    4 1   
     5    3    7 1   
     6    3   27 1   
     7    4    5 1   
     8    4   28 1   
     9    4   29 1   
    10    5    6 1   
    11    5   30 1   
    12    5   31 1   
    13    6    7 2   
    14    6   32 1   
    15    7   17 1   
    16    8    9 1   
    17    8   10 1   
    18    8   12 1   
    19    8   33 1   
    20    9   34 1   
    21   10   11 1   
    22   10   35 1   
    23   10   36 1   
    24   11   37 1   
    25   12   13 1   
    26   12   16 1   
    27   12   38 1   
    28   13   14 1   
    29   13   39 1   
    30   13   40 1   
    31   14   15 1   
    32   14   41 1   
    33   14   42 1   
    34   15   16 1   
    35   15   43 1   
    36   15   44 1   
    37   17   18 2   
    38   17   19 1   
    39   19   20 1   
    40   19   45 1   
    41   19   53 1   
    42   20   21 1   
    43   20   46 1   
    44   20   47 1   
    45   21   22 ar  
    46   21   26 ar  
    47   22   23 ar  
    48   22   48 1   
    49   23   24 ar  
    50   23   49 1   
    51   24   25 ar  
    52   24   50 1   
    53   25   26 ar  
    54   25   51 1   
    55   26   52 1   
@<TRIPOS>SUBSTRUCTURE
     1 2P4         1 TEMP              0 ****  ****    0 ROOT
