@<TRIPOS>MOLECULE
2P4
   53    55     1     0     0
SMALL
bcc


@<TRIPOS>ATOM
      1 C10        -0.1600   -0.2900   -0.2230 c         1 2P4      0.660100
      2 O11        -0.9160    0.6680   -0.5380 o         1 2P4     -0.700100
      3 C12         1.3520   -0.1740   -0.4010 c3        1 2P4     -0.090500
      4 C13         2.1010   -0.4580    0.9230 c3        1 2P4     -0.080400
      5 C14         3.0420    0.7250    1.1680 c3        1 2P4     -0.091200
      6 C15         2.7680    1.6790    0.0590 c2        1 2P4      0.037800
      7 C16         1.8320    1.1970   -0.8060 ce        1 2P4     -0.265400
      8 C1         -2.6590   -1.0770    1.8080 c3        1 2P4      0.134100
      9 O2         -1.8870   -1.5880    2.8810 oh        1 2P4     -0.604800
     10 C3         -2.6430    0.4550    1.8140 c3        1 2P4      0.096400
     11 O4         -3.2970    0.8360    3.0130 oh        1 2P4     -0.610800
     12 C5         -2.1160   -1.6580    0.4830 c3        1 2P4      0.106700
     13 C6         -2.3390   -3.1900    0.4550 c3        1 2P4     -0.085400
     14 C7         -0.9590   -3.8380    0.4230 c3        1 2P4     -0.085400
     15 C8          0.0590   -2.6870    0.4580 c3        1 2P4      0.086000
     16 N9         -0.6850   -1.4540    0.2530 n         1 2P4     -0.424800
     17 C17         1.4350    1.9600   -1.9750 c         1 2P4      0.583300
     18 O18         1.8950    3.0390   -2.3370 o         1 2P4     -0.453100
     19 N19         0.3420    1.3810   -2.8330 ny        1 2P4     -0.668800
     20 C20         0.2990    1.9520   -4.2160 c3        1 2P4      0.176100
     21 C21        -0.8020    1.3410   -5.0120 ca        1 2P4     -0.182300
     22 C22        -2.1200    1.7770   -4.8280 ca        1 2P4     -0.101500
     23 C23        -3.1450    1.2360   -5.6020 ca        1 2P4     -0.120000
     24 C24        -2.8570    0.2630   -6.5610 ca        1 2P4     -0.083000
     25 C25        -1.5440   -0.1700   -6.7470 ca        1 2P4     -0.120000
     26 C26        -0.5150    0.3650   -5.9730 ca        1 2P4     -0.101500
     27 H12         1.6670   -0.9220   -1.1830 hc        1 2P4      0.075700
     28 H13         1.3870   -0.5580    1.7790 hc        1 2P4      0.080200
     29 H13A        2.6740   -1.4150    0.8390 hc        1 2P4      0.080200
     30 H14         4.1180    0.4090    1.1540 hc        1 2P4      0.101200
     31 H14A        2.8470    1.2080    2.1620 hc        1 2P4      0.101200
     32 H15         3.2860    2.6440   -0.0210 ha        1 2P4      0.181000
     33 H1         -3.7280   -1.4270    1.9180 h1        1 2P4      0.064700
     34 HO2        -2.2380   -1.1810    3.6860 ho        1 2P4      0.432000
     35 H3         -3.1850    0.8550    0.9180 h1        1 2P4      0.040200
     36 H3A        -1.5900    0.8400    1.8120 h1        1 2P4      0.040200
     37 HO4        -3.3350    1.8000    3.0210 ho        1 2P4      0.416000
     38 H5         -2.6850   -1.1510   -0.3490 h1        1 2P4      0.074700
     39 H6         -2.9040   -3.5150    1.3630 hc        1 2P4      0.070700
     40 H6A        -2.9350   -3.4690   -0.4480 hc        1 2P4      0.070700
     41 H7         -0.8240   -4.4510   -0.5020 hc        1 2P4      0.067200
     42 H7A        -0.8090   -4.5050    1.3070 hc        1 2P4      0.067200
     43 H8          0.5710   -2.6510    1.4600 h1        1 2P4      0.054200
     44 H8A         0.8400   -2.8090   -0.3410 h1        1 2P4      0.054200
     45 HN19       -0.5600    1.5660   -2.3500 hn        1 2P4      0.471300
     46 H20         0.1550    3.0680   -4.1180 hx        1 2P4      0.112200
     47 H20A        1.3030    1.7690   -4.6950 hx        1 2P4      0.112200
     48 H22        -2.3470    2.5570   -4.0850 ha        1 2P4      0.139000
     49 H23        -4.1810    1.5830   -5.4620 ha        1 2P4      0.157000
     50 H24        -3.6680   -0.1580   -7.1780 ha        1 2P4      0.158000
     51 H25        -1.3160   -0.9310   -7.5110 ha        1 2P4      0.157000
     52 H26         0.5220    0.0310   -6.1340 ha        1 2P4      0.139000
     53 H192        0.4510    0.3630   -2.8750 hn        1 2P4      0.471300
@<TRIPOS>BOND
     1    1    2 2   
     2    1    3 1   
     3    1   16 1   
     4    3    4 1   
     5    3    7 1   
     6    3   27 1   
     7    4    5 1   
     8    4   28 1   
     9    4   29 1   
    10    5    6 1   
    11    5   30 1   
    12    5   31 1   
    13    6    7 2   
    14    6   32 1   
    15    7   17 1   
    16    8    9 1   
    17    8   10 1   
    18    8   12 1   
    19    8   33 1   
    20    9   34 1   
    21   10   11 1   
    22   10   35 1   
    23   10   36 1   
    24   11   37 1   
    25   12   13 1   
    26   12   16 1   
    27   12   38 1   
    28   13   14 1   
    29   13   39 1   
    30   13   40 1   
    31   14   15 1   
    32   14   41 1   
    33   14   42 1   
    34   15   16 1   
    35   15   43 1   
    36   15   44 1   
    37   17   18 2   
    38   17   19 1   
    39   19   20 1   
    40   19   45 1   
    41   19   53 1   
    42   20   21 1   
    43   20   46 1   
    44   20   47 1   
    45   21   22 ar  
    46   21   26 ar  
    47   22   23 ar  
    48   22   48 1   
    49   23   24 ar  
    50   23   49 1   
    51   24   25 ar  
    52   24   50 1   
    53   25   26 ar  
    54   25   51 1   
    55   26   52 1   
@<TRIPOS>SUBSTRUCTURE
     1 2P4         1 TEMP              0 ****  ****    0 ROOT
