@<TRIPOS>MOLECULE
2P4
   52    54     1     0     0
SMALL
bcc


@<TRIPOS>ATOM
      1 C10        -1.0190    0.1900    0.2880 c         1 2P4      0.664100
      2 O11        -0.5990    0.2310   -0.8880 o         1 2P4     -0.624100
      3 C12        -1.3710    1.4600    1.0510 c3        1 2P4     -0.087500
      4 C13        -2.8810    1.7620    0.9010 c3        1 2P4     -0.072400
      5 C14        -2.9850    3.1690    0.2990 c3        1 2P4     -0.062200
      6 C15        -1.5710    3.6210    0.1080 c2        1 2P4     -0.106200
      7 C16        -0.6890    2.6860    0.5050 ce        1 2P4     -0.174400
      8 C1         -2.0820   -2.8760   -0.6500 c3        1 2P4      0.139100
      9 O2         -3.2090   -3.2270    0.1260 oh        1 2P4     -0.583800
     10 C3         -2.4470   -1.9280   -1.7960 c3        1 2P4      0.095400
     11 O4         -3.0480   -2.7170   -2.8090 oh        1 2P4     -0.596800
     12 C5         -0.9380   -2.2870    0.2120 c3        1 2P4      0.054700
     13 C6         -0.5390   -3.3010    1.3070 c3        1 2P4     -0.087400
     14 C7         -0.8330   -2.6390    2.6470 c3        1 2P4     -0.089400
     15 C8         -1.2780   -1.2020    2.3330 c3        1 2P4      0.080000
     16 N9         -1.2940   -1.0350    0.8870 n         1 2P4     -0.457800
     17 C17         0.7890    2.8180    0.5280 c         1 2P4      0.671300
     18 O18         1.3770    3.3720    1.4800 o         1 2P4     -0.605100
     19 N19         1.4640    2.3530   -0.5860 n         1 2P4     -0.546900
     20 C20         2.9010    2.3020   -0.6320 c3        1 2P4      0.124300
     21 C21         3.4900    0.9290   -0.4630 ca        1 2P4     -0.117300
     22 C22         3.2250   -0.0720   -1.4030 ca        1 2P4     -0.115000
     23 C23         3.8000   -1.3340   -1.2650 ca        1 2P4     -0.134000
     24 C24         4.6430   -1.6030   -0.1860 ca        1 2P4     -0.128000
     25 C25         4.9070   -0.6080    0.7550 ca        1 2P4     -0.134000
     26 C26         4.3310    0.6540    0.6200 ca        1 2P4     -0.115000
     27 H12        -1.1000    1.3580    2.1370 hc        1 2P4      0.085700
     28 H13        -3.3730    1.0120    0.2340 hc        1 2P4      0.055200
     29 H13A       -3.3790    1.7170    1.8990 hc        1 2P4      0.055200
     30 H14        -3.5310    3.1540   -0.6770 hc        1 2P4      0.062700
     31 H14A       -3.5300    3.8640    0.9880 hc        1 2P4      0.062700
     32 H15        -1.3440    4.6090   -0.2980 ha        1 2P4      0.154000
     33 H1         -1.7300   -3.8600   -1.0770 h1        1 2P4      0.096700
     34 HO2        -3.6110   -2.4100    0.4450 ho        1 2P4      0.400000
     35 H3         -3.1660   -1.1420   -1.4390 h1        1 2P4      0.040700
     36 H3A        -1.5240   -1.4260   -2.1930 h1        1 2P4      0.040700
     37 HO4        -3.2600   -2.1170   -3.5330 ho        1 2P4      0.400000
     38 H5         -0.0670   -2.0990   -0.4830 h1        1 2P4      0.078700
     39 H6         -1.1280   -4.2450    1.1950 hc        1 2P4      0.063700
     40 H6A         0.5460   -3.5510    1.2130 hc        1 2P4      0.063700
     41 H7         -1.6440   -3.1830    3.1900 hc        1 2P4      0.056700
     42 H7A         0.0730   -2.6300    3.3000 hc        1 2P4      0.056700
     43 H8         -2.3140   -1.0100    2.7260 h1        1 2P4      0.047700
     44 H8A        -0.5760   -0.4710    2.8210 h1        1 2P4      0.047700
     45 HN19        0.9720    1.7410   -1.2020 hn        1 2P4      0.331500
     46 H20         3.2180    2.6960   -1.6430 h1        1 2P4      0.069200
     47 H20A        3.3140    2.9930    0.1590 h1        1 2P4      0.069200
     48 H22         2.5590    0.1390   -2.2540 ha        1 2P4      0.137500
     49 H23         3.5900   -2.1170   -2.0080 ha        1 2P4      0.131500
     50 H24         5.1000   -2.5970   -0.0800 ha        1 2P4      0.130000
     51 H25         5.5710   -0.8190    1.6060 ha        1 2P4      0.131500
     52 H26         4.5360    1.4350    1.3680 ha        1 2P4      0.137500
@<TRIPOS>BOND
     1    1    2 2   
     2    1    3 1   
     3    1   16 1   
     4    3    4 1   
     5    3    7 1   
     6    3   27 1   
     7    4    5 1   
     8    4   28 1   
     9    4   29 1   
    10    5    6 1   
    11    5   30 1   
    12    5   31 1   
    13    6    7 2   
    14    6   32 1   
    15    7   17 1   
    16    8    9 1   
    17    8   10 1   
    18    8   12 1   
    19    8   33 1   
    20    9   34 1   
    21   10   11 1   
    22   10   35 1   
    23   10   36 1   
    24   11   37 1   
    25   12   13 1   
    26   12   16 1   
    27   12   38 1   
    28   13   14 1   
    29   13   39 1   
    30   13   40 1   
    31   14   15 1   
    32   14   41 1   
    33   14   42 1   
    34   15   16 1   
    35   15   43 1   
    36   15   44 1   
    37   17   18 2   
    38   17   19 1   
    39   19   20 1   
    40   19   45 1   
    41   20   21 1   
    42   20   46 1   
    43   20   47 1   
    44   21   22 ar  
    45   21   26 ar  
    46   22   23 ar  
    47   22   48 1   
    48   23   24 ar  
    49   23   49 1   
    50   24   25 ar  
    51   24   50 1   
    52   25   26 ar  
    53   25   51 1   
    54   26   52 1   
@<TRIPOS>SUBSTRUCTURE
     1 2P4         1 TEMP              0 ****  ****    0 ROOT
