@<TRIPOS>MOLECULE
2P4
   53    55     1     0     0
SMALL
bcc


@<TRIPOS>ATOM
      1 C10        -0.1570   -0.3070   -0.2270 c         1 2P4      0.660100
      2 O11        -0.9110    0.6590   -0.5230 o         1 2P4     -0.700100
      3 C12         1.3540   -0.1950   -0.4170 c3        1 2P4     -0.090500
      4 C13         2.1140   -0.4980    0.8970 c3        1 2P4     -0.080400
      5 C14         3.0610    0.6780    1.1480 c3        1 2P4     -0.091200
      6 C15         2.7820    1.6470    0.0540 c2        1 2P4      0.037800
      7 C16         1.8370    1.1790   -0.8090 ce        1 2P4     -0.265400
      8 C1         -2.6420   -1.1080    1.8160 c3        1 2P4      0.134100
      9 O2         -1.8620   -1.6350    2.8760 oh        1 2P4     -0.604800
     10 C3         -2.6190    0.4240    1.8410 c3        1 2P4      0.096400
     11 O4         -3.2610    0.7930    3.0500 oh        1 2P4     -0.610800
     12 C5         -2.1130   -1.6750    0.4800 c3        1 2P4      0.106700
     13 C6         -2.3430   -3.2050    0.4340 c3        1 2P4     -0.085400
     14 C7         -0.9660   -3.8580    0.3820 c3        1 2P4     -0.085400
     15 C8          0.0580   -2.7120    0.4220 c3        1 2P4      0.086000
     16 N9         -0.6830   -1.4730    0.2390 n         1 2P4     -0.424800
     17 C17         1.4320    1.9580   -1.9650 c         1 2P4      0.583300
     18 O18         1.8940    3.0400   -2.3180 o         1 2P4     -0.453100
     19 N19         0.3300    1.3940   -2.8200 n4        1 2P4     -0.668800
     20 C20         0.2770    1.9820   -4.1970 c3        1 2P4      0.176100
     21 C21        -0.8340    1.3850   -4.9900 ca        1 2P4     -0.182300
     22 C22        -2.1480    1.8240   -4.7890 ca        1 2P4     -0.101500
     23 C23        -3.1820    1.2970   -5.5610 ca        1 2P4     -0.120000
     24 C24        -2.9060    0.3350   -6.5350 ca        1 2P4     -0.083000
     25 C25        -1.5960   -0.1010   -6.7370 ca        1 2P4     -0.120000
     26 C26        -0.5580    0.4200   -5.9650 ca        1 2P4     -0.101500
     27 H12         1.6590   -0.9340   -1.2100 hc        1 2P4      0.075700
     28 H13         2.6810   -1.4560    0.7960 hc        1 2P4      0.080200
     29 H13A        1.4060   -0.6060    1.7580 hc        1 2P4      0.080200
     30 H14         4.1360    0.3570    1.1210 hc        1 2P4      0.101200
     31 H14A        2.8770    1.1490    2.1490 hc        1 2P4      0.101200
     32 H15         3.3030    2.6100   -0.0200 ha        1 2P4      0.181000
     33 H1         -3.7110   -1.4540    1.9310 h1        1 2P4      0.064700
     34 HO2        -2.2040   -1.2370    3.6890 ho        1 2P4      0.432000
     35 H3         -3.1670    0.8380    0.9540 h1        1 2P4      0.040200
     36 H3A        -1.5640    0.8050    1.8340 h1        1 2P4      0.040200
     37 HO4        -3.2940    1.7560    3.0700 ho        1 2P4      0.416000
     38 H5         -2.6870   -1.1550   -0.3420 h1        1 2P4      0.074700
     39 H6         -2.9010   -3.5390    1.3440 hc        1 2P4      0.070700
     40 H6A        -2.9480   -3.4710   -0.4670 hc        1 2P4      0.070700
     41 H7         -0.8420   -4.4600   -0.5510 hc        1 2P4      0.067200
     42 H7A        -0.8110   -4.5380    1.2560 hc        1 2P4      0.067200
     43 H8          0.5790   -2.6910    1.4210 h1        1 2P4      0.054200
     44 H8A         0.8310   -2.8280   -0.3850 h1        1 2P4      0.054200
     45 HN19       -0.5680    1.5770   -2.3280 hn        1 2P4      0.471300
     46 H20         0.1380    3.0980   -4.0830 hx        1 2P4      0.112200
     47 H20A        1.2760    1.8010   -4.6870 hx        1 2P4      0.112200
     48 H22        -2.3660    2.5960   -4.0350 ha        1 2P4      0.139000
     49 H23        -4.2150    1.6460   -5.4070 ha        1 2P4      0.157000
     50 H24        -3.7240   -0.0750   -7.1490 ha        1 2P4      0.158000
     51 H25        -1.3780   -0.8530   -7.5120 ha        1 2P4      0.157000
     52 H26         0.4750    0.0850   -6.1400 ha        1 2P4      0.139000
     53 H192        0.4330    0.3770   -2.8770 hn        1 2P4      0.471300
@<TRIPOS>BOND
     1    1    2 2   
     2    1    3 1   
     3    1   16 1   
     4    3    4 1   
     5    3    7 1   
     6    3   27 1   
     7    4    5 1   
     8    4   28 1   
     9    4   29 1   
    10    5    6 1   
    11    5   30 1   
    12    5   31 1   
    13    6    7 2   
    14    6   32 1   
    15    7   17 1   
    16    8    9 1   
    17    8   10 1   
    18    8   12 1   
    19    8   33 1   
    20    9   34 1   
    21   10   11 1   
    22   10   35 1   
    23   10   36 1   
    24   11   37 1   
    25   12   13 1   
    26   12   16 1   
    27   12   38 1   
    28   13   14 1   
    29   13   39 1   
    30   13   40 1   
    31   14   15 1   
    32   14   41 1   
    33   14   42 1   
    34   15   16 1   
    35   15   43 1   
    36   15   44 1   
    37   17   18 2   
    38   17   19 1   
    39   19   20 1   
    40   19   45 1   
    41   19   53 1   
    42   20   21 1   
    43   20   46 1   
    44   20   47 1   
    45   21   22 ar  
    46   21   26 ar  
    47   22   23 ar  
    48   22   48 1   
    49   23   24 ar  
    50   23   49 1   
    51   24   25 ar  
    52   24   50 1   
    53   25   26 ar  
    54   25   51 1   
    55   26   52 1   
@<TRIPOS>SUBSTRUCTURE
     1 2P4         1 TEMP              0 ****  ****    0 ROOT
