@<TRIPOS>MOLECULE
2P4
   52    51     1     0     0
SMALL
bcc


@<TRIPOS>ATOM
      1 C10        -0.9140    0.9210    0.4650 c1        1 2P4      0.329000
      2 O11        -1.4330    1.9070    0.0690 o         1 2P4     -0.410000
      3 C12         0.5270    0.9430    0.8560 c3        1 2P4     -0.081000
      4 C13         0.6600    1.1720    2.3910 c3        1 2P4     -0.155000
      5 C14         1.7290    2.5030    2.5510 c3        1 2P4     -0.144000
      6 C15         1.6110    3.0390    1.3890 c2        1 2P4     -0.103000
      7 C16         1.1570    2.1420    0.3650 c2        1 2P4     -0.148000
      8 C1         -3.6610    0.9820    0.9470 c3        1 2P4     -0.004000
      9 O2         -3.4380    1.8820   -0.1140 oh        1 2P4     -0.355000
     10 C3         -5.1110    0.7790    1.1140 c3        1 2P4     -0.008000
     11 O4         -5.7460    2.0550    1.3620 oh        1 2P4     -0.329000
     12 C5         -2.9740   -0.3670    0.6250 c3        1 2P4      0.004000
     13 C6         -3.4000   -1.4800    1.6830 c3        1 2P4     -0.167000
     14 C7         -2.1020   -2.1130    2.1400 c3        1 2P4     -0.169000
     15 C8         -1.1910   -1.6730    1.2920 c3        1 2P4     -0.025000
     16 N9         -1.7210   -0.2570    0.7530 n2        1 2P4     -0.333000
     17 C17         1.8620    2.1380   -1.0690 c2        1 2P4      0.346000
     18 O18         2.4020    3.1680   -1.4920 o         1 2P4     -0.371000
     19 N19         2.0570    0.9010   -1.7600 n         1 2P4     -0.351000
     20 C20         3.3100    0.6620   -2.4840 c3        1 2P4      0.005000
     21 C21         3.4660   -0.8600   -2.7720 c2        1 2P4     -0.115000
     22 C22         3.6230   -1.7580   -1.7160 c2        1 2P4     -0.114000
     23 C23         3.8220   -3.1030   -1.9760 c1        1 2P4     -0.136000
     24 C24         3.8660   -3.5610   -3.2950 c1        1 2P4     -0.130500
     25 C25         3.7100   -2.6650   -4.3500 c1        1 2P4     -0.130500
     26 C26         3.5110   -1.3220   -4.0930 c1        1 2P4     -0.116000
     27 H12         0.8230    0.1180    0.5080 hc        1 2P4      0.126000
     28 H13        -0.1980    1.3790    2.7780 hc        1 2P4      0.094000
     29 H13A        1.0270    0.4130    2.8000 hc        1 2P4      0.094000
     30 H14         2.6750    2.2110    2.7960 hc        1 2P4      0.102500
     31 H14A        1.5020    3.1190    3.2780 hc        1 2P4      0.102500
     32 H15         2.1200    3.9230    1.1370 ha        1 2P4      0.154000
     33 H1         -3.2810    1.3570    1.7880 h1        1 2P4      0.099000
     34 HO2        -3.7860    2.6770    0.0900 ho        1 2P4      0.241000
     35 H3         -5.2810    0.1490    1.9140 h1        1 2P4      0.085500
     36 H3A        -5.4820    0.3810    0.3000 h1        1 2P4      0.085500
     37 HO4        -6.6490    1.9460    1.3950 ho        1 2P4      0.221000
     38 H5         -3.1980   -0.6540   -0.2800 h1        1 2P4      0.111000
     39 H6         -3.8650   -1.0750    2.4350 hc        1 2P4      0.098500
     40 H6A        -3.9930   -2.1790    1.2370 hc        1 2P4      0.098500
     41 H7         -2.1650   -3.0700    2.0950 hc        1 2P4      0.096000
     42 H7A        -1.8700   -1.8130    3.1010 hc        1 2P4      0.096000
     43 H8         -0.3190   -1.5570    1.7610 h1        1 2P4      0.085000
     44 H8A        -1.0930   -2.3030    0.5480 h1        1 2P4      0.085000
     45 HN19        1.3610    0.2320   -1.7620 hn        1 2P4      0.247000
     46 H20         4.0750    0.9740   -1.9320 h1        1 2P4      0.106000
     47 H20A        3.2970    1.1510   -3.3230 h1        1 2P4      0.106000
     48 H22         3.5900   -1.4290   -0.7660 ha        1 2P4      0.154000
     49 H23         3.9380   -3.7730   -1.1890 ha        1 2P4      0.130000
     50 H24         4.0070   -4.5090   -3.4770 ha        1 2P4      0.130000
     51 H25         3.7410   -2.9950   -5.2950 ha        1 2P4      0.130000
     52 H26         3.4050   -0.7090   -4.8160 ha        1 2P4      0.131000
@<TRIPOS>BOND
     1    1    2 1   
     2    1    3 1   
     3    3    4 1   
     4    3    7 1   
     5    3   27 1   
     6    4    5 1   
     7    4   28 1   
     8    4   29 1   
     9    5    6 1   
    10    5   30 1   
    11    5   31 1   
    12    6    7 1   
    13    6   32 1   
    14    7   17 1   
    15    8    9 1   
    16    8   10 1   
    17    8   12 1   
    18    8   33 1   
    19    9   34 1   
    20   10   11 1   
    21   10   35 1   
    22   10   36 1   
    23   11   37 1   
    24   12   13 1   
    25   12   16 1   
    26   12   38 1   
    27   13   14 1   
    28   13   39 1   
    29   13   40 1   
    30   14   15 1   
    31   14   41 1   
    32   14   42 1   
    33   15   16 1   
    34   15   43 1   
    35   15   44 1   
    36   17   18 1   
    37   17   19 1   
    38   19   20 1   
    39   19   45 1   
    40   20   21 1   
    41   20   46 1   
    42   20   47 1   
    43   21   22 1   
    44   21   26 1   
    45   22   23 1   
    46   22   48 1   
    47   23   49 1   
    48   24   25 1   
    49   24   50 1   
    50   25   51 1   
    51   26   52 1   
@<TRIPOS>SUBSTRUCTURE
     1 2P4         1 TEMP              0 ****  ****    0 ROOT
