@<TRIPOS>MOLECULE
2P5
   79    84     1     0     0
SMALL
bcc


@<TRIPOS>ATOM
      1 C16         0.3120    1.5370   -0.1520 ca        1 2P5     -0.115000
      2 C17         1.6660    1.2300   -0.0810 ca        1 2P5     -0.117000
      3 C20        -2.4690    0.7100    5.6910 ca        1 2P5     -0.090500
      4 C24        -3.9060   -0.8970    4.5990 ca        1 2P5     -0.090500
      5 C8          3.2520   -4.4230   -1.4780 ca        1 2P5     -0.078500
      6 C10         4.7640   -4.1190   -3.3400 ca        1 2P5     -0.078500
      7 C21        -3.1030    0.4470    6.9060 ca        1 2P5     -0.137500
      8 C23        -4.5300   -1.1590    5.8150 ca        1 2P5     -0.137500
      9 C15        -0.5310    1.2750    0.9230 ca        1 2P5     -0.135000
     10 C7          3.9770   -3.5050   -0.7250 ca        1 2P5     -0.149000
     11 C11         5.4940   -3.1960   -2.6000 ca        1 2P5     -0.149000
     12 C5          7.9010    0.8200    2.2320 cc        1 2P5      0.437700
     13 C12         2.1760    0.6380    1.0770 cp        1 2P5     -0.105500
     14 C9          3.6440   -4.7400   -2.7810 ca        1 2P5     -0.145600
     15 C19        -2.8630    0.0340    4.5350 ca        1 2P5     -0.152600
     16 C22        -4.1370   -0.4920    6.9870 ca        1 2P5     -0.040300
     17 C13         1.3530    0.3250    2.1640 ca        1 2P5     -0.086300
     18 C3          6.2840   -0.2000    1.0760 ca        1 2P5     -0.353800
     19 C6          5.1140   -2.8770   -1.2760 ca        1 2P5      0.141600
     20 C14        -0.0270    0.6750    2.0960 ca        1 2P5      0.060600
     21 C2          5.7320    0.8790    1.8990 ca        1 2P5      0.568300
     22 C4          5.3930   -0.9620    0.2640 ca        1 2P5      0.670200
     23 C1          3.6450    0.3580    1.1170 cp        1 2P5      0.708500
     24 C27         1.9890   -7.9470   -4.0420 c3        1 2P5      0.055500
     25 C30         3.5130   -7.6050   -2.1820 c3        1 2P5      0.055500
     26 C28         1.0820   -8.7620   -3.1080 c3        1 2P5      0.105400
     27 C29         2.5630   -8.4230   -1.2930 c3        1 2P5      0.105400
     28 C26         1.8960   -0.3570    3.3640 c3        1 2P5     -0.054800
     29 C32        -6.3270   -0.4850    8.1360 c3        1 2P5     -0.087100
     30 C33        -4.6740   -2.2890    8.6010 c3        1 2P5     -0.087100
     31 C34        -4.2920   -0.0010    9.4520 c3        1 2P5     -0.087100
     32 C31        -4.8410   -0.8060    8.2800 c3        1 2P5     -0.014700
     33 N4          7.6620   -0.1970    1.2910 na        1 2P5     -0.263300
     34 N2          4.4000    1.1610    1.9140 nb        1 2P5     -0.634000
     35 N1          4.0690   -0.6670    0.2950 nb        1 2P5     -0.717000
     36 N3          6.8010    1.4940    2.6050 nd        1 2P5     -0.622700
     37 N7          2.8500   -7.0290   -3.3260 n         1 2P5     -0.471800
     38 N6         -0.8500    0.4460    3.2130 n         1 2P5     -0.472100
     39 O2          2.1930   -5.2540   -4.6020 o         1 2P5     -0.592100
     40 O1         -2.9160    0.3580    2.1690 o         1 2P5     -0.585100
     41 O3          1.8170   -9.3680   -2.0500 os        1 2P5     -0.411600
     42 H1         -0.1010    1.9960   -1.0630 ha        1 2P5      0.139000
     43 H2          2.3320    1.4470   -0.9290 ha        1 2P5      0.141000
     44 H3         -1.6710    1.4680    5.6550 ha        1 2P5      0.145500
     45 H4         -4.2320   -1.4090    3.6800 ha        1 2P5      0.145500
     46 H5          2.3580   -4.8940   -1.0420 ha        1 2P5      0.146000
     47 H6          5.0590   -4.3490   -4.3750 ha        1 2P5      0.146000
     48 H7         -2.7730    1.0000    7.7980 ha        1 2P5      0.139500
     49 H8         -5.3470   -1.8950    5.8510 ha        1 2P5      0.139500
     50 H9         -1.6010    1.5330    0.8450 ha        1 2P5      0.169000
     51 H10         3.6470   -3.2730    0.2990 ha        1 2P5      0.145500
     52 H11         6.3690   -2.7150   -3.0630 ha        1 2P5      0.145500
     53 H12         8.9150    1.0380    2.5950 h5        1 2P5      0.076800
     54 H13         2.6460   -8.6580   -4.6200 h1        1 2P5      0.067200
     55 H14         1.3480   -7.3780   -4.7720 h1        1 2P5      0.067200
     56 H15         4.3230   -8.2940   -2.5630 h1        1 2P5      0.067200
     57 H16         3.9970   -6.8060   -1.5560 h1        1 2P5      0.067200
     58 H17         0.2700   -8.1190   -2.6790 h1        1 2P5      0.055950
     59 H18         0.6350   -9.6260   -3.6660 h1        1 2P5      0.055950
     60 H19         1.8600   -7.7480   -0.7360 h1        1 2P5      0.055950
     61 H20         3.1530   -9.0460   -0.5710 h1        1 2P5      0.055950
     62 H21         2.9240   -0.7550    3.1830 hc        1 2P5      0.046700
     63 H22         1.2540   -1.2280    3.6540 hc        1 2P5      0.046700
     64 H23         1.9500    0.3540    4.2270 hc        1 2P5      0.046700
     65 H24        -6.8570   -0.7090    9.0930 hc        1 2P5      0.038700
     66 H25        -6.4680    0.5950    7.8930 hc        1 2P5      0.038700
     67 H26        -6.7860   -1.0980    7.3240 hc        1 2P5      0.038700
     68 H27        -3.5920   -2.5420    8.7050 hc        1 2P5      0.038700
     69 H28        -5.1920   -2.5300    9.5600 hc        1 2P5      0.038700
     70 H29        -5.1130   -2.9200    7.7920 hc        1 2P5      0.038700
     71 H30        -4.8430   -0.2730   10.3850 hc        1 2P5      0.038700
     72 H31        -4.4230    1.0930    9.2740 hc        1 2P5      0.038700
     73 H32        -3.2080   -0.2200    9.6070 hc        1 2P5      0.038700
     74 H33         8.2890   -0.9030    1.0110 hn        1 2P5      0.311700
     75 H35         6.7640   -1.7350   -0.9870 hn        1 2P5      0.411800
     76 H36        -0.3810    0.2890    4.0770 hn        1 2P5      0.321500
     77 N5          5.9340   -2.0210   -0.5020 nh        1 2P5     -0.712300
     78 C25         2.8370   -5.6730   -3.6200 c         1 2P5      0.676700
     79 C18        -2.2320    0.2950    3.2070 c         1 2P5      0.680700
@<TRIPOS>BOND
     1    1    2 ar  
     2    1    9 ar  
     3    1   42 1   
     4    2   13 ar  
     5    2   43 1   
     6    3    7 ar  
     7    3   15 ar  
     8    3   44 1   
     9    4    8 ar  
    10    4   15 ar  
    11    4   45 1   
    12    5   10 ar  
    13    5   14 ar  
    14    5   46 1   
    15    6   11 ar  
    16    6   14 ar  
    17    6   47 1   
    18    7   16 ar  
    19    7   48 1   
    20    8   16 ar  
    21    8   49 1   
    22    9   20 ar  
    23    9   50 1   
    24   10   19 ar  
    25   10   51 1   
    26   11   19 ar  
    27   11   52 1   
    28   12   33 1   
    29   12   36 2   
    30   12   53 1   
    31   13   17 ar  
    32   13   23 1   
    33   14   78 1   
    34   15   79 1   
    35   16   32 1   
    36   17   20 ar  
    37   17   28 1   
    38   18   21 ar  
    39   18   22 ar  
    40   18   33 1   
    41   19   77 1   
    42   20   38 1   
    43   21   34 ar  
    44   21   36 1   
    45   22   35 ar  
    46   22   77 1   
    47   23   34 ar  
    48   23   35 ar  
    49   24   26 1   
    50   24   37 1   
    51   24   54 1   
    52   24   55 1   
    53   25   27 1   
    54   25   37 1   
    55   25   56 1   
    56   25   57 1   
    57   26   41 1   
    58   26   58 1   
    59   26   59 1   
    60   27   41 1   
    61   27   60 1   
    62   27   61 1   
    63   28   62 1   
    64   28   63 1   
    65   28   64 1   
    66   29   32 1   
    67   29   65 1   
    68   29   66 1   
    69   29   67 1   
    70   30   32 1   
    71   30   68 1   
    72   30   69 1   
    73   30   70 1   
    74   31   32 1   
    75   31   71 1   
    76   31   72 1   
    77   31   73 1   
    78   33   74 1   
    79   37   78 1   
    80   38   76 1   
    81   38   79 1   
    82   39   78 2   
    83   40   79 2   
    84   75   77 1   
@<TRIPOS>SUBSTRUCTURE
     1 2P5         1 TEMP              0 ****  ****    0 ROOT
