@<TRIPOS>MOLECULE
2P5
   79    85     1     0     0
SMALL
bcc


@<TRIPOS>ATOM
      1 C16         0.9070    2.0580    0.7350 ca        1 2P5     -0.137000
      2 C17         2.2840    1.9500    0.5620 ca        1 2P5     -0.092000
      3 C20        -1.6880   -0.8630    5.9940 ca        1 2P5     -0.097000
      4 C24        -2.9890   -1.3290    4.0130 ca        1 2P5     -0.097000
      5 C8          4.1320   -3.0770   -2.2460 ca        1 2P5     -0.072000
      6 C10         5.4670   -4.7570   -1.1340 ca        1 2P5     -0.072000
      7 C21        -2.8360   -0.9880    6.7700 ca        1 2P5     -0.135000
      8 C23        -4.1360   -1.4510    4.7950 ca        1 2P5     -0.135000
      9 C15         0.2860    1.4340    1.8120 ca        1 2P5     -0.109000
     10 C7          4.8740   -2.0700   -1.6380 ca        1 2P5     -0.156000
     11 C11         6.2170   -3.7610   -0.5200 ca        1 2P5     -0.156000
     12 C5          8.7550    2.3310    1.0290 cc        1 2P5      0.437700
     13 C12         3.0400    1.2150    1.4780 cp        1 2P5     -0.124500
     14 C9          4.4290   -4.4220   -2.0090 ca        1 2P5     -0.155600
     15 C19        -1.7580   -1.0340    4.6070 ca        1 2P5     -0.096300
     16 C22        -4.0770   -1.2830    6.1840 ca        1 2P5     -0.048300
     17 C13         2.4480    0.5950    2.5870 ca        1 2P5     -0.008300
     18 C3          7.1360    0.8330    0.6810 ca        1 2P5     -0.342800
     19 C6          5.9350   -2.3970   -0.7670 ca        1 2P5      0.147600
     20 C14         1.0450    0.7050    2.7480 ca        1 2P5      0.003600
     21 C2          6.5930    2.0520    1.2860 ca        1 2P5      0.565300
     22 C4          6.2420   -0.2380    0.3850 ca        1 2P5      0.661200
     23 C1          4.5100    1.1050    1.2290 cp        1 2P5      0.703500
     24 C27         2.5230   -6.5490   -4.5510 c3        1 2P5      0.048000
     25 C30         4.1240   -4.7650   -4.9180 c3        1 2P5      0.048000
     26 C28         3.3110   -7.4230   -5.5360 c3        1 2P5      0.101900
     27 C29         4.8750   -5.6840   -5.8960 c3        1 2P5      0.101900
     28 C26         3.2590   -0.1510    3.5780 c3        1 2P5     -0.059800
     29 C32        -5.5190   -0.0920    7.8030 c3        1 2P5     -0.086100
     30 C33        -6.5540   -1.7310    6.2690 c3        1 2P5     -0.086100
     31 C34        -5.0710   -2.5260    8.0780 c3        1 2P5     -0.086100
     32 C31        -5.2930   -1.4080    7.0630 c3        1 2P5     -0.012700
     33 N4          8.5090    1.0310    0.5510 na        1 2P5     -0.262300
     34 N2          5.2660    2.1860    1.5620 nb        1 2P5     -0.625000
     35 N1          4.9260   -0.0850    0.6680 nb        1 2P5     -0.711000
     36 N3          7.6630    2.9640    1.4890 nd        1 2P5     -0.619700
     37 N7          3.3130   -5.4850   -3.9630 n         1 2P5     -0.458800
     38 N6          0.3720    0.2090    3.9250 nh        1 2P5     -0.293500
     39 O2          3.1530   -6.4270   -1.8780 o         1 2P5     -0.594100
     40 O1          0.7370   -1.0410    4.3490 os        1 2P5     -0.227100
     41 O3          4.0080   -6.6360   -6.4980 os        1 2P5     -0.411600
     42 H1          0.3060    2.6380    0.0190 ha        1 2P5      0.138000
     43 H2          2.7760    2.4430   -0.2890 ha        1 2P5      0.142000
     44 H3         -0.7190   -0.6300    6.4630 ha        1 2P5      0.142000
     45 H4         -3.0570   -1.4670    2.9230 ha        1 2P5      0.142000
     46 H5          3.2990   -2.8070   -2.9150 ha        1 2P5      0.149500
     47 H6          5.6760   -5.8170   -0.9190 ha        1 2P5      0.149500
     48 H7         -2.7640   -0.8520    7.8600 ha        1 2P5      0.136000
     49 H8         -5.0880   -1.6840    4.2960 ha        1 2P5      0.136000
     50 H9         -0.8040    1.5250    1.9350 ha        1 2P5      0.141000
     51 H10         4.6180   -1.0180   -1.8380 ha        1 2P5      0.144500
     52 H11         7.0270   -4.0500    0.1670 ha        1 2P5      0.144500
     53 H12         9.7680    2.7570    1.0360 h5        1 2P5      0.077800
     54 H13         1.6710   -6.0610   -5.1050 h1        1 2P5      0.068950
     55 H14         2.0980   -7.2050   -3.7400 h1        1 2P5      0.068950
     56 H15         4.8770   -4.1150   -4.3930 h1        1 2P5      0.068950
     57 H16         3.4330   -4.1010   -5.5120 h1        1 2P5      0.068950
     58 H17         2.6070   -8.0470   -6.1460 h1        1 2P5      0.056200
     59 H18         4.0390   -8.0820   -4.9940 h1        1 2P5      0.056200
     60 H19         5.2720   -5.0840   -6.7560 h1        1 2P5      0.056200
     61 H20         5.7150   -6.2160   -5.3770 h1        1 2P5      0.056200
     62 H21         4.3530    0.0090    3.4250 hc        1 2P5      0.057033
     63 H22         3.0430   -1.2470    3.4980 hc        1 2P5      0.057033
     64 H23         3.0050    0.1760    4.6190 hc        1 2P5      0.057033
     65 H24        -4.6400    0.1560    8.4430 hc        1 2P5      0.037811
     66 H25        -6.4220   -0.1740    8.4550 hc        1 2P5      0.037811
     67 H26        -5.6780    0.7380    7.0750 hc        1 2P5      0.037811
     68 H27        -6.4430   -2.7020    5.7310 hc        1 2P5      0.037811
     69 H28        -6.7710   -0.9240    5.5290 hc        1 2P5      0.037811
     70 H29        -7.4240   -1.8130    6.9650 hc        1 2P5      0.037811
     71 H30        -4.1860   -2.3040    8.7220 hc        1 2P5      0.037811
     72 H31        -5.9690   -2.6280    8.7330 hc        1 2P5      0.037811
     73 H32        -4.8970   -3.4960    7.5540 hc        1 2P5      0.037811
     74 H33         9.1280    0.4590    0.0410 hn        1 2P5      0.314700
     75 H35         7.5370   -1.7740    0.3110 hn        1 2P5      0.411800
     76 H36        -0.6530   -1.4020    2.7560 h2        1 2P5      0.101700
     77 N5          6.7790   -1.3980   -0.2290 nu        1 2P5     -0.712300
     78 C25         3.6140   -5.5200   -2.6010 c         1 2P5      0.669700
     79 C18        -0.5580   -0.9140    3.7550 cx        1 2P5      0.307600
@<TRIPOS>BOND
     1    1    2 ar  
     2    1    9 ar  
     3    1   42 1   
     4    2   13 ar  
     5    2   43 1   
     6    3    7 ar  
     7    3   15 ar  
     8    3   44 1   
     9    4    8 ar  
    10    4   15 ar  
    11    4   45 1   
    12    5   10 ar  
    13    5   14 ar  
    14    5   46 1   
    15    6   11 ar  
    16    6   14 ar  
    17    6   47 1   
    18    7   16 ar  
    19    7   48 1   
    20    8   16 ar  
    21    8   49 1   
    22    9   20 ar  
    23    9   50 1   
    24   10   19 ar  
    25   10   51 1   
    26   11   19 ar  
    27   11   52 1   
    28   12   33 1   
    29   12   36 2   
    30   12   53 1   
    31   13   17 ar  
    32   13   23 1   
    33   14   78 1   
    34   15   79 1   
    35   16   32 1   
    36   17   20 ar  
    37   17   28 1   
    38   18   21 ar  
    39   18   22 ar  
    40   18   33 1   
    41   19   77 1   
    42   20   38 1   
    43   21   34 ar  
    44   21   36 1   
    45   22   35 ar  
    46   22   77 1   
    47   23   34 ar  
    48   23   35 ar  
    49   24   26 1   
    50   24   37 1   
    51   24   54 1   
    52   24   55 1   
    53   25   27 1   
    54   25   37 1   
    55   25   56 1   
    56   25   57 1   
    57   26   41 1   
    58   26   58 1   
    59   26   59 1   
    60   27   41 1   
    61   27   60 1   
    62   27   61 1   
    63   28   62 1   
    64   28   63 1   
    65   28   64 1   
    66   29   32 1   
    67   29   65 1   
    68   29   66 1   
    69   29   67 1   
    70   30   32 1   
    71   30   68 1   
    72   30   69 1   
    73   30   70 1   
    74   31   32 1   
    75   31   71 1   
    76   31   72 1   
    77   31   73 1   
    78   33   74 1   
    79   37   78 1   
    80   38   40 1   
    81   38   79 1   
    82   39   78 2   
    83   40   79 1   
    84   75   77 1   
    85   76   79 1   
@<TRIPOS>SUBSTRUCTURE
     1 2P5         1 TEMP              0 ****  ****    0 ROOT
