@<TRIPOS>MOLECULE
2P5
   81    86     1     0     0
SMALL
bcc


@<TRIPOS>ATOM
      1 C16        -1.4760   -0.6990    1.8390 ca        1 2P5     -0.109000
      2 C17        -0.2500   -0.9950    1.2440 ca        1 2P5     -0.043000
      3 C20        -3.0340    0.5790    6.4620 ca        1 2P5     -0.059500
      4 C24        -1.9020   -0.6140    8.2450 ca        1 2P5     -0.059500
      5 C8          3.6500   -4.4580   -3.8450 ca        1 2P5     -0.071000
      6 C10         5.9570   -4.8060   -3.1800 ca        1 2P5     -0.071000
      7 C21        -4.1860    0.6280    7.2350 ca        1 2P5     -0.132500
      8 C23        -3.0600   -0.5550    9.0100 ca        1 2P5     -0.132500
      9 C15        -1.5160   -0.1050    3.0950 ca        1 2P5     -0.080000
     10 C7          3.3080   -4.1480   -2.5290 ca        1 2P5     -0.117500
     11 C11         5.6380   -4.4920   -1.8630 ca        1 2P5     -0.117500
     12 C5          6.0140    0.0170   -0.8890 cc        1 2P5      0.503700
     13 C12         0.9420   -0.7100    1.9160 cp        1 2P5     -0.130500
     14 C9          4.9670   -4.7920   -4.1730 ca        1 2P5     -0.064600
     15 C19        -1.8730   -0.0350    6.9590 ca        1 2P5     -0.225600
     16 C22        -4.2210    0.0690    8.5240 ca        1 2P5      0.042700
     17 C13         0.9400   -0.1510    3.2050 ca        1 2P5      0.019700
     18 C3          4.5020   -1.4910   -0.2110 ca        1 2P5     -0.264800
     19 C6          4.3040   -4.1740   -1.5390 ca        1 2P5     -0.062400
     20 C14        -0.3150    0.1770    3.7730 ca        1 2P5     -0.051400
     21 C2          4.1140   -0.1080    0.2090 ca        1 2P5      0.596300
     22 C4          3.6360   -2.5250    0.1710 ca        1 2P5      0.494200
     23 C1          2.2250   -0.9690    1.1950 cp        1 2P5      0.701500
     24 C27         5.2320   -5.0760   -7.9870 c3        1 2P5      0.042500
     25 C30         4.5650   -3.1740   -6.6190 c3        1 2P5      0.042500
     26 C28         6.1560   -4.1400   -8.7770 c3        1 2P5      0.101900
     27 C29         5.5180   -2.2940   -7.4470 c3        1 2P5      0.101900
     28 C26         2.2010    0.0880    3.9470 c3        1 2P5     -0.098800
     29 C31        -5.4530    0.1150    9.3890 c3        1 2P5     -0.030700
     30 N4          5.7030   -1.3650   -0.8870 na        1 2P5     -0.275300
     31 N2          2.9880    0.1350    0.9030 nb        1 2P5     -0.577000
     32 N1          2.4930   -2.2680    0.8640 nb        1 2P5     -0.673000
     33 N3          5.1200    0.7840   -0.2520 nd        1 2P5     -0.582700
     34 N7          4.9080   -4.5790   -6.6570 n         1 2P5     -0.443800
     35 N6         -0.3880    0.8410    5.0770 n4        1 2P5     -0.552200
     36 O2          5.9630   -6.3540   -5.6320 o         1 2P5     -0.555100
     37 O1          0.3410   -0.8710    6.4640 o         1 2P5     -0.441100
     38 O3          5.6760   -2.7990   -8.7630 os        1 2P5     -0.390600
     39 H1         -2.4170   -0.9280    1.3110 ha        1 2P5      0.179000
     40 H2         -0.2270   -1.4460    0.2370 ha        1 2P5      0.165000
     41 H3         -3.0750    1.0130    5.4510 ha        1 2P5      0.143500
     42 H4         -1.0010   -1.1140    8.6400 ha        1 2P5      0.143500
     43 H5          2.8670   -4.4580   -4.6250 ha        1 2P5      0.191000
     44 H6          6.9880   -5.1060   -3.4450 ha        1 2P5      0.191000
     45 H7         -5.0830    1.1160    6.8160 ha        1 2P5      0.172000
     46 H8         -3.0620   -1.0100   10.0160 ha        1 2P5      0.172000
     47 H9         -2.4960    0.1400    3.5420 ha        1 2P5      0.161000
     48 H10         2.2610   -3.9020   -2.2860 ha        1 2P5      0.162500
     49 H11         6.4250   -4.5430   -1.0920 ha        1 2P5      0.162500
     50 H12         6.9330    0.3970   -1.3720 h5        1 2P5      0.117800
     51 H14         5.7130   -6.0920   -7.9130 h1        1 2P5      0.072700
     52 H15         3.5250   -3.0740   -7.0470 h1        1 2P5      0.072700
     53 H16         4.5530   -2.7940   -5.5620 h1        1 2P5      0.072700
     54 H17         7.2020   -4.1720   -8.3750 h1        1 2P5      0.067450
     55 H18         6.1510   -4.4230   -9.8640 h1        1 2P5      0.067450
     56 H19         6.5180   -2.2120   -6.9460 h1        1 2P5      0.067450
     57 H20         5.0700   -1.2740   -7.5880 h1        1 2P5      0.067450
     58 H21         2.4810    1.1720    3.9010 hc        1 2P5      0.077033
     59 H22         3.0480   -0.5000    3.5160 hc        1 2P5      0.077033
     60 H23         2.1120   -0.2300    5.0190 hc        1 2P5      0.077033
     61 H33         6.1800   -2.0790   -1.3810 hn        1 2P5      0.333700
     62 H36         0.5010    1.3330    5.2460 hn        1 2P5      0.463800
     63 C18        -0.6140   -0.1390    6.2380 c         1 2P5      0.589700
     64 H62        -1.1430    1.5350    5.0560 hn        1 2P5      0.463800
     65 N5          3.9410   -3.9420   -0.1350 n4        1 2P5     -0.613100
     66 C25         5.3410   -5.2780   -5.5460 c         1 2P5      0.646700
     67 C32        -5.8880   -1.3120    9.7140 c3        1 2P5     -0.093767
     68 C33        -5.1250    0.8530   10.6850 c3        1 2P5     -0.093767
     69 C34        -6.6140    0.8290    8.7100 c3        1 2P5     -0.093767
     70 H13         4.2540   -5.1770   -8.5400 h1        1 2P5      0.072700
     71 H24        -6.8030   -1.2850   10.3550 hc        1 2P5      0.050478
     72 H25        -5.0870   -1.8570   10.2670 hc        1 2P5      0.050478
     73 H26        -6.1270   -1.8710    8.7780 hc        1 2P5      0.050478
     74 H27        -6.0350    0.8900   11.3330 hc        1 2P5      0.050478
     75 H28        -4.8010    1.8990   10.4680 hc        1 2P5      0.050478
     76 H29        -4.3140    0.3310   11.2470 hc        1 2P5      0.050478
     77 H30        -7.4970    0.8380    9.3960 hc        1 2P5      0.050478
     78 H31        -6.9100    0.3030    7.7700 hc        1 2P5      0.050478
     79 H32        -6.3480    1.8870    8.4750 hc        1 2P5      0.050478
     80 H35         4.7210   -4.2330    0.4730 hn        1 2P5      0.476800
     81 H52         3.1190   -4.5310    0.0860 hn        1 2P5      0.476800
@<TRIPOS>BOND
     1    1    2 ar  
     2    1    9 ar  
     3    1   39 1   
     4    2   13 ar  
     5    2   40 1   
     6    3    7 ar  
     7    3   15 ar  
     8    3   41 1   
     9    4    8 ar  
    10    4   15 ar  
    11    4   42 1   
    12    5   10 ar  
    13    5   14 ar  
    14    5   43 1   
    15    6   11 ar  
    16    6   14 ar  
    17    6   44 1   
    18    7   16 ar  
    19    7   45 1   
    20    8   16 ar  
    21    8   46 1   
    22    9   20 ar  
    23    9   47 1   
    24   10   19 ar  
    25   10   48 1   
    26   11   19 ar  
    27   11   49 1   
    28   12   30 1   
    29   12   33 2   
    30   12   50 1   
    31   13   17 ar  
    32   13   23 1   
    33   14   66 1   
    34   15   63 1   
    35   16   29 1   
    36   17   20 ar  
    37   17   28 1   
    38   18   21 ar  
    39   18   22 ar  
    40   18   30 1   
    41   19   65 1   
    42   20   35 1   
    43   21   31 ar  
    44   21   33 1   
    45   22   32 ar  
    46   22   65 1   
    47   23   31 ar  
    48   23   32 ar  
    49   24   26 1   
    50   24   34 1   
    51   24   51 1   
    52   24   70 1   
    53   25   27 1   
    54   25   34 1   
    55   25   52 1   
    56   25   53 1   
    57   26   38 1   
    58   26   54 1   
    59   26   55 1   
    60   27   38 1   
    61   27   56 1   
    62   27   57 1   
    63   28   58 1   
    64   28   59 1   
    65   28   60 1   
    66   29   67 1   
    67   29   68 1   
    68   29   69 1   
    69   30   61 1   
    70   34   66 1   
    71   35   62 1   
    72   35   63 1   
    73   35   64 1   
    74   36   66 2   
    75   37   63 2   
    76   65   80 1   
    77   65   81 1   
    78   67   71 1   
    79   67   72 1   
    80   67   73 1   
    81   68   74 1   
    82   68   75 1   
    83   68   76 1   
    84   69   77 1   
    85   69   78 1   
    86   69   79 1   
@<TRIPOS>SUBSTRUCTURE
     1 2P5         1 TEMP              0 ****  ****    0 ROOT
