@<TRIPOS>MOLECULE
2P6
   50    52     1     0     0
SMALL
bcc


@<TRIPOS>ATOM
      1 C17        -0.2560    0.0210   -0.1010 c3        1 2P6     -0.143400
      2 C18         1.2380   -0.0840   -0.3180 c3        1 2P6     -0.072400
      3 C19         1.9680   -0.1390    1.0120 c3        1 2P6     -0.036100
      4 C20         3.4430   -0.1980    0.8260 ca        1 2P6     -0.079300
      5 C21         4.1440    0.9370    0.4010 ca        1 2P6     -0.126000
      6 C25         4.1460   -1.3800    1.0830 ca        1 2P6     -0.126000
      7 C22         5.5270    0.8900    0.2360 ca        1 2P6     -0.127500
      8 C24         5.5300   -1.4250    0.9180 ca        1 2P6     -0.127500
      9 C23         6.2220   -0.2920    0.4940 ca        1 2P6     -0.131000
     10 C15        -0.9960    0.0330   -1.4250 c         1 2P6      0.670100
     11 O16        -0.4410   -0.2730   -2.5000 o         1 2P6     -0.622100
     12 N14        -2.3250    0.4180   -1.4190 n         1 2P6     -0.469800
     13 C10        -3.1630    0.3750   -2.6060 c3        1 2P6      0.051700
     14 C8         -3.0380    1.6710   -3.4410 c         1 2P6      0.654100
     15 O9         -3.3390    2.7770   -2.9530 o         1 2P6     -0.592100
     16 C11        -4.6280    0.2520   -2.1200 c3        1 2P6     -0.082400
     17 C12        -4.5960    0.4350   -0.6060 c3        1 2P6     -0.088400
     18 C13        -3.1150    0.5690   -0.2120 c3        1 2P6      0.095000
     19 C1         -3.7790    3.1230   -6.2990 c1        1 2P6      0.212700
     20 N2         -4.7540    3.4200   -6.8560 n1        1 2P6     -0.370800
     21 C3         -2.5420    2.7720   -5.5960 c3        1 2P6      0.157800
     22 C4         -1.4100    2.5000   -6.6200 c3        1 2P6     -0.085400
     23 C5         -1.0830    1.0160   -6.5080 c3        1 2P6     -0.091400
     24 C6         -1.8980    0.4730   -5.3220 c3        1 2P6      0.070000
     25 N7         -2.6890    1.5660   -4.7810 n         1 2P6     -0.457800
     26 H17        -0.4940    0.9520    0.4790 hc        1 2P6      0.065700
     27 H17A       -0.6200   -0.8580    0.4960 hc        1 2P6      0.065700
     28 H18         1.5950    0.7980   -0.9120 hc        1 2P6      0.064200
     29 H18A        1.4680   -1.0000   -0.9230 hc        1 2P6      0.064200
     30 H19         1.7080    0.7710    1.6180 hc        1 2P6      0.045700
     31 H19A        1.6170   -1.0350    1.5920 hc        1 2P6      0.045700
     32 H21         3.5960    1.8690    0.1960 ha        1 2P6      0.130500
     33 H25         3.6050   -2.2780    1.4170 ha        1 2P6      0.130500
     34 H22         6.0700    1.7860   -0.0990 ha        1 2P6      0.131000
     35 H24         6.0750   -2.3590    1.1220 ha        1 2P6      0.131000
     36 H23         7.3130   -0.3290    0.3640 ha        1 2P6      0.131000
     37 H10        -2.8760   -0.5220   -3.2260 h1        1 2P6      0.082700
     38 H11        -5.2710    1.0290   -2.6020 hc        1 2P6      0.066200
     39 H11A       -5.0290   -0.7540   -2.3940 hc        1 2P6      0.066200
     40 H12        -5.0600   -0.4390   -0.0870 hc        1 2P6      0.058700
     41 H12A       -5.1560    1.3550   -0.3050 hc        1 2P6      0.058700
     42 H13        -2.9160    1.5800    0.2390 h1        1 2P6      0.047700
     43 H13A       -2.8310   -0.2150    0.5430 h1        1 2P6      0.047700
     44 H3         -2.2780    3.6510   -4.9280 h1        1 2P6      0.102700
     45 H4A        -0.5210    3.1250   -6.3590 hc        1 2P6      0.063200
     46 H5          0.0090    0.8590   -6.3300 hc        1 2P6      0.058700
     47 H5A        -1.3610    0.4750   -7.4460 hc        1 2P6      0.058700
     48 H6         -2.5960   -0.3400   -5.6670 h1        1 2P6      0.068700
     49 H6A        -1.2110    0.0470   -4.5370 h1        1 2P6      0.068700
     50 H4         -1.7320    2.7690   -7.6540 hc        1 2P6      0.063200
@<TRIPOS>BOND
     1    1    2 1   
     2    1   10 1   
     3    1   26 1   
     4    1   27 1   
     5    2    3 1   
     6    2   28 1   
     7    2   29 1   
     8    3    4 1   
     9    3   30 1   
    10    3   31 1   
    11    4    5 ar  
    12    4    6 ar  
    13    5    7 ar  
    14    5   32 1   
    15    6    8 ar  
    16    6   33 1   
    17    7    9 ar  
    18    7   34 1   
    19    8    9 ar  
    20    8   35 1   
    21    9   36 1   
    22   10   11 2   
    23   10   12 1   
    24   12   13 1   
    25   12   18 1   
    26   13   14 1   
    27   13   16 1   
    28   13   37 1   
    29   14   15 2   
    30   14   25 1   
    31   16   17 1   
    32   16   38 1   
    33   16   39 1   
    34   17   18 1   
    35   17   40 1   
    36   17   41 1   
    37   18   42 1   
    38   18   43 1   
    39   19   20 3   
    40   19   21 1   
    41   21   22 1   
    42   21   25 1   
    43   21   44 1   
    44   22   23 1   
    45   22   45 1   
    46   22   50 1   
    47   23   24 1   
    48   23   46 1   
    49   23   47 1   
    50   24   25 1   
    51   24   48 1   
    52   24   49 1   
@<TRIPOS>SUBSTRUCTURE
     1 2P6         1 TEMP              0 ****  ****    0 ROOT
