@<TRIPOS>MOLECULE
2P6
   50    47     1     0     0
SMALL
bcc


@<TRIPOS>ATOM
      1 C17         0.2740   -0.9620    1.7200 c3        1 2P6     -0.172000
      2 C18         1.4740   -1.7390    1.1310 c3        1 2P6     -0.151000
      3 C19         2.2720   -2.4720    2.3050 c3        1 2P6     -0.122000
      4 C20         2.9920   -3.6740    1.7470 c2        1 2P6     -0.072000
      5 C21         2.3700   -4.9190    1.7610 c2        1 2P6     -0.126000
      6 C25         4.3220   -3.5540    1.2800 c1        1 2P6     -0.126000
      7 C22         3.0640   -6.0610    1.3080 c1        1 2P6     -0.128000
      8 C24         5.0080   -4.6860    0.8330 c1        1 2P6     -0.129000
      9 C23         4.3770   -5.9420    0.8470 c1        1 2P6     -0.129000
     10 C15        -0.2390    0.0530    0.6830 c1        1 2P6      0.314000
     11 O16         0.5030    0.4370   -0.2240 o         1 2P6     -0.383000
     12 N14        -1.6080    0.5560    0.7700 n2        1 2P6     -0.328000
     13 C10        -2.1820    1.4230   -0.0500 c3        1 2P6      0.025000
     14 C8         -1.1290    2.3890   -0.5950 c1        1 2P6      0.298000
     15 O9         -0.2440    2.6930    0.0570 o         1 2P6     -0.353000
     16 C11        -3.2530    2.0970    0.8950 c3        1 2P6     -0.161000
     17 C12        -3.3210    1.2250    2.1620 c3        1 2P6     -0.167000
     18 C13        -2.6900    0.1650    1.8760 c3        1 2P6     -0.021000
     19 C1         -0.5450    5.2000   -2.1420 c1        1 2P6     -0.140000
     20 N2         -0.7220    6.2080   -1.7140 n1        1 2P6     -0.045000
     21 C3         -0.3340    3.9750   -2.6570 c2        1 2P6      0.108000
     22 C4         -0.8290    3.9260   -4.1250 c3        1 2P6     -0.164000
     23 C5         -1.5790    2.9430   -4.1930 c3        1 2P6     -0.170000
     24 C6         -2.1730    2.7270   -2.7740 c3        1 2P6     -0.046000
     25 N7         -1.2770    2.9630   -1.9670 n2        1 2P6     -0.316000
     26 H17        -0.4270   -1.5740    1.9380 hc        1 2P6      0.105000
     27 H17A        0.5620   -0.4770    2.5480 hc        1 2P6      0.105000
     28 H18         1.1490   -2.4020    0.4990 hc        1 2P6      0.103500
     29 H18A        2.0710   -1.1140    0.6700 hc        1 2P6      0.103500
     30 H19         2.9110   -1.8630    2.6900 hc        1 2P6      0.085000
     31 H19A        1.6200   -2.7740    3.0200 hc        1 2P6      0.085000
     32 H21         1.4010   -5.0060    2.1010 ha        1 2P6      0.130000
     33 H25         4.7770   -2.6500    1.2700 ha        1 2P6      0.131000
     34 H22         2.6220   -6.9440    1.3180 ha        1 2P6      0.131000
     35 H24         5.9530   -4.6030    0.5000 ha        1 2P6      0.131000
     36 H23         4.8530   -6.7260    0.5370 ha        1 2P6      0.131000
     37 H10        -2.5880    1.0870   -0.8730 h1        1 2P6      0.122000
     38 H11        -2.9670    3.0250    1.1310 hc        1 2P6      0.105500
     39 H11A       -4.1350    2.1160    0.4470 hc        1 2P6      0.105500
     40 H12        -2.9010    1.6710    2.8900 hc        1 2P6      0.098000
     41 H12A       -4.2750    1.0120    2.3890 hc        1 2P6      0.098000
     42 H13        -3.3090   -0.5070    1.5170 h1        1 2P6      0.087000
     43 H13A       -2.2330   -0.1930    2.6910 h1        1 2P6      0.087000
     44 H3          0.6240    3.8720   -2.5060 h4        1 2P6      0.142000
     45 H4         -0.0540    3.8090   -4.7480 hc        1 2P6      0.102500
     46 H4A        -1.3520    4.7940   -4.3600 hc        1 2P6      0.102500
     47 H5         -1.0780    2.1630   -4.4620 hc        1 2P6      0.098000
     48 H5A        -2.3110    3.1190   -4.8450 hc        1 2P6      0.098000
     49 H6         -2.4750    1.8080   -2.6760 h1        1 2P6      0.108000
     50 H6A        -2.9710    3.3830   -2.6200 h1        1 2P6      0.108000
@<TRIPOS>BOND
     1    1    2 1   
     2    1   10 1   
     3    1   26 1   
     4    1   27 1   
     5    2    3 1   
     6    2   28 1   
     7    2   29 1   
     8    3    4 1   
     9    3   30 1   
    10    3   31 1   
    11    4    5 1   
    12    4    6 1   
    13    5    7 1   
    14    5   32 1   
    15    6   33 1   
    16    7   34 1   
    17    8    9 1   
    18    8   35 1   
    19    9   36 1   
    20   10   11 1   
    21   12   13 1   
    22   12   18 1   
    23   13   14 1   
    24   13   16 1   
    25   13   37 1   
    26   14   15 1   
    27   16   17 1   
    28   16   38 1   
    29   16   39 1   
    30   17   18 1   
    31   17   40 1   
    32   17   41 1   
    33   18   42 1   
    34   18   43 1   
    35   19   20 1   
    36   21   22 1   
    37   21   25 1   
    38   21   44 1   
    39   22   23 1   
    40   22   45 1   
    41   22   46 1   
    42   23   24 1   
    43   23   47 1   
    44   23   48 1   
    45   24   25 1   
    46   24   49 1   
    47   24   50 1   
@<TRIPOS>SUBSTRUCTURE
     1 2P6         1 TEMP              0 ****  ****    0 ROOT
