@<TRIPOS>MOLECULE
2P6
   50    52     1     0     0
SMALL
bcc


@<TRIPOS>ATOM
      1 C17        -0.2550    0.0240   -0.0970 c3        1 2P6     -0.143400
      2 C18         1.2380   -0.0930   -0.3170 c3        1 2P6     -0.072400
      3 C19         1.9700   -0.1480    1.0110 c3        1 2P6     -0.036100
      4 C20         3.4450   -0.2190    0.8210 ca        1 2P6     -0.079300
      5 C21         4.1530    0.9100    0.3900 ca        1 2P6     -0.126000
      6 C25         4.1390   -1.4060    1.0810 ca        1 2P6     -0.126000
      7 C22         5.5350    0.8510    0.2220 ca        1 2P6     -0.127500
      8 C24         5.5220   -1.4620    0.9110 ca        1 2P6     -0.127500
      9 C23         6.2220   -0.3350    0.4820 ca        1 2P6     -0.131000
     10 C15        -0.9990    0.0350   -1.4180 c         1 2P6      0.670100
     11 O16        -0.4500   -0.2830   -2.4930 o         1 2P6     -0.622100
     12 N14        -2.3250    0.4310   -1.4100 n         1 2P6     -0.469800
     13 C10        -3.1670    0.3890   -2.5950 c3        1 2P6      0.051700
     14 C8         -3.0330    1.6790   -3.4390 c         1 2P6      0.654100
     15 O9         -3.3220    2.7900   -2.9570 o         1 2P6     -0.592100
     16 C11        -4.6310    0.2820   -2.1040 c3        1 2P6     -0.082400
     17 C12        -4.5930    0.4740   -0.5910 c3        1 2P6     -0.088400
     18 C13        -3.1100    0.5970   -0.2020 c3        1 2P6      0.095000
     19 C1         -3.7680    3.1190   -6.3030 c1        1 2P6      0.212700
     20 N2         -4.7420    3.4210   -6.8600 n1        1 2P6     -0.370800
     21 C3         -2.5320    2.7610   -5.6020 c3        1 2P6      0.157800
     22 C4         -1.4070    2.4720   -6.6270 c3        1 2P6     -0.085400
     23 C5         -1.0930    0.9860   -6.5070 c3        1 2P6     -0.091400
     24 C6         -1.9090    0.4580   -5.3160 c3        1 2P6      0.070000
     25 N7         -2.6880    1.5620   -4.7790 n         1 2P6     -0.457800
     26 H17        -0.4840    0.9600    0.4790 hc        1 2P6      0.065700
     27 H17A       -0.6240   -0.8490    0.5070 hc        1 2P6      0.065700
     28 H18         1.4580   -1.0140   -0.9180 hc        1 2P6      0.064200
     29 H18A        1.6000    0.7820   -0.9170 hc        1 2P6      0.064200
     30 H19         1.7190    0.7670    1.6130 hc        1 2P6      0.045700
     31 H19A        1.6150   -1.0380    1.5960 hc        1 2P6      0.045700
     32 H21         3.6120    1.8450    0.1840 ha        1 2P6      0.130500
     33 H25         3.5920   -2.2980    1.4190 ha        1 2P6      0.130500
     34 H22         6.0840    1.7410   -0.1180 ha        1 2P6      0.131000
     35 H24         6.0610   -2.3990    1.1170 ha        1 2P6      0.131000
     36 H23         7.3120   -0.3810    0.3480 ha        1 2P6      0.131000
     37 H10        -2.8890   -0.5140   -3.2110 h1        1 2P6      0.082700
     38 H11        -5.2680    1.0620   -2.5890 hc        1 2P6      0.066200
     39 H11A       -5.0420   -0.7220   -2.3710 hc        1 2P6      0.066200
     40 H12        -5.1430    1.4010   -0.2950 hc        1 2P6      0.058700
     41 H12A       -5.0630   -0.3920   -0.0650 hc        1 2P6      0.058700
     42 H13        -2.8300   -0.1850    0.5560 h1        1 2P6      0.047700
     43 H13A       -2.9000    1.6100    0.2420 h1        1 2P6      0.047700
     44 H3         -2.2590    3.6420   -4.9410 h1        1 2P6      0.102700
     45 H4A        -0.5110    3.0920   -6.3730 hc        1 2P6      0.063200
     46 H5         -0.0020    0.8200   -6.3320 hc        1 2P6      0.058700
     47 H5A        -1.3780    0.4420   -7.4410 hc        1 2P6      0.058700
     48 H6         -1.2230    0.0310   -4.5300 h1        1 2P6      0.068700
     49 H6A        -2.6150   -0.3500   -5.6530 h1        1 2P6      0.068700
     50 H4         -1.7290    2.7380   -7.6630 hc        1 2P6      0.063200
@<TRIPOS>BOND
     1    1    2 1   
     2    1   10 1   
     3    1   26 1   
     4    1   27 1   
     5    2    3 1   
     6    2   28 1   
     7    2   29 1   
     8    3    4 1   
     9    3   30 1   
    10    3   31 1   
    11    4    5 ar  
    12    4    6 ar  
    13    5    7 ar  
    14    5   32 1   
    15    6    8 ar  
    16    6   33 1   
    17    7    9 ar  
    18    7   34 1   
    19    8    9 ar  
    20    8   35 1   
    21    9   36 1   
    22   10   11 2   
    23   10   12 1   
    24   12   13 1   
    25   12   18 1   
    26   13   14 1   
    27   13   16 1   
    28   13   37 1   
    29   14   15 2   
    30   14   25 1   
    31   16   17 1   
    32   16   38 1   
    33   16   39 1   
    34   17   18 1   
    35   17   40 1   
    36   17   41 1   
    37   18   42 1   
    38   18   43 1   
    39   19   20 3   
    40   19   21 1   
    41   21   22 1   
    42   21   25 1   
    43   21   44 1   
    44   22   23 1   
    45   22   45 1   
    46   22   50 1   
    47   23   24 1   
    48   23   46 1   
    49   23   47 1   
    50   24   25 1   
    51   24   48 1   
    52   24   49 1   
@<TRIPOS>SUBSTRUCTURE
     1 2P6         1 TEMP              0 ****  ****    0 ROOT
