@<TRIPOS>MOLECULE
2P6
   50    52     1     0     0
SMALL
bcc


@<TRIPOS>ATOM
      1 C17        -1.4530    1.5290    0.3690 c3        1 2P6     -0.143400
      2 C18        -2.4380    0.5240   -0.1910 c3        1 2P6     -0.072400
      3 C19        -3.8460    0.8430    0.2730 c3        1 2P6     -0.036100
      4 C20        -4.8280   -0.1570   -0.2290 ca        1 2P6     -0.079300
      5 C21        -4.8580   -1.4470    0.3150 ca        1 2P6     -0.126000
      6 C25        -5.7360    0.1820   -1.2380 ca        1 2P6     -0.126000
      7 C22        -5.7830   -2.3820   -0.1440 ca        1 2P6     -0.127500
      8 C24        -6.6610   -0.7560   -1.6960 ca        1 2P6     -0.127500
      9 C23        -6.6860   -2.0390   -1.1510 ca        1 2P6     -0.131000
     10 C15        -0.0480    1.2430   -0.1250 c         1 2P6      0.670100
     11 O16         0.1800    0.4550   -1.0660 o         1 2P6     -0.622100
     12 N14         1.0030    1.8750    0.5170 n         1 2P6     -0.469800
     13 C10         2.3830    1.7570    0.0720 c3        1 2P6      0.051700
     14 C8          3.0740    0.5120    0.6750 c         1 2P6      0.654100
     15 O9          3.1890    0.3790    1.9080 o         1 2P6     -0.592100
     16 C11         3.1290    3.0170    0.5780 c3        1 2P6     -0.082400
     17 C12         2.1600    3.7490    1.5010 c3        1 2P6     -0.088400
     18 C13         0.8360    2.9680    1.4550 c3        1 2P6      0.095000
     19 C1          5.7420   -1.4100    0.5730 c1        1 2P6      0.212700
     20 N2          6.8790   -1.2710    0.7650 n1        1 2P6     -0.370800
     21 C3          4.3070   -1.6030    0.3470 c3        1 2P6      0.157800
     22 C4          4.0810   -2.7420   -0.6800 c3        1 2P6     -0.085400
     23 C5          3.4880   -2.0860   -1.9210 c3        1 2P6     -0.091400
     24 C6          3.2220   -0.6160   -1.5570 c3        1 2P6      0.070000
     25 N7          3.6620   -0.4030   -0.1880 n         1 2P6     -0.457800
     26 H17        -1.7350    2.5660    0.0430 hc        1 2P6      0.065700
     27 H17A       -1.4770    1.5030    1.4910 hc        1 2P6      0.065700
     28 H18        -2.3870    0.5330   -1.3120 hc        1 2P6      0.064200
     29 H18A       -2.1510   -0.5080    0.1400 hc        1 2P6      0.064200
     30 H19        -3.8760    0.8570    1.3960 hc        1 2P6      0.045700
     31 H19A       -4.1310    1.8710   -0.0790 hc        1 2P6      0.045700
     32 H21        -4.1460   -1.7190    1.1080 ha        1 2P6      0.130500
     33 H25        -5.7210    1.1930   -1.6730 ha        1 2P6      0.130500
     34 H22        -5.8000   -3.3940    0.2880 ha        1 2P6      0.131000
     35 H24        -7.3710   -0.4810   -2.4900 ha        1 2P6      0.131000
     36 H23        -7.4150   -2.7780   -1.5130 ha        1 2P6      0.131000
     37 H10         2.4030    1.7110   -1.0550 h1        1 2P6      0.082700
     38 H11         4.0610    2.7310    1.1230 hc        1 2P6      0.066200
     39 H11A        3.4130    3.6560   -0.2940 hc        1 2P6      0.066200
     40 H12         2.5530    3.7740    2.5470 hc        1 2P6      0.058700
     41 H12A        2.0030    4.8020    1.1640 hc        1 2P6      0.058700
     42 H13        -0.0100    3.6350    1.1310 h1        1 2P6      0.047700
     43 H13A        0.5870    2.5510    2.4710 h1        1 2P6      0.047700
     44 H3          3.8460   -1.8670    1.3490 h1        1 2P6      0.102700
     45 H4A         3.3730   -3.4910   -0.2470 hc        1 2P6      0.063200
     46 H5          4.1980   -2.1470   -2.7810 hc        1 2P6      0.058700
     47 H5A         2.5370   -2.5880   -2.2230 hc        1 2P6      0.058700
     48 H6          3.8090    0.0660   -2.2320 h1        1 2P6      0.068700
     49 H6A         2.1260   -0.3770   -1.6680 h1        1 2P6      0.068700
     50 H4          5.0390   -3.2670   -0.9140 hc        1 2P6      0.063200
@<TRIPOS>BOND
     1    1    2 1   
     2    1   10 1   
     3    1   26 1   
     4    1   27 1   
     5    2    3 1   
     6    2   28 1   
     7    2   29 1   
     8    3    4 1   
     9    3   30 1   
    10    3   31 1   
    11    4    5 ar  
    12    4    6 ar  
    13    5    7 ar  
    14    5   32 1   
    15    6    8 ar  
    16    6   33 1   
    17    7    9 ar  
    18    7   34 1   
    19    8    9 ar  
    20    8   35 1   
    21    9   36 1   
    22   10   11 2   
    23   10   12 1   
    24   12   13 1   
    25   12   18 1   
    26   13   14 1   
    27   13   16 1   
    28   13   37 1   
    29   14   15 2   
    30   14   25 1   
    31   16   17 1   
    32   16   38 1   
    33   16   39 1   
    34   17   18 1   
    35   17   40 1   
    36   17   41 1   
    37   18   42 1   
    38   18   43 1   
    39   19   20 3   
    40   19   21 1   
    41   21   22 1   
    42   21   25 1   
    43   21   44 1   
    44   22   23 1   
    45   22   45 1   
    46   22   50 1   
    47   23   24 1   
    48   23   46 1   
    49   23   47 1   
    50   24   25 1   
    51   24   48 1   
    52   24   49 1   
@<TRIPOS>SUBSTRUCTURE
     1 2P6         1 TEMP              0 ****  ****    0 ROOT
