@<TRIPOS>MOLECULE
2P7
   36    38     1     0     0
SMALL
bcc


@<TRIPOS>ATOM
      1 C5         -0.0280   -0.7850    0.6230 ca        1 2P7      0.152600
      2 C6         -0.3230   -0.8850   -0.7520 ca        1 2P7     -0.168000
      3 C7         -1.6210   -0.7270   -1.2240 ca        1 2P7     -0.070000
      4 C2         -2.6700   -0.4570   -0.3470 ca        1 2P7      0.004900
      5 C3         -2.4170   -0.3420    1.0160 ca        1 2P7     -0.097000
      6 C4         -1.1150   -0.4990    1.5100 ca        1 2P7      0.067900
      7 N8          1.2520   -0.9930    1.1520 nh        1 2P7     -0.627000
      8 C9          2.3990   -1.0910    0.3460 ca        1 2P7      0.170600
      9 C14         3.4400   -0.1320    0.4230 ca        1 2P7     -0.169600
     10 C13         4.6300   -0.3020   -0.2870 ca        1 2P7     -0.070000
     11 C12         4.8220   -1.4000   -1.1150 ca        1 2P7     -0.167000
     12 C11         3.8050   -2.3590   -1.2340 ca        1 2P7      0.125900
     13 C10         2.5960   -2.2210   -0.5010 ca        1 2P7      0.071900
     14 C15         3.2940    1.0570    1.3160 c         1 2P7      0.659700
     15 N17         3.6820    2.2960    0.8170 n         1 2P7     -0.434800
     16 O16         2.9250    0.9440    2.5020 o         1 2P7     -0.587100
     17 C19         3.0470    4.1590   -0.0020 cy        1 2P7      0.099100
     18 C20         3.2500    3.5640    1.4300 cy        1 2P7      0.048000
     19 O21         1.7120    4.4250   -0.3380 oh        1 2P7     -0.580800
     20 I1         -4.5500   -0.2290   -1.0460 i         1 2P7     -0.133900
     21 C18         3.4610    2.7600   -0.5610 cy        1 2P7      0.048000
     22 F24        -0.8960   -0.3690    2.8430 f         1 2P7     -0.134900
     23 F23         1.6570   -3.1860   -0.6210 f         1 2P7     -0.109900
     24 F22         3.9730   -3.4340   -2.0360 f         1 2P7     -0.117900
     25 H3         -3.2270   -0.1270    1.7330 ha        1 2P7      0.161000
     26 H6          0.4830   -1.1070   -1.4700 ha        1 2P7      0.146000
     27 H8          1.4100   -0.5760    2.0540 hn        1 2P7      0.466800
     28 H7         -1.8070   -0.8200   -2.3060 ha        1 2P7      0.149000
     29 H13         5.4350    0.4460   -0.1910 ha        1 2P7      0.158000
     30 H12         5.7600   -1.5320   -1.6740 ha        1 2P7      0.162000
     31 H201        2.3190    3.4870    2.0410 h1        1 2P7      0.075950
     32 H202        4.0700    4.0310    2.0240 h1        1 2P7      0.075950
     33 H181        4.4070    2.7620   -1.1530 h1        1 2P7      0.075950
     34 H182        2.6480    2.2360   -1.1180 h1        1 2P7      0.075950
     35 H19         3.7230    5.0020   -0.2660 h1        1 2P7      0.063700
     36 H21         1.4710    5.2540    0.0960 ho        1 2P7      0.413000
@<TRIPOS>BOND
     1    1    2 ar  
     2    1    6 ar  
     3    1    7 1   
     4    2    3 ar  
     5    2   26 1   
     6    3    4 ar  
     7    3   28 1   
     8    4    5 ar  
     9    4   20 1   
    10    5    6 ar  
    11    5   25 1   
    12    6   22 1   
    13    7    8 1   
    14    7   27 1   
    15    8    9 ar  
    16    8   13 ar  
    17    9   10 ar  
    18    9   14 1   
    19   10   11 ar  
    20   10   29 1   
    21   11   12 ar  
    22   11   30 1   
    23   12   13 ar  
    24   12   24 1   
    25   13   23 1   
    26   14   15 1   
    27   14   16 2   
    28   15   18 1   
    29   15   21 1   
    30   17   18 1   
    31   17   19 1   
    32   17   21 1   
    33   17   35 1   
    34   18   31 1   
    35   18   32 1   
    36   19   36 1   
    37   21   33 1   
    38   21   34 1   
@<TRIPOS>SUBSTRUCTURE
     1 2P7         1 TEMP              0 ****  ****    0 ROOT
