@<TRIPOS>MOLECULE
2P7
   36    32     1     0     0
SMALL
bcc


@<TRIPOS>ATOM
      1 C5          0.5600   -0.1830    2.6890 c1        1 2P7     -0.001000
      2 C6          1.0570   -0.7410    3.8570 c1        1 2P7     -0.095000
      3 C7          1.4820    0.0790    4.8900 c1        1 2P7     -0.095000
      4 C2          1.4100    1.4570    4.7560 c1        1 2P7     -0.240000
      5 C3          0.9140    2.0150    3.5880 c1        1 2P7     -0.131000
      6 C4          0.4890    1.1950    2.5550 c1        1 2P7      0.062000
      7 N8          0.0950   -1.0230    1.6430 n3        1 2P7     -0.236000
      8 C9          0.8230   -1.1120    0.4270 c2        1 2P7      0.098000
      9 C14         0.2370   -0.7060   -0.7620 c2        1 2P7     -0.158000
     10 C13         0.9440   -0.8030   -1.9510 c1        1 2P7     -0.071000
     11 C12         2.2360   -1.3050   -1.9500 c1        1 2P7     -0.178000
     12 C11         2.8210   -1.7110   -0.7610 c1        1 2P7      0.098000
     13 C10         2.1150   -1.6140    0.4280 c2        1 2P7      0.022000
     14 C15        -1.2040   -0.2430   -0.7760 c2        1 2P7      0.337000
     15 N17        -1.7860    0.2290   -1.9810 n         1 2P7     -0.308000
     16 O16        -1.8460   -0.2270    0.2560 o         1 2P7     -0.349000
     17 C19        -2.6430    0.9210   -3.7280 cy        1 2P7     -0.013000
     18 C20        -3.0900    0.7910   -2.3640 cy        1 2P7     -0.053000
     19 O21        -3.3570    0.0960   -4.6150 oh        1 2P7     -0.307000
     20 I1          2.1170    2.7040    6.3010 i         1 2P7      0.159000
     21 C18        -1.3450    0.3620   -3.3600 cy        1 2P7     -0.053000
     22 F24         0.0110    1.7340    1.4260 f         1 2P7     -0.092500
     23 F23         2.6720   -2.0260    1.5730 f         1 2P7     -0.087000
     24 F22         4.0700   -2.1940   -0.7600 f         1 2P7     -0.092500
     25 H3          0.8630    2.9850    3.4940 ha        1 2P7      0.162000
     26 H6          1.1070   -1.7110    3.9510 ha        1 2P7      0.159500
     27 H8         -0.6590   -1.5220    1.7610 hn        1 2P7      0.234000
     28 H7          1.8310   -0.3130    5.7130 ha        1 2P7      0.159500
     29 H13         0.5330   -0.5170   -2.7870 ha        1 2P7      0.149000
     30 H12         2.7340   -1.3730   -2.7870 ha        1 2P7      0.160000
     31 H201       -3.8210    0.1490   -2.2660 h1        1 2P7      0.112000
     32 H202       -3.2680    1.6550   -1.9420 h1        1 2P7      0.112000
     33 H181       -0.6150    1.0050   -3.4630 h1        1 2P7      0.112000
     34 H182       -1.1710   -0.5010   -3.7860 h1        1 2P7      0.112000
     35 H19        -2.5840    1.8510   -4.0190 h1        1 2P7      0.104000
     36 H21        -3.7320    0.5970   -5.2480 ho        1 2P7      0.208000
@<TRIPOS>BOND
     1    1    6 1   
     2    1    7 1   
     3    2    3 1   
     4    2   26 1   
     5    3   28 1   
     6    4    5 1   
     7    4   20 1   
     8    5   25 1   
     9    7    8 1   
    10    7   27 1   
    11    8    9 1   
    12    8   13 1   
    13    9   10 1   
    14    9   14 1   
    15   10   29 1   
    16   11   12 1   
    17   11   30 1   
    18   12   13 1   
    19   13   23 1   
    20   14   15 1   
    21   14   16 1   
    22   15   18 1   
    23   15   21 1   
    24   17   18 1   
    25   17   19 1   
    26   17   21 1   
    27   17   35 1   
    28   18   31 1   
    29   18   32 1   
    30   19   36 1   
    31   21   33 1   
    32   21   34 1   
@<TRIPOS>SUBSTRUCTURE
     1 2P7         1 TEMP              0 ****  ****    0 ROOT
