@<TRIPOS>MOLECULE
2P7
   36    38     1     0     0
SMALL
bcc


@<TRIPOS>ATOM
      1 C5          0.3090   -0.1170   -0.0340 ca        1 2P7      0.152600
      2 C6          1.5540    0.5460    0.0180 ca        1 2P7     -0.170000
      3 C7          2.2080    0.7580    1.2260 ca        1 2P7     -0.071000
      4 C2          1.6540    0.3110    2.4240 ca        1 2P7      0.003900
      5 C3          0.4320   -0.3540    2.4140 ca        1 2P7     -0.096000
      6 C4         -0.2440   -0.5760    1.2050 ca        1 2P7      0.068900
      7 N8         -0.4140   -0.3030   -1.2170 nh        1 2P7     -0.627000
      8 C9          0.1350   -0.0600   -2.4880 ca        1 2P7      0.169600
      9 C14         0.3210   -1.1080   -3.4250 ca        1 2P7     -0.169600
     10 C13         0.7510   -0.8430   -4.7260 ca        1 2P7     -0.070000
     11 C12         1.0400    0.4510   -5.1380 ca        1 2P7     -0.168000
     12 C11         0.8880    1.5120   -4.2320 ca        1 2P7      0.124900
     13 C10         0.4280    1.2700   -2.9110 ca        1 2P7      0.071900
     14 C15         0.0000   -2.5160   -3.0410 c         1 2P7      0.658700
     15 N17         0.9050   -3.5090   -3.4000 n         1 2P7     -0.434800
     16 O16        -1.0830   -2.8150   -2.5010 o         1 2P7     -0.584100
     17 C19         2.4680   -4.8090   -2.7590 cy        1 2P7      0.099100
     18 C20         0.9070   -4.8430   -2.7750 cy        1 2P7      0.047500
     19 O21         2.9350   -4.8400   -1.4380 oh        1 2P7     -0.576800
     20 I1          2.6170    0.6240    4.1700 i         1 2P7     -0.133900
     21 C18         2.3680   -3.3690   -3.3650 cy        1 2P7      0.047500
     22 F24        -1.4280   -1.2370    1.2250 f         1 2P7     -0.133900
     23 F23         0.2660    2.3260   -2.0830 f         1 2P7     -0.109900
     24 F22         1.1660    2.7780   -4.6140 f         1 2P7     -0.117900
     25 H3         -0.0290   -0.7200    3.3460 ha        1 2P7      0.161000
     26 H6          2.0120    0.9190   -0.9110 ha        1 2P7      0.145000
     27 H8         -1.0860   -1.0510   -1.1900 hn        1 2P7      0.467800
     28 H7          3.1740    1.2870    1.2200 ha        1 2P7      0.148000
     29 H13         0.8630   -1.6730   -5.4430 ha        1 2P7      0.158000
     30 H12         1.3790    0.6580   -6.1630 ha        1 2P7      0.162000
     31 H201        0.4340   -4.8850   -1.7630 h1        1 2P7      0.075700
     32 H202        0.4670   -5.6150   -3.4490 h1        1 2P7      0.075700
     33 H181        2.7950   -3.2590   -4.3900 h1        1 2P7      0.075700
     34 H182        2.7520   -2.5650   -2.6920 h1        1 2P7      0.075700
     35 H19         2.9730   -5.5590   -3.4090 h1        1 2P7      0.063700
     36 H21         3.9000   -4.8650   -1.4780 ho        1 2P7      0.410000
@<TRIPOS>BOND
     1    1    2 ar  
     2    1    6 ar  
     3    1    7 1   
     4    2    3 ar  
     5    2   26 1   
     6    3    4 ar  
     7    3   28 1   
     8    4    5 ar  
     9    4   20 1   
    10    5    6 ar  
    11    5   25 1   
    12    6   22 1   
    13    7    8 1   
    14    7   27 1   
    15    8    9 ar  
    16    8   13 ar  
    17    9   10 ar  
    18    9   14 1   
    19   10   11 ar  
    20   10   29 1   
    21   11   12 ar  
    22   11   30 1   
    23   12   13 ar  
    24   12   24 1   
    25   13   23 1   
    26   14   15 1   
    27   14   16 2   
    28   15   18 1   
    29   15   21 1   
    30   17   18 1   
    31   17   19 1   
    32   17   21 1   
    33   17   35 1   
    34   18   31 1   
    35   18   32 1   
    36   19   36 1   
    37   21   33 1   
    38   21   34 1   
@<TRIPOS>SUBSTRUCTURE
     1 2P7         1 TEMP              0 ****  ****    0 ROOT
