@<TRIPOS>MOLECULE
2P7
   37    39     1     0     0
SMALL
bcc


@<TRIPOS>ATOM
      1 C5         -0.0240   -0.3450    0.0000 ca        1 2P7     -0.085400
      2 C6          0.7160   -1.4880    0.3520 ca        1 2P7     -0.078000
      3 C7          1.5650   -1.4540    1.4530 ca        1 2P7     -0.093000
      4 C2          1.6910   -0.2940    2.2230 ca        1 2P7      0.080900
      5 C3          0.9550    0.8420    1.8990 ca        1 2P7     -0.113000
      6 C4          0.0900    0.8300    0.7900 ca        1 2P7      0.158900
      7 N8         -0.9370   -0.3850   -1.1470 n4        1 2P7     -0.505800
      8 C9         -0.3080   -0.0370   -2.4300 ca        1 2P7     -0.012400
      9 C14         0.2880   -1.0190   -3.2540 ca        1 2P7     -0.098600
     10 C13         0.8090   -0.6430   -4.4940 ca        1 2P7     -0.070000
     11 C12         0.7800    0.6780   -4.9310 ca        1 2P7     -0.108000
     12 C11         0.2080    1.6700   -4.1210 ca        1 2P7      0.153900
     13 C10        -0.3490    1.3130   -2.8600 ca        1 2P7      0.106900
     14 C15         0.3010   -2.4630   -2.8480 c         1 2P7      0.659700
     15 N17         1.3150   -3.2780   -3.2660 n         1 2P7     -0.427800
     16 O16        -0.6650   -2.9330   -2.1940 o         1 2P7     -0.642100
     17 C19         3.1130   -4.3610   -2.9160 cy        1 2P7      0.115100
     18 C20         1.5810   -4.6200   -2.7200 cy        1 2P7      0.053000
     19 O21         3.7840   -4.2160   -1.6960 oh        1 2P7     -0.587800
     20 I1          2.9360   -0.2640    3.8110 i         1 2P7     -0.045900
     21 C18         2.7310   -2.9530   -3.4880 cy        1 2P7      0.053000
     22 F24        -0.6390    1.9270    0.4900 f         1 2P7     -0.110900
     23 F23        -0.9310    2.2640   -2.0990 f         1 2P7     -0.094900
     24 F22         0.1670    2.9540   -4.5200 f         1 2P7     -0.079900
     25 H3          1.0270    1.7690    2.4970 ha        1 2P7      0.194000
     26 H6          0.6200   -2.4220   -0.2330 ha        1 2P7      0.176000
     27 H8         -1.3380   -1.3460   -1.2250 hn        1 2P7      0.491300
     28 H7          2.1380   -2.3630    1.7110 ha        1 2P7      0.183000
     29 H13         1.2450   -1.4090   -5.1620 ha        1 2P7      0.183000
     30 H12         1.1970    0.9570   -5.9140 ha        1 2P7      0.193000
     31 H201        1.2600   -4.7520   -1.6580 h1        1 2P7      0.084950
     32 H202        1.1490   -5.4220   -3.3650 h1        1 2P7      0.084950
     33 H181        3.1180   -2.0950   -2.8860 h1        1 2P7      0.084950
     34 H182        2.9670   -2.8200   -4.5710 h1        1 2P7      0.084950
     35 H19         3.6230   -5.0420   -3.6330 h1        1 2P7      0.087700
     36 H21         4.4100   -4.9470   -1.6110 ho        1 2P7      0.430000
     37 H82        -1.7020    0.2860   -0.9730 hn        1 2P7      0.491300
@<TRIPOS>BOND
     1    1    2 ar  
     2    1    6 ar  
     3    1    7 1   
     4    2    3 ar  
     5    2   26 1   
     6    3    4 ar  
     7    3   28 1   
     8    4    5 ar  
     9    4   20 1   
    10    5    6 ar  
    11    5   25 1   
    12    6   22 1   
    13    7    8 1   
    14    7   27 1   
    15    7   37 1   
    16    8    9 ar  
    17    8   13 ar  
    18    9   10 ar  
    19    9   14 1   
    20   10   11 ar  
    21   10   29 1   
    22   11   12 ar  
    23   11   30 1   
    24   12   13 ar  
    25   12   24 1   
    26   13   23 1   
    27   14   15 1   
    28   14   16 2   
    29   15   18 1   
    30   15   21 1   
    31   17   18 1   
    32   17   19 1   
    33   17   21 1   
    34   17   35 1   
    35   18   31 1   
    36   18   32 1   
    37   19   36 1   
    38   21   33 1   
    39   21   34 1   
@<TRIPOS>SUBSTRUCTURE
     1 2P7         1 TEMP              0 ****  ****    0 ROOT
