@<TRIPOS>MOLECULE
2P7
   36    38     1     0     0
SMALL
bcc


@<TRIPOS>ATOM
      1 C5          0.3160   -0.1100   -0.0350 ca        1 2P7      0.152600
      2 C6          1.5610    0.5510    0.0100 ca        1 2P7     -0.170000
      3 C7          2.2190    0.7660    1.2150 ca        1 2P7     -0.071000
      4 C2          1.6700    0.3230    2.4160 ca        1 2P7      0.003900
      5 C3          0.4480   -0.3420    2.4120 ca        1 2P7     -0.096000
      6 C4         -0.2330   -0.5660    1.2070 ca        1 2P7      0.068900
      7 N8         -0.4110   -0.2990   -1.2160 nu        1 2P7     -0.627000
      8 C9          0.1340   -0.0610   -2.4890 ca        1 2P7      0.169600
      9 C14         0.3150   -1.1120   -3.4230 ca        1 2P7     -0.169600
     10 C13         0.7420   -0.8520   -4.7260 ca        1 2P7     -0.070000
     11 C12         1.0300    0.4400   -5.1440 ca        1 2P7     -0.167000
     12 C11         0.8820    1.5040   -4.2410 ca        1 2P7      0.124900
     13 C10         0.4260    1.2670   -2.9180 ca        1 2P7      0.071900
     14 C15        -0.0050   -2.5190   -3.0340 c         1 2P7      0.658700
     15 N17         0.8980   -3.5140   -3.3920 n         1 2P7     -0.434800
     16 O16        -1.0870   -2.8150   -2.4890 o         1 2P7     -0.584100
     17 C19         2.4620   -4.8130   -2.7510 cy        1 2P7      0.099100
     18 C20         0.9010   -4.8460   -2.7610 cy        1 2P7      0.047500
     19 O21         2.9340   -4.8390   -1.4320 oh        1 2P7     -0.576800
     20 I1          2.6390    0.6400    4.1580 i         1 2P7     -0.133900
     21 C18         2.3610   -3.3750   -3.3620 cy        1 2P7      0.047500
     22 F24        -1.4180   -1.2260    1.2320 f         1 2P7     -0.133900
     23 F23         0.2680    2.3260   -2.0920 f         1 2P7     -0.109900
     24 F22         1.1600    2.7690   -4.6290 f         1 2P7     -0.117900
     25 H3         -0.0110   -0.7050    3.3470 ha        1 2P7      0.161000
     26 H6          2.0170    0.9220   -0.9220 ha        1 2P7      0.145000
     27 H8         -1.0850   -1.0470   -1.1850 hn        1 2P7      0.467800
     28 H7          3.1860    1.2940    1.2040 ha        1 2P7      0.148000
     29 H13         0.8500   -1.6850   -5.4410 ha        1 2P7      0.158000
     30 H12         1.3650    0.6430   -6.1710 ha        1 2P7      0.162000
     31 H201        0.4580   -5.6200   -3.4310 h1        1 2P7      0.075700
     32 H202        0.4310   -4.8840   -1.7490 h1        1 2P7      0.075700
     33 H181        2.7470   -2.5680   -2.6930 h1        1 2P7      0.075700
     34 H182        2.7840   -3.2680   -4.3880 h1        1 2P7      0.075700
     35 H19         2.9640   -5.5650   -3.3990 h1        1 2P7      0.063700
     36 H21         3.8980   -4.8650   -1.4740 ho        1 2P7      0.410000
@<TRIPOS>BOND
     1    1    2 ar  
     2    1    6 ar  
     3    1    7 1   
     4    2    3 ar  
     5    2   26 1   
     6    3    4 ar  
     7    3   28 1   
     8    4    5 ar  
     9    4   20 1   
    10    5    6 ar  
    11    5   25 1   
    12    6   22 1   
    13    7    8 1   
    14    7   27 1   
    15    8    9 ar  
    16    8   13 ar  
    17    9   10 ar  
    18    9   14 1   
    19   10   11 ar  
    20   10   29 1   
    21   11   12 ar  
    22   11   30 1   
    23   12   13 ar  
    24   12   24 1   
    25   13   23 1   
    26   14   15 1   
    27   14   16 2   
    28   15   18 1   
    29   15   21 1   
    30   17   18 1   
    31   17   19 1   
    32   17   21 1   
    33   17   35 1   
    34   18   31 1   
    35   18   32 1   
    36   19   36 1   
    37   21   33 1   
    38   21   34 1   
@<TRIPOS>SUBSTRUCTURE
     1 2P7         1 TEMP              0 ****  ****    0 ROOT
