@<TRIPOS>MOLECULE
2P8
   53    55     1     0     0
SMALL
bcc


@<TRIPOS>ATOM
      1 C17         1.3420    0.5150   -0.2220 c         1 2P8      0.760100
      2 O18         0.8990   -0.6540   -0.0850 o         1 2P8     -0.656100
      3 N19         2.4220    0.7860   -1.0860 n         1 2P8     -0.522900
      4 C20         3.2240   -0.3170   -1.5580 c3        1 2P8      0.121300
      5 C21         4.3660   -0.7100   -0.6640 ca        1 2P8     -0.134300
      6 C22         4.1100   -1.4230    0.5130 ca        1 2P8     -0.116000
      7 C23         5.1650   -1.8150    1.3350 ca        1 2P8     -0.134000
      8 C24         6.4780   -1.4980    0.9870 ca        1 2P8     -0.123000
      9 C25         6.7360   -0.7880   -0.1860 ca        1 2P8     -0.134000
     10 C26         5.6820   -0.3930   -1.0100 ca        1 2P8     -0.116000
     11 N16         0.7520    1.5640    0.5020 n         1 2P8     -0.456800
     12 C12        -0.5680    1.4070    1.0950 c3        1 2P8      0.053700
     13 C10        -1.6580    0.9880    0.0790 c         1 2P8      0.639100
     14 O11        -1.9130    1.7180   -0.9010 o         1 2P8     -0.606100
     15 C13        -0.9520    2.7930    1.6680 c3        1 2P8     -0.078400
     16 C14         0.0460    3.7900    1.0860 c3        1 2P8     -0.083400
     17 C15         1.0660    2.9650    0.2810 c3        1 2P8      0.083000
     18 C1         -4.7010    0.2050   -0.6500 c3        1 2P8      0.097100
     19 O2         -5.5030   -0.1690   -1.7560 oh        1 2P8     -0.595800
     20 C3         -5.5020    0.0560    0.6500 c3        1 2P8      0.100400
     21 O4         -6.6760   -0.7050    0.4340 oh        1 2P8     -0.609800
     22 C5         -3.3850   -0.6080   -0.6600 c3        1 2P8      0.065700
     23 C6         -3.6270   -2.1080   -0.3910 c3        1 2P8     -0.098400
     24 C7         -2.7200   -2.4990    0.7700 c3        1 2P8     -0.086400
     25 C8         -1.9770   -1.2220    1.1940 c3        1 2P8      0.073000
     26 N9         -2.4220   -0.1360    0.3370 n         1 2P8     -0.447800
     27 HN19        2.9290    1.6290   -0.9220 hn        1 2P8      0.294500
     28 H20         2.5510   -1.2120   -1.7040 h1        1 2P8      0.076200
     29 H20A        3.6260   -0.0070   -2.5670 h1        1 2P8      0.076200
     30 H22         3.0680   -1.6710    0.7770 ha        1 2P8      0.142000
     31 H23         4.9610   -2.3760    2.2590 ha        1 2P8      0.132500
     32 H24         7.3100   -1.8090    1.6350 ha        1 2P8      0.132000
     33 H25         7.7710   -0.5400   -0.4630 ha        1 2P8      0.132500
     34 H26         5.8890    0.1640   -1.9360 ha        1 2P8      0.142000
     35 H12        -0.4790    0.6440    1.9190 h1        1 2P8      0.082700
     36 H13        -1.9980    3.0610    1.3820 hc        1 2P8      0.062700
     37 H13A       -0.8860    2.7670    2.7830 hc        1 2P8      0.062700
     38 H14        -0.4680    4.5210    0.4140 hc        1 2P8      0.057700
     39 H14A        0.5600    4.3610    1.8970 hc        1 2P8      0.057700
     40 H15         2.1130    3.1630    0.6420 h1        1 2P8      0.048200
     41 H15A        1.0070    3.2340   -0.8100 h1        1 2P8      0.048200
     42 H1         -4.4570    1.2900   -0.8430 h1        1 2P8      0.100700
     43 HO2        -5.6830   -1.1160   -1.6780 ho        1 2P8      0.405000
     44 H3         -4.9310   -0.5170    1.4280 h1        1 2P8      0.053200
     45 H3A        -5.7680    1.0680    1.0540 h1        1 2P8      0.053200
     46 HO4        -7.2140   -0.2240   -0.2080 ho        1 2P8      0.410000
     47 H5         -2.9440   -0.4710   -1.6940 h1        1 2P8      0.079700
     48 H6         -4.7010   -2.2930   -0.1330 hc        1 2P8      0.059200
     49 H6A        -3.3840   -2.7000   -1.3060 hc        1 2P8      0.059200
     50 H7         -3.3170   -2.9010    1.6250 hc        1 2P8      0.054700
     51 H7A        -1.9890   -3.2840    0.4600 hc        1 2P8      0.054700
     52 H8         -2.2220   -0.9620    2.2600 h1        1 2P8      0.060700
     53 H8A        -0.8630   -1.3720    1.1050 h1        1 2P8      0.060700
@<TRIPOS>BOND
     1    1    2 2   
     2    1    3 1   
     3    1   11 1   
     4    3    4 1   
     5    3   27 1   
     6    4    5 1   
     7    4   28 1   
     8    4   29 1   
     9    5    6 ar  
    10    5   10 ar  
    11    6    7 ar  
    12    6   30 1   
    13    7    8 ar  
    14    7   31 1   
    15    8    9 ar  
    16    8   32 1   
    17    9   10 ar  
    18    9   33 1   
    19   10   34 1   
    20   11   12 1   
    21   11   17 1   
    22   12   13 1   
    23   12   15 1   
    24   12   35 1   
    25   13   14 2   
    26   13   26 1   
    27   15   16 1   
    28   15   36 1   
    29   15   37 1   
    30   16   17 1   
    31   16   38 1   
    32   16   39 1   
    33   17   40 1   
    34   17   41 1   
    35   18   19 1   
    36   18   20 1   
    37   18   22 1   
    38   18   42 1   
    39   19   43 1   
    40   20   21 1   
    41   20   44 1   
    42   20   45 1   
    43   21   46 1   
    44   22   23 1   
    45   22   26 1   
    46   22   47 1   
    47   23   24 1   
    48   23   48 1   
    49   23   49 1   
    50   24   25 1   
    51   24   50 1   
    52   24   51 1   
    53   25   26 1   
    54   25   52 1   
    55   25   53 1   
@<TRIPOS>SUBSTRUCTURE
     1 2P8         1 TEMP              0 ****  ****    0 ROOT
