@<TRIPOS>MOLECULE
2P8
   53    51     1     0     0
SMALL
bcc


@<TRIPOS>ATOM
      1 C17        -0.1400   -0.7910    1.4210 c1        1 2P8      0.369000
      2 O18         1.0830   -0.8340    1.4300 o         1 2P8     -0.411000
      3 N19        -0.8690   -0.8460    2.6610 n3        1 2P8     -0.329000
      4 C20        -0.2490   -1.3790    3.8290 c3        1 2P8     -0.008000
      5 C21        -1.2860   -1.3800    5.0260 c2        1 2P8     -0.122000
      6 C22        -2.1640   -2.4410    5.1790 c1        1 2P8     -0.124000
      7 C23        -3.0000   -2.4960    6.2860 c1        1 2P8     -0.125500
      8 C24        -2.9560   -1.4860    7.2430 c1        1 2P8     -0.125500
      9 C25        -2.0830   -0.4300    7.0930 c1        1 2P8     -0.131000
     10 C26        -1.2430   -0.3720    5.9820 c2        1 2P8     -0.106000
     11 N16        -0.8280   -0.8300    0.2090 n2        1 2P8     -0.295000
     12 C12        -0.1940   -0.9290   -1.2360 c3        1 2P8      0.005000
     13 C10         0.4780    0.3690   -1.5840 c1        1 2P8      0.313000
     14 O11        -0.0390    1.4390   -1.2510 o         1 2P8     -0.395000
     15 C13        -1.2760   -1.2110   -1.9890 c3        1 2P8     -0.164000
     16 C14        -2.5410   -0.5960   -1.2350 c3        1 2P8     -0.168000
     17 C15        -2.3560   -0.7870    0.0160 c3        1 2P8     -0.043000
     18 C1          1.3240    2.5250   -3.1340 c3        1 2P8     -0.003000
     19 O2          0.7670    2.9890   -1.9710 oh        1 2P8     -0.359000
     20 C3          2.0760    3.6750   -3.8390 c3        1 2P8     -0.008000
     21 O4          1.1380    4.6730   -4.2550 oh        1 2P8     -0.331000
     22 C5          2.3100    1.3830   -2.8100 c3        1 2P8     -0.002000
     23 C6          3.0430    0.8940   -4.1320 c3        1 2P8     -0.165000
     24 C7          2.9190   -0.6150   -4.1280 c3        1 2P8     -0.169000
     25 C8          2.4940   -0.9180   -2.9130 c3        1 2P8     -0.043000
     26 N9          1.6850    0.3680   -2.3860 n2        1 2P8     -0.322000
     27 HN19       -1.7620   -0.6190    2.6790 hn        1 2P8      0.210000
     28 H20         0.5250   -0.8270    4.0690 h1        1 2P8      0.116500
     29 H20A        0.0470   -2.3000    3.6510 h1        1 2P8      0.116500
     30 H22        -2.1960   -3.1560    4.5010 ha        1 2P8      0.128000
     31 H23        -3.6260   -3.2530    6.3950 ha        1 2P8      0.133500
     32 H24        -3.5590   -1.5260    8.0410 ha        1 2P8      0.133500
     33 H25        -2.0530    0.2920    7.7790 ha        1 2P8      0.134000
     34 H26        -0.6170    0.3850    5.8740 ha        1 2P8      0.142000
     35 H12         0.5310   -1.5740   -1.3850 h1        1 2P8      0.131000
     36 H13        -1.1830   -0.8040   -2.8640 hc        1 2P8      0.103500
     37 H13A       -1.3770   -2.1720   -2.0800 hc        1 2P8      0.103500
     38 H14        -3.3570   -1.0540   -1.5250 hc        1 2P8      0.098500
     39 H14A       -2.6110    0.3740   -1.4240 hc        1 2P8      0.098500
     40 H15        -2.7370   -0.0590    0.5240 h1        1 2P8      0.092500
     41 H15A       -2.7550   -1.6380    0.2910 h1        1 2P8      0.092500
     42 H1          0.6220    2.1920   -3.7180 h1        1 2P8      0.096000
     43 HO2         0.4170    3.7750   -2.1080 ho        1 2P8      0.243000
     44 H3          2.5430    3.3270   -4.6150 h1        1 2P8      0.085000
     45 H3A         2.7230    4.0720   -3.2190 h1        1 2P8      0.085000
     46 HO4         1.5340    5.2340   -4.8350 ho        1 2P8      0.221000
     47 H5          2.9680    1.6790   -2.1450 h1        1 2P8      0.107000
     48 H6          2.6020    1.2680   -4.9200 hc        1 2P8      0.096000
     49 H6A         3.9960    1.1600   -4.1140 hc        1 2P8      0.096000
     50 H7          3.8070   -1.0370   -4.3000 hc        1 2P8      0.094000
     51 H7A         2.2620   -0.9070   -4.8040 hc        1 2P8      0.094000
     52 H8          1.8970   -1.7040   -2.9480 h1        1 2P8      0.104500
     53 H8A         3.2680   -1.1020   -2.3160 h1        1 2P8      0.104500
@<TRIPOS>BOND
     1    1    2 1   
     2    1    3 1   
     3    3    4 1   
     4    3   27 1   
     5    4    5 1   
     6    4   28 1   
     7    4   29 1   
     8    5    6 1   
     9    5   10 1   
    10    6   30 1   
    11    7    8 1   
    12    7   31 1   
    13    8   32 1   
    14    9   10 1   
    15    9   33 1   
    16   10   34 1   
    17   11   12 1   
    18   11   17 1   
    19   12   13 1   
    20   12   15 1   
    21   12   35 1   
    22   13   14 1   
    23   15   16 1   
    24   15   36 1   
    25   15   37 1   
    26   16   17 1   
    27   16   38 1   
    28   16   39 1   
    29   17   40 1   
    30   17   41 1   
    31   18   19 1   
    32   18   20 1   
    33   18   22 1   
    34   18   42 1   
    35   19   43 1   
    36   20   21 1   
    37   20   44 1   
    38   20   45 1   
    39   21   46 1   
    40   22   23 1   
    41   22   26 1   
    42   22   47 1   
    43   23   24 1   
    44   23   48 1   
    45   23   49 1   
    46   24   25 1   
    47   24   50 1   
    48   24   51 1   
    49   25   26 1   
    50   25   52 1   
    51   25   53 1   
@<TRIPOS>SUBSTRUCTURE
     1 2P8         1 TEMP              0 ****  ****    0 ROOT
