@<TRIPOS>MOLECULE
2P8
   54    56     1     0     0
SMALL
bcc


@<TRIPOS>ATOM
      1 C17        -0.0830   -1.1680   -0.3830 c         1 2P8      0.656100
      2 O18         0.9990   -1.6690   -0.0850 o         1 2P8     -0.447100
      3 N19        -0.7570   -0.3490    0.7200 ny        1 2P8     -0.675800
      4 C20        -0.0920   -0.5190    2.0530 c3        1 2P8      0.181100
      5 C21        -0.7690    0.3140    3.0860 ca        1 2P8     -0.186300
      6 C22        -1.6650   -0.2750    3.9860 ca        1 2P8     -0.101500
      7 C23        -2.2600    0.5020    4.9790 ca        1 2P8     -0.120500
      8 C24        -1.9660    1.8630    5.0730 ca        1 2P8     -0.082000
      9 C25        -1.0730    2.4510    4.1750 ca        1 2P8     -0.120500
     10 C26        -0.4720    1.6790    3.1830 ca        1 2P8     -0.101500
     11 N16        -0.7400   -1.3470   -1.6070 n         1 2P8     -0.386800
     12 C12        -0.0220   -0.8270   -2.7880 c3        1 2P8      0.007700
     13 C10         0.6850    0.5210   -2.4980 c         1 2P8      0.649100
     14 O11         0.4610    1.1050   -1.4040 o         1 2P8     -0.696100
     15 C13        -1.0760   -0.6600   -3.9030 c3        1 2P8     -0.084400
     16 C14        -2.4330   -0.9580   -3.2720 c3        1 2P8     -0.084400
     17 C15        -2.1790   -1.1450   -1.7680 c3        1 2P8      0.044000
     18 C1          1.3420    3.5440   -3.2390 c3        1 2P8      0.134100
     19 O2          2.2050    4.6380   -2.9760 oh        1 2P8     -0.597800
     20 C3          0.6020    3.7520   -4.5640 c3        1 2P8      0.097400
     21 O4         -0.1650    4.9330   -4.3900 oh        1 2P8     -0.609800
     22 C5          2.2540    2.2950   -3.2250 c3        1 2P8      0.102700
     23 C6          3.3530    2.3420   -4.3060 c3        1 2P8     -0.086400
     24 C7          3.0640    1.2020   -5.2770 c3        1 2P8     -0.090400
     25 C8          1.9620    0.3470   -4.6310 c3        1 2P8      0.081000
     26 N9          1.5160    1.0460   -3.4360 n         1 2P8     -0.429800
     27 HN19       -0.6800    0.6420    0.4290 hn        1 2P8      0.464300
     28 H20         0.9900   -0.2170    1.9330 hx        1 2P8      0.115200
     29 H20A       -0.1260   -1.6150    2.3160 hx        1 2P8      0.115200
     30 H22        -1.8870   -1.3510    3.9260 ha        1 2P8      0.141500
     31 H23        -2.9580    0.0370    5.6930 ha        1 2P8      0.157000
     32 H24        -2.4360    2.4740    5.8610 ha        1 2P8      0.158000
     33 H25        -0.8350    3.5230    4.2550 ha        1 2P8      0.157000
     34 H26         0.2470    2.1410    2.4880 ha        1 2P8      0.141500
     35 H12         0.7550   -1.5990   -3.0620 h1        1 2P8      0.119700
     36 H13        -1.0530    0.3760   -4.3230 hc        1 2P8      0.080200
     37 H13A       -0.8580   -1.3760   -4.7350 hc        1 2P8      0.080200
     38 H14        -3.1530   -0.1200   -3.4410 hc        1 2P8      0.081200
     39 H14A       -2.8770   -1.8890   -3.7070 hc        1 2P8      0.081200
     40 H15        -2.5620   -0.2410   -1.2180 h1        1 2P8      0.061200
     41 H15A       -2.7000   -2.0610   -1.3760 h1        1 2P8      0.061200
     42 H1          0.5850    3.4570   -2.4060 h1        1 2P8      0.062700
     43 HO2         1.6620    5.4370   -3.0400 ho        1 2P8      0.433000
     44 H3          1.3280    3.8710   -5.4110 h1        1 2P8      0.034200
     45 H3A        -0.0830    2.8890   -4.7780 h1        1 2P8      0.034200
     46 HO4        -0.4390    5.2260   -5.2670 ho        1 2P8      0.418000
     47 H5          2.7250    2.2660   -2.1970 h1        1 2P8      0.090700
     48 H6          3.3540    3.3370   -4.8170 hc        1 2P8      0.078200
     49 H6A         4.3540    2.2090   -3.8250 hc        1 2P8      0.078200
     50 H7          2.7150    1.5970   -6.2630 hc        1 2P8      0.068200
     51 H7A         3.9780    0.5840   -5.4580 hc        1 2P8      0.068200
     52 H8          2.3600   -0.6700   -4.3570 h1        1 2P8      0.052700
     53 H8A         1.0930    0.2090   -5.3320 h1        1 2P8      0.052700
     54 H192       -1.7470   -0.5890    0.8040 hn        1 2P8      0.464300
@<TRIPOS>BOND
     1    1    2 2   
     2    1    3 1   
     3    1   11 1   
     4    3    4 1   
     5    3   27 1   
     6    3   54 1   
     7    4    5 1   
     8    4   28 1   
     9    4   29 1   
    10    5    6 ar  
    11    5   10 ar  
    12    6    7 ar  
    13    6   30 1   
    14    7    8 ar  
    15    7   31 1   
    16    8    9 ar  
    17    8   32 1   
    18    9   10 ar  
    19    9   33 1   
    20   10   34 1   
    21   11   12 1   
    22   11   17 1   
    23   12   13 1   
    24   12   15 1   
    25   12   35 1   
    26   13   14 2   
    27   13   26 1   
    28   15   16 1   
    29   15   36 1   
    30   15   37 1   
    31   16   17 1   
    32   16   38 1   
    33   16   39 1   
    34   17   40 1   
    35   17   41 1   
    36   18   19 1   
    37   18   20 1   
    38   18   22 1   
    39   18   42 1   
    40   19   43 1   
    41   20   21 1   
    42   20   44 1   
    43   20   45 1   
    44   21   46 1   
    45   22   23 1   
    46   22   26 1   
    47   22   47 1   
    48   23   24 1   
    49   23   48 1   
    50   23   49 1   
    51   24   25 1   
    52   24   50 1   
    53   24   51 1   
    54   25   26 1   
    55   25   52 1   
    56   25   53 1   
@<TRIPOS>SUBSTRUCTURE
     1 2P8         1 TEMP              0 ****  ****    0 ROOT
