@<TRIPOS>MOLECULE
2P8
   54    56     1     0     0
SMALL
bcc


@<TRIPOS>ATOM
      1 C17        -0.0740   -1.1670   -0.3870 c         1 2P8      0.656100
      2 O18         1.0090   -1.6630   -0.0820 o         1 2P8     -0.447100
      3 N19        -0.7600   -0.3520    0.7120 n4        1 2P8     -0.675800
      4 C20        -0.1020   -0.5190    2.0490 c3        1 2P8      0.181100
      5 C21        -0.7900    0.3090    3.0790 ca        1 2P8     -0.186300
      6 C22        -1.6870   -0.2850    3.9740 ca        1 2P8     -0.102000
      7 C23        -2.2930    0.4880    4.9630 ca        1 2P8     -0.120500
      8 C24        -2.0090    1.8510    5.0590 ca        1 2P8     -0.082000
      9 C25        -1.1150    2.4450    4.1650 ca        1 2P8     -0.120500
     10 C26        -0.5030    1.6770    3.1760 ca        1 2P8     -0.102000
     11 N16        -0.7230   -1.3500   -1.6150 n         1 2P8     -0.386800
     12 C12        -0.0010   -0.8250   -2.7910 c3        1 2P8      0.007700
     13 C10         0.6970    0.5260   -2.4970 c         1 2P8      0.649100
     14 O11         0.4630    1.1090   -1.4030 o         1 2P8     -0.696100
     15 C13        -1.0490   -0.6640   -3.9130 c3        1 2P8     -0.084400
     16 C14        -2.4080   -0.9700   -3.2900 c3        1 2P8     -0.084400
     17 C15        -2.1610   -1.1560   -1.7840 c3        1 2P8      0.044000
     18 C1          1.3410    3.5540   -3.2320 c3        1 2P8      0.134100
     19 O2          2.1970    4.6530   -2.9620 oh        1 2P8     -0.597800
     20 C3          0.6080    3.7580   -4.5610 c3        1 2P8      0.097400
     21 O4         -0.1670    4.9340   -4.3910 oh        1 2P8     -0.609800
     22 C5          2.2600    2.3100   -3.2130 c3        1 2P8      0.102700
     23 C6          3.3650    2.3640   -4.2870 c3        1 2P8     -0.086400
     24 C7          3.0890    1.2230   -5.2600 c3        1 2P8     -0.090400
     25 C8          1.9880    0.3610   -4.6210 c3        1 2P8      0.081000
     26 N9          1.5310    1.0570   -3.4290 n         1 2P8     -0.429800
     27 HN19       -0.6880    0.6380    0.4220 hn        1 2P8      0.464300
     28 H20        -0.1300   -1.6150    2.3120 hx        1 2P8      0.115200
     29 H20A        0.9790   -0.2100    1.9360 hx        1 2P8      0.115200
     30 H22        -1.9010   -1.3630    3.9130 ha        1 2P8      0.141500
     31 H23        -2.9920    0.0180    5.6740 ha        1 2P8      0.157000
     32 H24        -2.4870    2.4590    5.8440 ha        1 2P8      0.158000
     33 H25        -0.8850    3.5190    4.2470 ha        1 2P8      0.157000
     34 H26         0.2170    2.1430    2.4860 ha        1 2P8      0.141500
     35 H12         0.7830   -1.5920   -3.0610 h1        1 2P8      0.119700
     36 H13        -1.0290    0.3730   -4.3320 hc        1 2P8      0.080200
     37 H13A       -0.8210   -1.3780   -4.7440 hc        1 2P8      0.080200
     38 H14        -2.8430   -1.9030   -3.7280 hc        1 2P8      0.081200
     39 H14A       -3.1310   -0.1360   -3.4630 hc        1 2P8      0.081200
     40 H15        -2.6800   -2.0750   -1.3960 h1        1 2P8      0.061200
     41 H15A       -2.5530   -0.2550   -1.2360 h1        1 2P8      0.061200
     42 H1          0.5800    3.4620   -2.4040 h1        1 2P8      0.062700
     43 HO2         1.6490    5.4490   -3.0290 ho        1 2P8      0.433000
     44 H3          1.3390    3.8840   -5.4030 h1        1 2P8      0.034200
     45 H3A        -0.0700    2.8920   -4.7800 h1        1 2P8      0.034200
     46 HO4        -0.4380    5.2270   -5.2690 ho        1 2P8      0.418000
     47 H5          2.7250    2.2830   -2.1820 h1        1 2P8      0.090700
     48 H6          3.3630    3.3590   -4.7980 hc        1 2P8      0.078200
     49 H6A         4.3640    2.2370   -3.8000 hc        1 2P8      0.078200
     50 H7          2.7430    1.6160   -6.2480 hc        1 2P8      0.068200
     51 H7A         4.0070    0.6100   -5.4360 hc        1 2P8      0.068200
     52 H8          2.3900   -0.6530   -4.3450 h1        1 2P8      0.052700
     53 H8A         1.1240    0.2180   -5.3270 h1        1 2P8      0.052700
     54 H192       -1.7490   -0.5990    0.7910 hn        1 2P8      0.464300
@<TRIPOS>BOND
     1    1    2 2   
     2    1    3 1   
     3    1   11 1   
     4    3    4 1   
     5    3   27 1   
     6    3   54 1   
     7    4    5 1   
     8    4   28 1   
     9    4   29 1   
    10    5    6 ar  
    11    5   10 ar  
    12    6    7 ar  
    13    6   30 1   
    14    7    8 ar  
    15    7   31 1   
    16    8    9 ar  
    17    8   32 1   
    18    9   10 ar  
    19    9   33 1   
    20   10   34 1   
    21   11   12 1   
    22   11   17 1   
    23   12   13 1   
    24   12   15 1   
    25   12   35 1   
    26   13   14 2   
    27   13   26 1   
    28   15   16 1   
    29   15   36 1   
    30   15   37 1   
    31   16   17 1   
    32   16   38 1   
    33   16   39 1   
    34   17   40 1   
    35   17   41 1   
    36   18   19 1   
    37   18   20 1   
    38   18   22 1   
    39   18   42 1   
    40   19   43 1   
    41   20   21 1   
    42   20   44 1   
    43   20   45 1   
    44   21   46 1   
    45   22   23 1   
    46   22   26 1   
    47   22   47 1   
    48   23   24 1   
    49   23   48 1   
    50   23   49 1   
    51   24   25 1   
    52   24   50 1   
    53   24   51 1   
    54   25   26 1   
    55   25   52 1   
    56   25   53 1   
@<TRIPOS>SUBSTRUCTURE
     1 2P8         1 TEMP              0 ****  ****    0 ROOT
