@<TRIPOS>MOLECULE
2P8
   54    56     1     0     0
SMALL
bcc


@<TRIPOS>ATOM
      1 C17        -0.0650   -1.1680   -0.3880 c         1 2P8      0.656100
      2 O18         1.0210   -1.6580   -0.0840 o         1 2P8     -0.447100
      3 N19        -0.7540   -0.3570    0.7120 n4        1 2P8     -0.675800
      4 C20        -0.0950   -0.5220    2.0490 c3        1 2P8      0.181100
      5 C21        -0.7870    0.3020    3.0790 ca        1 2P8     -0.186300
      6 C22        -1.6830   -0.2980    3.9710 ca        1 2P8     -0.101500
      7 C23        -2.2930    0.4700    4.9620 ca        1 2P8     -0.121000
      8 C24        -2.0140    1.8340    5.0610 ca        1 2P8     -0.082000
      9 C25        -1.1200    2.4330    4.1710 ca        1 2P8     -0.121000
     10 C26        -0.5040    1.6690    3.1810 ca        1 2P8     -0.101500
     11 N16        -0.7130   -1.3540   -1.6160 n         1 2P8     -0.386800
     12 C12         0.0050   -0.8250   -2.7920 c3        1 2P8      0.007700
     13 C10         0.6970    0.5300   -2.4980 c         1 2P8      0.649100
     14 O11         0.4610    1.1110   -1.4040 o         1 2P8     -0.696100
     15 C13        -1.0440   -0.6680   -3.9130 c3        1 2P8     -0.084400
     16 C14        -2.4010   -0.9810   -3.2900 c3        1 2P8     -0.084400
     17 C15        -2.1530   -1.1660   -1.7840 c3        1 2P8      0.044000
     18 C1          1.3260    3.5610   -3.2320 c3        1 2P8      0.134100
     19 O2          2.1770    4.6640   -2.9630 oh        1 2P8     -0.597800
     20 C3          0.5910    3.7620   -4.5620 c3        1 2P8      0.097400
     21 O4         -0.1890    4.9340   -4.3900 oh        1 2P8     -0.609800
     22 C5          2.2510    2.3220   -3.2150 c3        1 2P8      0.102700
     23 C6          3.3550    2.3810   -4.2900 c3        1 2P8     -0.086400
     24 C7          3.0840    1.2390   -5.2630 c3        1 2P8     -0.090400
     25 C8          1.9880    0.3720   -4.6230 c3        1 2P8      0.081000
     26 N9          1.5270    1.0650   -3.4300 n         1 2P8     -0.429800
     27 HN19       -1.7420   -0.6080    0.7900 hn        1 2P8      0.464300
     28 H20        -0.1170   -1.6190    2.3100 hx        1 2P8      0.115200
     29 H20A        0.9850   -0.2080    1.9360 hx        1 2P8      0.115200
     30 H22        -1.8940   -1.3760    3.9080 ha        1 2P8      0.141500
     31 H23        -2.9910   -0.0030    5.6700 ha        1 2P8      0.157000
     32 H24        -2.4950    2.4390    5.8480 ha        1 2P8      0.158000
     33 H25        -0.8940    3.5080    4.2550 ha        1 2P8      0.157000
     34 H26         0.2150    2.1400    2.4930 ha        1 2P8      0.141500
     35 H12         0.7920   -1.5880   -3.0630 h1        1 2P8      0.119700
     36 H13        -0.8130   -1.3810   -4.7440 hc        1 2P8      0.080200
     37 H13A       -1.0300    0.3690   -4.3320 hc        1 2P8      0.080200
     38 H14        -3.1290   -0.1500   -3.4620 hc        1 2P8      0.081200
     39 H14A       -2.8330   -1.9160   -3.7280 hc        1 2P8      0.081200
     40 H15        -2.6670   -2.0880   -1.3950 h1        1 2P8      0.061200
     41 H15A       -2.5490   -0.2670   -1.2360 h1        1 2P8      0.061200
     42 H1          0.5660    3.4650   -2.4040 h1        1 2P8      0.062700
     43 HO2         1.6250    5.4570   -3.0300 ho        1 2P8      0.433000
     44 H3          1.3210    3.8900   -5.4040 h1        1 2P8      0.034200
     45 H3A        -0.0830    2.8920   -4.7800 h1        1 2P8      0.034200
     46 HO4        -0.4620    5.2260   -5.2680 ho        1 2P8      0.418000
     47 H5          2.7170    2.2960   -2.1840 h1        1 2P8      0.090700
     48 H6          3.3480    3.3760   -4.8000 hc        1 2P8      0.078200
     49 H6A         4.3550    2.2580   -3.8030 hc        1 2P8      0.078200
     50 H7          2.7350    1.6310   -6.2500 hc        1 2P8      0.068200
     51 H7A         4.0050    0.6300   -5.4400 hc        1 2P8      0.068200
     52 H8          2.3940   -0.6410   -4.3480 h1        1 2P8      0.052700
     53 H8A         1.1230    0.2250   -5.3290 h1        1 2P8      0.052700
     54 H192       -0.6850    0.6340    0.4230 hn        1 2P8      0.464300
@<TRIPOS>BOND
     1    1    2 2   
     2    1    3 1   
     3    1   11 1   
     4    3    4 1   
     5    3   27 1   
     6    3   54 1   
     7    4    5 1   
     8    4   28 1   
     9    4   29 1   
    10    5    6 ar  
    11    5   10 ar  
    12    6    7 ar  
    13    6   30 1   
    14    7    8 ar  
    15    7   31 1   
    16    8    9 ar  
    17    8   32 1   
    18    9   10 ar  
    19    9   33 1   
    20   10   34 1   
    21   11   12 1   
    22   11   17 1   
    23   12   13 1   
    24   12   15 1   
    25   12   35 1   
    26   13   14 2   
    27   13   26 1   
    28   15   16 1   
    29   15   36 1   
    30   15   37 1   
    31   16   17 1   
    32   16   38 1   
    33   16   39 1   
    34   17   40 1   
    35   17   41 1   
    36   18   19 1   
    37   18   20 1   
    38   18   22 1   
    39   18   42 1   
    40   19   43 1   
    41   20   21 1   
    42   20   44 1   
    43   20   45 1   
    44   21   46 1   
    45   22   23 1   
    46   22   26 1   
    47   22   47 1   
    48   23   24 1   
    49   23   48 1   
    50   23   49 1   
    51   24   25 1   
    52   24   50 1   
    53   24   51 1   
    54   25   26 1   
    55   25   52 1   
    56   25   53 1   
@<TRIPOS>SUBSTRUCTURE
     1 2P8         1 TEMP              0 ****  ****    0 ROOT
