@<TRIPOS>MOLECULE
2P9
   57    61     1     0     0
SMALL
bcc


@<TRIPOS>ATOM
      1 O01         7.2680   -4.9170    2.4550 o         1 2P9     -0.804800
      2 C02         6.7450   -3.9130    2.9970 c         1 2P9      0.835100
      3 C03         6.0170   -2.9030    2.1080 cc        1 2P9      0.303800
      4 N04         6.3660   -2.5120    0.8700 nd        1 2P9     -0.490800
      5 N05         5.4280   -1.6170    0.4370 na        1 2P9      0.110300
      6 C06         5.6600   -0.8200   -0.7050 ca        1 2P9      0.077800
      7 C07         5.2690    0.5350   -0.7560 ca        1 2P9     -0.159000
      8 C08         5.4940    1.2900   -1.9080 ca        1 2P9      0.037400
      9 CL2         4.9930    2.9160   -1.9250 cl        1 2P9     -0.090400
     10 C10         6.1260    0.7210   -3.0190 ca        1 2P9     -0.015600
     11 CL          6.4130    1.6210   -4.4330 cl        1 2P9     -0.100400
     12 C12         6.5360   -0.6150   -2.9660 ca        1 2P9     -0.111000
     13 C13         6.3100   -1.3820   -1.8320 ca        1 2P9     -0.126000
     14 C14         4.4500   -1.3810    1.4530 cd        1 2P9     -0.100300
     15 C15         3.2710   -0.5450    1.3470 ca        1 2P9      0.010000
     16 C16         2.5120   -0.4730    0.1690 ca        1 2P9     -0.123000
     17 C17         1.3730    0.3260    0.1120 ca        1 2P9     -0.119000
     18 C18         0.9670    1.0600    1.2310 ca        1 2P9     -0.119300
     19 C19        -0.2040    1.9910    1.1560 c3        1 2P9      0.121300
     20 N20        -1.4400    1.3460    0.7750 n         1 2P9     -0.468900
     21 C21        -2.6440    1.9420    0.9900 c         1 2P9      0.454000
     22 C22        -3.8450    1.1700    0.5940 ca        1 2P9     -0.146600
     23 C23        -4.7720    1.7780   -0.2680 ca        1 2P9     -0.072000
     24 C24        -5.9250    1.1140   -0.6610 ca        1 2P9     -0.131000
     25 C25        -6.1940   -0.1850   -0.1930 ca        1 2P9     -0.040500
     26 C26        -7.3830   -0.8830   -0.5900 cc        1 2P9      0.194200
     27 C27        -7.8900   -2.1450   -0.2910 cd        1 2P9     -0.214300
     28 C28        -9.1330   -2.2700   -0.9940 cd        1 2P9     -0.314300
     29 C29        -9.3290   -1.0790   -1.6910 cc        1 2P9      0.277200
     30 C30       -10.4520   -0.6130   -2.6060 c         1 2P9      0.827100
     31 O31       -10.3480    0.5120   -3.1540 o         1 2P9     -0.798800
     32 O32       -11.4130   -1.4170   -2.7400 o         1 2P9     -0.798800
     33 O33        -8.2690   -0.2180   -1.4570 os        1 2P9     -0.322800
     34 C34        -5.2780   -0.7960    0.6790 ca        1 2P9     -0.147000
     35 C35        -4.1170   -0.1240    1.0620 ca        1 2P9      0.041400
     36 CL3        -3.0570   -0.9140    2.1430 cl        1 2P9     -0.110400
     37 S37        -2.8190    3.4200    1.5830 s         1 2P9     -0.550400
     38 C38         1.7040    0.9680    2.4160 ca        1 2P9     -0.119000
     39 C39         2.8470    0.1760    2.4750 ca        1 2P9     -0.123000
     40 C40         4.8010   -2.2040    2.5240 cc        1 2P9     -0.225300
     41 O41         6.7370   -3.6560    4.2310 o         1 2P9     -0.804800
     42 H2          4.7830    1.0050    0.1150 ha        1 2P9      0.167000
     43 H3          7.0420   -1.0670   -3.8330 ha        1 2P9      0.143000
     44 H4          6.6500   -2.4310   -1.8090 ha        1 2P9      0.172000
     45 H5          2.8240   -1.0480   -0.7170 ha        1 2P9      0.146000
     46 H6          0.7960    0.3860   -0.8230 ha        1 2P9      0.133000
     47 H7         -0.3600    2.5120    2.1500 h1        1 2P9      0.072700
     48 H8          0.0210    2.7960    0.3940 h1        1 2P9      0.072700
     49 H9         -1.3930    0.3980    0.4700 hn        1 2P9      0.326500
     50 H10        -4.5790    2.8050   -0.6190 ha        1 2P9      0.152000
     51 H11        -6.6480    1.5970   -1.3400 ha        1 2P9      0.171000
     52 H12        -7.4360   -2.8940    0.3500 ha        1 2P9      0.137000
     53 H13        -9.8030   -3.1230   -0.9910 ha        1 2P9      0.161000
     54 H15        -5.4840   -1.8080    1.0610 ha        1 2P9      0.148000
     55 H16         1.3830    1.5280    3.3080 ha        1 2P9      0.133000
     56 H17         3.4260    0.1060    3.4080 ha        1 2P9      0.146000
     57 H18         4.3040   -2.3390    3.4780 ha        1 2P9      0.175000
@<TRIPOS>BOND
     1    1    2 1   
     2    2    3 1   
     3    2   41 1   
     4    3    4 2   
     5    3   40 1   
     6    4    5 1   
     7    5    6 1   
     8    5   14 1   
     9    6    7 ar  
    10    6   13 ar  
    11    7    8 ar  
    12    7   42 1   
    13    8    9 1   
    14    8   10 ar  
    15   10   11 1   
    16   10   12 ar  
    17   12   13 ar  
    18   12   43 1   
    19   13   44 1   
    20   14   15 1   
    21   14   40 2   
    22   15   16 ar  
    23   15   39 ar  
    24   16   17 ar  
    25   16   45 1   
    26   17   18 ar  
    27   17   46 1   
    28   18   19 1   
    29   18   38 ar  
    30   19   20 1   
    31   19   47 1   
    32   19   48 1   
    33   20   21 1   
    34   20   49 1   
    35   21   22 1   
    36   21   37 2   
    37   22   23 ar  
    38   22   35 ar  
    39   23   24 ar  
    40   23   50 1   
    41   24   25 ar  
    42   24   51 1   
    43   25   26 1   
    44   25   34 ar  
    45   26   27 2   
    46   26   33 1   
    47   27   28 1   
    48   27   52 1   
    49   28   29 2   
    50   28   53 1   
    51   29   30 1   
    52   29   33 1   
    53   30   31 1   
    54   30   32 1   
    55   34   35 ar  
    56   34   54 1   
    57   35   36 1   
    58   38   39 ar  
    59   38   55 1   
    60   39   56 1   
    61   40   57 1   
@<TRIPOS>SUBSTRUCTURE
     1 2P9         1 TEMP              0 ****  ****    0 ROOT
