@<TRIPOS>MOLECULE
2P9
   57    45     1     0     0
SMALL
bcc


@<TRIPOS>ATOM
      1 O01        -7.3640    0.1360   -3.7700 o         1 2P9     -0.538000
      2 C02        -7.2480   -0.4870   -2.6820 c2        1 2P9      0.396000
      3 C03        -6.4110    0.0940   -1.5620 c2        1 2P9     -0.104000
      4 N04        -6.8290    0.9790   -0.6370 n2        1 2P9     -0.067000
      5 N05        -5.7780    1.2440    0.2030 n2        1 2P9     -0.129000
      6 C06        -5.8050    2.1090    1.3190 c1        1 2P9      0.067000
      7 C07        -5.1720    3.3420    1.2560 c1        1 2P9     -0.140000
      8 C08        -5.1830    4.1820    2.3570 c1        1 2P9     -0.067500
      9 CL2        -4.3010    5.6880    2.3140 cl        1 2P9     -0.017500
     10 C10        -5.8290    3.7900    3.5220 c1        1 2P9     -0.067500
     11 CL         -5.9720    4.9040    4.8540 cl        1 2P9     -0.017500
     12 C12        -6.4600    2.5590    3.5830 c1        1 2P9     -0.111500
     13 C13        -6.4480    1.7190    2.4810 c2        1 2P9     -0.126000
     14 C14        -4.7210    0.5190   -0.2110 c1        1 2P9     -0.072000
     15 C15        -3.3390    0.5080    0.4250 c1        1 2P9      0.067000
     16 C16        -3.0720   -0.3440    1.4890 c2        1 2P9     -0.126000
     17 C17        -1.8000   -0.3900    2.0390 c1        1 2P9     -0.111500
     18 C18        -0.7890    0.4170    1.5250 c1        1 2P9     -0.022500
     19 C19         0.5920    0.4320    2.1950 c2        1 2P9     -0.003000
     20 N20         1.4880   -0.4470    1.4710 n         1 2P9     -0.278000
     21 C21         2.9000   -0.4570    1.7820 c2        1 2P9      0.083000
     22 C22         3.9230   -0.8800    0.7040 c2        1 2P9     -0.126000
     23 C23         4.5030    0.0790   -0.1160 c2        1 2P9     -0.072000
     24 C24         5.4620   -0.2950   -1.0500 c1        1 2P9     -0.131000
     25 C25         5.8390   -1.6250   -1.1640 c1        1 2P9     -0.022500
     26 C26         6.8600   -2.0400   -2.2150 c1        1 2P9     -0.058000
     27 C27         8.2140   -2.2130   -2.0070 c1        1 2P9     -0.199000
     28 C28         8.7780   -2.6040   -3.1960 c1        1 2P9     -0.199000
     29 C29         7.7740   -2.6730   -4.1430 c1        1 2P9     -0.058000
     30 C30         7.9400   -3.0990   -5.5850 c1        1 2P9      0.386000
     31 O31         7.8020   -4.3110   -5.9050 os        1 2P9     -0.542000
     32 O32         8.2670   -2.2510   -6.4590 o         1 2P9     -0.525000
     33 O33         6.5920   -2.3240   -3.5340 os        1 2P9     -0.064000
     34 C34         5.2590   -2.5830   -0.3450 c1        1 2P9     -0.136000
     35 C35         4.3000   -2.2100    0.5910 c1        1 2P9     -0.036000
     36 CL3         3.6590   -3.3950    1.7010 cl        1 2P9     -0.032000
     37 S37         3.4120   -0.1580    3.3470 s         1 2P9     -0.267000
     38 C38        -1.0540    1.2680    0.4630 c1        1 2P9     -0.136000
     39 C39        -2.3320    1.3140   -0.0890 c1        1 2P9     -0.140000
     40 C40        -5.1050   -0.1970   -1.3060 c1        1 2P9     -0.164000
     41 O41        -7.8080   -1.6050   -2.5340 o         1 2P9     -0.538000
     42 H2         -4.7860    3.6480    0.4140 ha        1 2P9      0.158000
     43 H3         -6.9140    2.2840    4.4020 ha        1 2P9      0.138500
     44 H4         -6.8860    0.8490    2.5280 ha        1 2P9      0.158000
     45 H5         -3.7760   -0.9390    1.8300 ha        1 2P9      0.158000
     46 H6         -1.6130   -0.9900    2.7880 ha        1 2P9      0.138500
     47 H7          0.5090    0.1240    3.1200 h4        1 2P9      0.112500
     48 H8          0.9490    1.3410    2.1850 h4        1 2P9      0.112500
     49 H9          1.1650   -0.9810    0.8050 hn        1 2P9      0.240000
     50 H10         4.2020    1.0100   -0.0700 ha        1 2P9      0.152000
     51 H11         5.8730    0.3840   -1.6310 ha        1 2P9      0.171000
     52 H12         8.6920   -2.0380   -1.1780 DU        1 2P9      0.156333
     53 H13         9.7170   -2.7970   -3.3450 DU        1 2P9      0.156333
     54 H15         5.5370   -3.5210   -0.4150 ha        1 2P9      0.140500
     55 H16        -0.3480    1.8320    0.1040 ha        1 2P9      0.140500
     56 H17        -2.5200    1.9130   -0.8370 ha        1 2P9      0.158000
     57 H18        -4.5420   -0.8110   -1.8160 DU        1 2P9      0.156333
@<TRIPOS>BOND
     1    1    2 1   
     2    2    3 1   
     3    2   41 1   
     4    3    4 1   
     5    3   40 1   
     6    4    5 1   
     7    5   14 1   
     8    6    7 1   
     9    6   13 1   
    10    7   42 1   
    11    8    9 1   
    12    8   10 1   
    13   10   11 1   
    14   12   13 1   
    15   12   43 1   
    16   13   44 1   
    17   14   40 1   
    18   15   16 1   
    19   15   39 1   
    20   16   17 1   
    21   16   45 1   
    22   17   46 1   
    23   18   38 1   
    24   19   20 1   
    25   19   47 1   
    26   19   48 1   
    27   20   21 1   
    28   20   49 1   
    29   21   22 1   
    30   21   37 1   
    31   22   23 1   
    32   22   35 1   
    33   23   24 1   
    34   23   50 1   
    35   24   51 1   
    36   25   34 1   
    37   26   27 1   
    38   26   33 1   
    39   27   28 1   
    40   28   29 1   
    41   29   33 1   
    42   30   32 1   
    43   34   54 1   
    44   38   55 1   
    45   39   56 1   
@<TRIPOS>SUBSTRUCTURE
     1 2P9         1 TEMP              0 ****  ****    0 ROOT
