@<TRIPOS>MOLECULE
2P9
   58    62     1     0     0
SMALL
bcc


@<TRIPOS>ATOM
      1 O01        -0.6940    0.0270    0.7830 o         1 2P9     -0.791800
      2 C02         0.4400   -0.4990    0.7060 c         1 2P9      0.835100
      3 C03         1.4600   -0.2140    1.8180 cc        1 2P9      0.289800
      4 N04         1.3440    0.6190    2.8680 nd        1 2P9     -0.459800
      5 N05         2.4690    0.4900    3.6300 na        1 2P9      0.118300
      6 C06         2.7980    1.4570    4.6100 ca        1 2P9      0.061800
      7 C07         4.1230    1.9020    4.7940 ca        1 2P9     -0.163000
      8 C08         4.4230    2.8200    5.8010 ca        1 2P9      0.032400
      9 CL2         6.0400    3.3080    5.9980 cl        1 2P9     -0.086400
     10 C10         3.4110    3.3310    6.6220 ca        1 2P9     -0.008600
     11 CL          3.7520    4.4470    7.8560 cl        1 2P9     -0.085400
     12 C12         2.0890    2.9190    6.4190 ca        1 2P9     -0.108000
     13 C13         1.7770    1.9960    5.4310 ca        1 2P9     -0.118000
     14 C14         3.3880   -0.4220    3.0180 cd        1 2P9     -0.151300
     15 C15         4.6270   -0.9110    3.5710 ca        1 2P9      0.076000
     16 C16         4.8160   -1.0570    4.9580 ca        1 2P9     -0.132500
     17 C17         5.9880   -1.6130    5.4530 ca        1 2P9     -0.097000
     18 C18         6.9960   -2.0330    4.5750 ca        1 2P9     -0.215300
     19 C19         8.2410   -2.6340    5.1220 c3        1 2P9      0.182100
     20 N20         8.0390   -4.1050    5.3700 n4        1 2P9     -0.625800
     21 C21         9.0690   -4.6840    6.3000 c         1 2P9      0.198000
     22 C22        10.4030   -4.6890    5.7560 ca        1 2P9     -0.238600
     23 C23        10.6480   -5.0840    4.4160 ca        1 2P9     -0.075000
     24 C24        11.9210   -5.1450    3.9030 ca        1 2P9     -0.148000
     25 C25        13.0430   -4.7960    4.7020 ca        1 2P9      0.041500
     26 C26        14.3500   -4.8580    4.1830 cc        1 2P9      0.127200
     27 C27        15.6290   -4.5820    4.7120 cd        1 2P9     -0.139300
     28 C28        16.5690   -4.8470    3.6920 cd        1 2P9     -0.319300
     29 C29        15.8410   -5.2790    2.5600 cc        1 2P9      0.342200
     30 C30        16.2970   -5.7160    1.1530 c         1 2P9      0.826100
     31 O31        15.4000   -6.0480    0.3480 o         1 2P9     -0.759800
     32 O32        17.5370   -5.6890    0.9800 o         1 2P9     -0.759800
     33 O33        14.5020   -5.2890    2.8420 os        1 2P9     -0.309800
     34 C34        12.8120   -4.3910    6.0380 ca        1 2P9     -0.182000
     35 C35        11.5270   -4.3500    6.5530 ca        1 2P9      0.109400
     36 CL3        11.3370   -3.8280    8.1610 cl        1 2P9     -0.073400
     37 S37         8.5620   -5.1820    7.6670 s         1 2P9     -0.144400
     38 C38         6.8240   -1.8780    3.1950 ca        1 2P9     -0.097000
     39 C39         5.6510   -1.3230    2.6970 ca        1 2P9     -0.132500
     40 C40         2.7550   -0.8910    1.8630 cc        1 2P9     -0.189300
     41 O41         0.8560   -1.2700   -0.1980 o         1 2P9     -0.791800
     42 H2          4.9280    1.5340    4.1380 ha        1 2P9      0.160000
     43 H3          1.2850    3.3320    7.0480 ha        1 2P9      0.151000
     44 H4          0.7260    1.6940    5.2800 ha        1 2P9      0.176000
     45 H5          4.0270   -0.7300    5.6530 ha        1 2P9      0.163000
     46 H6          6.1270   -1.7140    6.5400 ha        1 2P9      0.133000
     47 H7          9.1110   -2.5220    4.4140 hx        1 2P9      0.104200
     48 H8          8.5160   -2.1570    6.1070 hx        1 2P9      0.104200
     49 H9          8.0570   -4.5900    4.4660 hn        1 2P9      0.445800
     50 H10         9.8130   -5.4000    3.7710 ha        1 2P9      0.120000
     51 H11        12.1010   -5.4750    2.8640 ha        1 2P9      0.186000
     52 H12        15.8400   -4.2320    5.7200 ha        1 2P9      0.149000
     53 H13        17.6510   -4.7480    3.7350 ha        1 2P9      0.181000
     54 H15        13.6720   -4.1100    6.6660 ha        1 2P9      0.162000
     55 H16         7.6200   -2.1840    2.4990 ha        1 2P9      0.133000
     56 H17         5.5100   -1.2030    1.6100 ha        1 2P9      0.163000
     57 H18         3.0820   -1.6270    1.1350 ha        1 2P9      0.185000
     58 H202        7.1070   -4.2420    5.7950 hn        1 2P9      0.445800
@<TRIPOS>BOND
     1    1    2 1   
     2    2    3 1   
     3    2   41 1   
     4    3    4 2   
     5    3   40 1   
     6    4    5 1   
     7    5    6 1   
     8    5   14 1   
     9    6    7 ar  
    10    6   13 ar  
    11    7    8 ar  
    12    7   42 1   
    13    8    9 1   
    14    8   10 ar  
    15   10   11 1   
    16   10   12 ar  
    17   12   13 ar  
    18   12   43 1   
    19   13   44 1   
    20   14   15 1   
    21   14   40 2   
    22   15   16 ar  
    23   15   39 ar  
    24   16   17 ar  
    25   16   45 1   
    26   17   18 ar  
    27   17   46 1   
    28   18   19 1   
    29   18   38 ar  
    30   19   20 1   
    31   19   47 1   
    32   19   48 1   
    33   20   21 1   
    34   20   49 1   
    35   20   58 1   
    36   21   22 1   
    37   21   37 2   
    38   22   23 ar  
    39   22   35 ar  
    40   23   24 ar  
    41   23   50 1   
    42   24   25 ar  
    43   24   51 1   
    44   25   26 1   
    45   25   34 ar  
    46   26   27 2   
    47   26   33 1   
    48   27   28 1   
    49   27   52 1   
    50   28   29 2   
    51   28   53 1   
    52   29   30 1   
    53   29   33 1   
    54   30   31 1   
    55   30   32 1   
    56   34   35 ar  
    57   34   54 1   
    58   35   36 1   
    59   38   39 ar  
    60   38   55 1   
    61   39   56 1   
    62   40   57 1   
@<TRIPOS>SUBSTRUCTURE
     1 2P9         1 TEMP              0 ****  ****    0 ROOT
