@<TRIPOS>MOLECULE
2P9
   58    62     1     0     0
SMALL
bcc


@<TRIPOS>ATOM
      1 O01        -0.6650    0.0280    0.7140 o         1 2P9     -0.791800
      2 C02         0.4720   -0.4910    0.6430 c         1 2P9      0.835100
      3 C03         1.4790   -0.2150    1.7700 cc        1 2P9      0.289800
      4 N04         1.3450    0.6020    2.8300 nd        1 2P9     -0.459800
      5 N05         2.4620    0.4700    3.6040 na        1 2P9      0.118300
      6 C06         2.7740    1.4250    4.6010 ca        1 2P9      0.061800
      7 C07         4.0930    1.8750    4.8060 ca        1 2P9     -0.163000
      8 C08         4.3770    2.7810    5.8300 ca        1 2P9      0.032400
      9 Cl2         5.9890    3.2760    6.0520 cl        1 2P9     -0.086400
     10 C10         3.3520    3.2740    6.6460 ca        1 2P9     -0.008600
     11 Cl          3.6720    4.3740    7.8990 cl        1 2P9     -0.085400
     12 C12         2.0350    2.8570    6.4210 ca        1 2P9     -0.108000
     13 C13         1.7400    1.9450    5.4170 ca        1 2P9     -0.118000
     14 C14         3.3940   -0.4290    2.9900 cd        1 2P9     -0.151300
     15 C15         4.6290   -0.9180    3.5500 ca        1 2P9      0.076000
     16 C16         4.8040   -1.0810    4.9360 ca        1 2P9     -0.132500
     17 C17         5.9740   -1.6370    5.4370 ca        1 2P9     -0.097000
     18 C18         6.9940   -2.0390    4.5650 ca        1 2P9     -0.215300
     19 C19         8.2360   -2.6390    5.1190 c3        1 2P9      0.182100
     20 N20         8.0390   -4.1150    5.3460 ny        1 2P9     -0.625800
     21 C21         9.0630   -4.6990    6.2810 c         1 2P9      0.198000
     22 C22        10.4020   -4.6920    5.7520 ca        1 2P9     -0.238600
     23 C23        10.6640   -5.0700    4.4100 ca        1 2P9     -0.075000
     24 C24        11.9430   -5.1190    3.9090 ca        1 2P9     -0.148000
     25 C25        13.0540   -4.7730    4.7240 ca        1 2P9      0.041500
     26 C26        14.3660   -4.8230    4.2190 cc        1 2P9      0.127200
     27 C27        15.6380   -4.5470    4.7650 cd        1 2P9     -0.139300
     28 C28        16.5910   -4.7960    3.7510 cd        1 2P9     -0.319300
     29 C29        15.8770   -5.2180    2.6070 cc        1 2P9      0.342200
     30 C30        16.3500   -5.6380    1.2000 c         1 2P9      0.826100
     31 O31        15.4630   -5.9640    0.3820 o         1 2P9     -0.759800
     32 O32        17.5920   -5.6020    1.0400 o         1 2P9     -0.759800
     33 O33        14.5350   -5.2380    2.8750 os        1 2P9     -0.309800
     34 C34        12.8060   -4.3840    6.0620 ca        1 2P9     -0.182000
     35 C35        11.5160   -4.3550    6.5640 ca        1 2P9      0.109400
     36 Cl3        11.3060   -3.8520    8.1760 cl        1 2P9     -0.073400
     37 S37         8.5440   -5.2150    7.6370 s         1 2P9     -0.144400
     38 C38         6.8360   -1.8660    3.1860 ca        1 2P9     -0.097000
     39 C39         5.6650   -1.3110    2.6820 ca        1 2P9     -0.132500
     40 C40         2.7760   -0.8850    1.8210 cc        1 2P9     -0.189300
     41 O41         0.9040   -1.2470   -0.2670 o         1 2P9     -0.791800
     42 H2          4.9090    1.5220    4.1540 ha        1 2P9      0.160000
     43 H3          1.2220    3.2560    7.0470 ha        1 2P9      0.151000
     44 H4          0.6930    1.6400    5.2500 ha        1 2P9      0.176000
     45 H5          4.0040   -0.7680    5.6270 ha        1 2P9      0.163000
     46 H6          6.1000   -1.7520    6.5250 ha        1 2P9      0.133000
     47 H7          9.1130   -2.5150    4.4210 hx        1 2P9      0.104200
     48 H8          8.4980   -2.1740    6.1120 hx        1 2P9      0.104200
     49 H9          8.0700   -4.5890    4.4380 hn        1 2P9      0.445800
     50 H10         9.8370   -5.3830    3.7530 ha        1 2P9      0.120000
     51 H11        12.1350   -5.4360    2.8680 ha        1 2P9      0.186000
     52 H12        15.8370   -4.2080    5.7790 ha        1 2P9      0.149000
     53 H13        17.6720   -4.6920    3.8070 ha        1 2P9      0.181000
     54 H15        13.6590   -4.1060    6.7020 ha        1 2P9      0.162000
     55 H16         7.6420   -2.1580    2.4950 ha        1 2P9      0.133000
     56 H17         5.5360   -1.1780    1.5950 ha        1 2P9      0.163000
     57 H18         3.1160   -1.6090    1.0860 ha        1 2P9      0.185000
     58 H202        7.1040   -4.2620    5.7600 hn        1 2P9      0.445800
@<TRIPOS>BOND
     1    1    2 1   
     2    2    3 1   
     3    2   41 1   
     4    3    4 2   
     5    3   40 1   
     6    4    5 1   
     7    5    6 1   
     8    5   14 1   
     9    6    7 ar  
    10    6   13 ar  
    11    7    8 ar  
    12    7   42 1   
    13    8    9 1   
    14    8   10 ar  
    15   10   11 1   
    16   10   12 ar  
    17   12   13 ar  
    18   12   43 1   
    19   13   44 1   
    20   14   15 1   
    21   14   40 2   
    22   15   16 ar  
    23   15   39 ar  
    24   16   17 ar  
    25   16   45 1   
    26   17   18 ar  
    27   17   46 1   
    28   18   19 1   
    29   18   38 ar  
    30   19   20 1   
    31   19   47 1   
    32   19   48 1   
    33   20   21 1   
    34   20   49 1   
    35   20   58 1   
    36   21   22 1   
    37   21   37 2   
    38   22   23 ar  
    39   22   35 ar  
    40   23   24 ar  
    41   23   50 1   
    42   24   25 ar  
    43   24   51 1   
    44   25   26 1   
    45   25   34 ar  
    46   26   27 2   
    47   26   33 1   
    48   27   28 1   
    49   27   52 1   
    50   28   29 2   
    51   28   53 1   
    52   29   30 1   
    53   29   33 1   
    54   30   31 1   
    55   30   32 1   
    56   34   35 ar  
    57   34   54 1   
    58   35   36 1   
    59   38   39 ar  
    60   38   55 1   
    61   39   56 1   
    62   40   57 1   
@<TRIPOS>SUBSTRUCTURE
     1 2P9         1 TEMP              0 ****  ****    0 ROOT
