@<TRIPOS>MOLECULE
2PA
   10     9     1     0     0
SMALL
bcc


@<TRIPOS>ATOM
      1 N4         -1.4660   -0.2840    0.0330 n3        1 2PA     -1.100900
      2 N5          0.7360    1.0650   -0.7460 n3        1 2PA     -1.100900
      3 O1          0.6790   -1.4930   -0.6650 o         1 2PA     -0.869300
      4 P2          0.1850   -0.2840    0.0330 p5        1 2PA      1.657300
      5 O3          0.7120   -0.2840    1.5230 oh        1 2PA     -0.800400
      6 HN41       -1.9220    0.1850    0.6680 hn        1 2PA      0.434800
      7 HN42       -1.9220   -0.7680   -0.5920 hn        1 2PA      0.434800
      8 HN51        0.8050    1.8550   -0.2960 hn        1 2PA      0.434800
      9 HN52        0.9890    1.0150   -1.6210 hn        1 2PA      0.434800
     10 HO31        1.2050   -1.0090    1.6630 ho        1 2PA      0.474000
@<TRIPOS>BOND
     1    1    4 1   
     2    1    6 1   
     3    1    7 1   
     4    2    4 1   
     5    2    8 1   
     6    2    9 1   
     7    3    4 2   
     8    4    5 1   
     9    5   10 1   
@<TRIPOS>SUBSTRUCTURE
     1 2PA         1 TEMP              0 ****  ****    0 ROOT
