@<TRIPOS>MOLECULE
2PA
   12    11     1     0     0
SMALL
bcc


@<TRIPOS>ATOM
      1 N4          0.0270   -0.1060   -0.0520 n4        1 2PA     -0.894700
      2 N5          2.2990    1.2740   -0.8630 n4        1 2PA     -0.894700
      3 O1          2.2780   -1.3050   -0.5480 o         1 2PA     -0.602300
      4 P2          1.7510   -0.0980    0.0300 p5        1 2PA      1.429300
      5 O3          1.9940    0.3700    1.5070 oh        1 2PA     -0.754400
      6 HN41       -0.4170    0.0930    0.8650 hn        1 2PA      0.518800
      7 HN42       -0.3060   -1.0580   -0.3180 hn        1 2PA      0.518800
      8 HN51        3.0570    0.9850   -1.5180 hn        1 2PA      0.518800
      9 HN52        1.6210    1.7760   -1.4510 hn        1 2PA      0.518800
     10 HO31        2.5300   -0.1320    2.1540 ho        1 2PA      0.603000
     11 H43        -0.4330    0.5280   -0.7180 hn        1 2PA      0.518800
     12 H53         2.7240    2.0010   -0.2560 hn        1 2PA      0.518800
@<TRIPOS>BOND
     1    1    4 1   
     2    1    6 1   
     3    1    7 1   
     4    1   11 1   
     5    2    4 1   
     6    2    8 1   
     7    2    9 1   
     8    2   12 1   
     9    3    4 2   
    10    4    5 1   
    11    5   10 1   
@<TRIPOS>SUBSTRUCTURE
     1 2PA         1 TEMP              0 ****  ****    0 ROOT
