@<TRIPOS>MOLECULE
2PA
   10     9     1     0     0
SMALL
bcc


@<TRIPOS>ATOM
      1 N4          0.8900   -0.7380    1.1730 n3        1 2PA     -1.100900
      2 N5          0.4970   -0.4510   -1.3740 n3        1 2PA     -1.100900
      3 O1         -0.1620    1.4330    0.2600 o         1 2PA     -0.869300
      4 P2          0.0150   -0.0170    0.0700 p5        1 2PA      1.657300
      5 O3         -1.4870   -0.6450    0.2300 oh        1 2PA     -0.800400
      6 HN41        0.9670   -1.7110    1.2930 hn        1 2PA      0.434800
      7 HN42        1.3470   -0.2290    1.8850 hn        1 2PA      0.434800
      8 HN51        0.5020   -1.3720   -1.7200 hn        1 2PA      0.434800
      9 HN52        0.7380    0.2160   -2.0600 hn        1 2PA      0.434800
     10 HO31       -2.1570    0.0100    0.4070 ho        1 2PA      0.474000
@<TRIPOS>BOND
     1    1    4 1   
     2    1    6 1   
     3    1    7 1   
     4    2    4 1   
     5    2    8 1   
     6    2    9 1   
     7    3    4 2   
     8    4    5 1   
     9    5   10 1   
@<TRIPOS>SUBSTRUCTURE
     1 2PA         1 TEMP              0 ****  ****    0 ROOT
