@<TRIPOS>MOLECULE
2PB
   18    18     1     0     0
SMALL
bcc


@<TRIPOS>ATOM
      1 C1          1.5710   -0.2380    9.1550 ca        1 2PB     -0.134000
      2 C2          2.8770    0.2350    9.2100 ca        1 2PB     -0.220000
      3 C3          3.7850   -0.1450    8.2200 ca        1 2PB     -0.113000
      4 C4          3.4270   -0.9990    7.1760 ca        1 2PB     -0.128600
      5 C5          2.0990   -1.4890    7.1350 ca        1 2PB      0.229100
      6 C6          1.1760   -1.0890    8.1260 ca        1 2PB     -0.261000
      7 C7          4.5210   -1.3190    6.1670 c         1 2PB      0.933200
      8 O8          4.6680   -0.5460    5.1760 o         1 2PB     -0.849300
      9 O9          1.6980   -2.3150    6.1470 os        1 2PB     -0.454500
     10 P1          0.4020   -3.3360    6.4280 p5        1 2PB      1.356800
     11 O11        -0.8420   -2.5340    6.5150 o         1 2PB     -0.852500
     12 O12         5.3030   -2.2820    6.4170 o         1 2PB     -0.849300
     13 O13         0.5040   -4.4640    5.4810 o         1 2PB     -0.852500
     14 H1          0.8410    0.0600    9.9190 ha        1 2PB      0.083000
     15 H2          3.1920    0.9040   10.0210 ha        1 2PB      0.080000
     16 H3          4.8180    0.2330    8.2550 ha        1 2PB      0.110000
     17 H6          0.1280   -1.4270    8.0680 ha        1 2PB      0.163000
     18 HP1         0.7230   -3.7430    7.6480 hp        1 2PB     -0.240400
@<TRIPOS>BOND
     1    1    2 ar  
     2    1    6 ar  
     3    1   14 1   
     4    2    3 ar  
     5    2   15 1   
     6    3    4 ar  
     7    3   16 1   
     8    4    5 ar  
     9    4    7 1   
    10    5    6 ar  
    11    5    9 1   
    12    6   17 1   
    13    7    8 1   
    14    7   12 1   
    15    9   10 1   
    16   10   11 1   
    17   10   13 1   
    18   10   18 1   
@<TRIPOS>SUBSTRUCTURE
     1 2PB         1 TEMP              0 ****  ****    0 ROOT
