@<TRIPOS>MOLECULE
2PB
   18    18     1     0     0
SMALL
bcc


@<TRIPOS>ATOM
      1 C1         -0.0200   -0.2870    0.0590 ca        1 2PB     -0.134000
      2 C2          1.3420   -0.0080    0.0490 ca        1 2PB     -0.220000
      3 C3          2.0340    0.0660    1.2590 ca        1 2PB     -0.113000
      4 C4          1.3990   -0.1190    2.4870 ca        1 2PB     -0.128600
      5 C5          0.0080   -0.3880    2.4900 ca        1 2PB      0.229100
      6 C6         -0.6870   -0.4820    1.2650 ca        1 2PB     -0.261000
      7 C7          2.2830   -0.0150    3.7220 c         1 2PB      0.933200
      8 O8          2.8690   -1.0590    4.1300 o         1 2PB     -0.849300
      9 O9         -0.6570   -0.5790    3.6480 os        1 2PB     -0.454500
     10 P1         -2.3030   -0.2830    3.6900 p5        1 2PB      1.356800
     11 O11        -3.0070   -1.3220    2.9000 o         1 2PB     -0.852500
     12 O12         2.4770    1.1290    4.2250 o         1 2PB     -0.849300
     13 O13        -2.6790   -0.0240    5.0940 o         1 2PB     -0.852500
     14 H1         -0.5770   -0.3610   -0.8850 ha        1 2PB      0.083000
     15 H2          1.8710    0.1490   -0.9000 ha        1 2PB      0.080000
     16 H3          3.1130    0.2800    1.2560 ha        1 2PB      0.110000
     17 H6         -1.7590   -0.7430    1.2610 ha        1 2PB      0.163000
     18 HP1        -2.3250    0.8510    3.0030 hp        1 2PB     -0.240400
@<TRIPOS>BOND
     1    1    2 ar  
     2    1    6 ar  
     3    1   14 1   
     4    2    3 ar  
     5    2   15 1   
     6    3    4 ar  
     7    3   16 1   
     8    4    5 ar  
     9    4    7 1   
    10    5    6 ar  
    11    5    9 1   
    12    6   17 1   
    13    7    8 1   
    14    7   12 1   
    15    9   10 1   
    16   10   11 1   
    17   10   13 1   
    18   10   18 1   
@<TRIPOS>SUBSTRUCTURE
     1 2PB         1 TEMP              0 ****  ****    0 ROOT
