@<TRIPOS>MOLECULE
2PB
   18    15     1     0     0
SMALL
bcc


@<TRIPOS>ATOM
      1 C1         -0.3410    0.3940   -2.2550 c1        1 2PB     -0.112000
      2 C2          1.0450    0.3690   -2.2360 c1        1 2PB     -0.112000
      3 C3          1.7200    0.3300   -1.0260 c1        1 2PB     -0.112000
      4 C4          1.0100    0.3160    0.1640 cg        1 2PB     -0.090200
      5 C5         -0.3760    0.3410    0.1450 c1        1 2PB      0.225600
      6 C6         -1.0510    0.3800   -1.0650 c1        1 2PB     -0.112000
      7 C7          1.7480    0.2980    1.4850 c         1 2PB      0.873800
      8 O8          1.9500   -0.7940    2.0780 o         1 2PB     -0.848300
      9 O9         -1.0940    0.3760    1.3520 os        1 2PB     -0.475000
     10 P1         -1.8370   -0.9370    1.8250 p5        1 2PB      1.368800
     11 O11        -3.0660   -0.5620    2.6180 o         1 2PB     -0.863000
     12 O12         2.1650    1.3740    1.9880 o         1 2PB     -0.848300
     13 O13        -2.2440   -1.7470    0.6180 o         1 2PB     -0.863000
     14 H1         -0.8170    0.4210   -3.1070 ha        1 2PB      0.044500
     15 H2          1.5450    0.3790   -3.0740 ha        1 2PB      0.044500
     16 H3          2.6960    0.3130   -1.0120 ha        1 2PB      0.044500
     17 H6         -2.0270    0.3980   -1.0790 ha        1 2PB      0.044500
     18 HP1        -1.0280   -1.6510    2.5810 hp        1 2PB     -0.209400
@<TRIPOS>BOND
     1    1    6 3   
     2    1   14 1   
     3    2    3 3   
     4    2   15 1   
     5    3   16 1   
     6    4    5 3   
     7    4    7 1   
     8    5    9 1   
     9    6   17 1   
    10    7    8 1   
    11    7   12 1   
    12    9   10 1   
    13   10   11 1   
    14   10   13 1   
    15   10   18 1   
@<TRIPOS>SUBSTRUCTURE
     1 2PB         1 TEMP              0 ****  ****    0 ROOT
