@<TRIPOS>MOLECULE
2PC
   15    15     1     0     0
SMALL
bcc


@<TRIPOS>ATOM
      1 N1         -0.0220   -0.0990    0.0210 nh        1 2PC     -0.253100
      2 C2          1.2960   -0.0350    0.0140 ce        1 2PC      0.285300
      3 C3          1.8440    0.1880    1.3970 c3        1 2PC     -0.189700
      4 C4          0.6070    0.2550    2.3050 c3        1 2PC     -0.108400
      5 C5         -0.6020    0.0620    1.3590 c3        1 2PC     -0.027700
      6 C6          2.1980   -0.1760   -1.2950 c         1 2PC      0.842300
      7 O7          1.5370   -0.3550   -2.3340 o         1 2PC     -0.713800
      8 O8          3.4120   -0.0830   -1.0610 o         1 2PC     -0.713800
      9 HN1        -0.5770   -0.2420   -0.7970 hn        1 2PC      0.340700
     10 H31         2.5350   -0.6530    1.6640 hc        1 2PC      0.117700
     11 H32         2.4470    1.1320    1.4110 hc        1 2PC      0.117700
     12 H41         0.5410    1.2410    2.8250 hc        1 2PC      0.072700
     13 H42         0.6290   -0.5490    3.0780 hc        1 2PC      0.072700
     14 H51        -1.1950   -0.8540    1.6240 h1        1 2PC      0.078700
     15 H52        -1.2840    0.9540    1.3680 h1        1 2PC      0.078700
@<TRIPOS>BOND
     1    1    2 2   
     2    1    5 1   
     3    1    9 1   
     4    2    3 1   
     5    2    6 1   
     6    3    4 1   
     7    3   10 1   
     8    3   11 1   
     9    4    5 1   
    10    4   12 1   
    11    4   13 1   
    12    5   14 1   
    13    5   15 1   
    14    6    7 1   
    15    6    8 1   
@<TRIPOS>SUBSTRUCTURE
     1 2PC         1 TEMP              0 ****  ****    0 ROOT
