@<TRIPOS>MOLECULE
2PC
   15    15     1     0     0
SMALL
bcc


@<TRIPOS>ATOM
      1 N1         -0.7080   -1.1010    0.0520 nh        1 2PC     -0.253100
      2 C2          0.0170    0.0020    0.0470 ce        1 2PC      0.285300
      3 C3         -0.8490    1.2290   -0.0280 c3        1 2PC     -0.189700
      4 C4         -2.2880    0.6950   -0.0710 c3        1 2PC     -0.108400
      5 C5         -2.1510   -0.8450   -0.0160 c3        1 2PC     -0.027700
      6 C6          1.6110    0.0320    0.1120 c         1 2PC      0.842300
      7 O7          2.1250   -1.1000    0.1700 o         1 2PC     -0.713800
      8 O8          2.0760    1.1810    0.0940 o         1 2PC     -0.713800
      9 HN1        -0.3220   -2.0220    0.0970 hn        1 2PC      0.340700
     10 H31        -0.6520    1.8790    0.8630 hc        1 2PC      0.117700
     11 H32        -0.5770    1.8220   -0.9400 hc        1 2PC      0.117700
     12 H41        -2.8070    1.0070   -1.0090 hc        1 2PC      0.072700
     13 H42        -2.8820    1.0650    0.7990 hc        1 2PC      0.072700
     14 H51        -2.5760   -1.3330   -0.9330 h1        1 2PC      0.078700
     15 H52        -2.6520   -1.2750    0.8920 h1        1 2PC      0.078700
@<TRIPOS>BOND
     1    1    2 2   
     2    1    5 1   
     3    1    9 1   
     4    2    3 1   
     5    2    6 1   
     6    3    4 1   
     7    3   10 1   
     8    3   11 1   
     9    4    5 1   
    10    4   12 1   
    11    4   13 1   
    12    5   14 1   
    13    5   15 1   
    14    6    7 1   
    15    6    8 1   
@<TRIPOS>SUBSTRUCTURE
     1 2PC         1 TEMP              0 ****  ****    0 ROOT
