@<TRIPOS>MOLECULE
2PC
   15    13     1     0     0
SMALL
bcc


@<TRIPOS>ATOM
      1 N1         -0.9230    0.2330   -0.6630 n2        1 2PC     -0.168000
      2 C2          0.4400   -0.1760   -0.6070 c1        1 2PC      0.086000
      3 C3          1.0010   -0.0610    0.5890 c2        1 2PC     -0.140000
      4 C4         -0.2930    0.0450    1.5220 c3        1 2PC     -0.187000
      5 C5         -1.5690    0.1400    0.4760 c2        1 2PC     -0.140000
      6 C6          1.3080   -0.1380   -1.8700 c2        1 2PC      0.381000
      7 O7          1.6360   -1.2140   -2.4390 o         1 2PC     -0.448500
      8 O8          1.5880    0.9610   -2.4020 o         1 2PC     -0.448500
      9 HN1        -1.3850    0.1820   -1.4560 hn        1 2PC      0.291000
     10 H31         1.5520   -0.8070    0.8970 ha        1 2PC      0.137500
     11 H32         1.6310    0.7040    0.6240 ha        1 2PC      0.137500
     12 H41        -0.3740   -0.7550    2.0860 hc        1 2PC      0.112000
     13 H42        -0.2480    0.8530    2.0800 hc        1 2PC      0.112000
     14 H51        -2.3090    0.7670    0.6760 ha        1 2PC      0.137500
     15 H52        -2.0540   -0.7350    0.4870 ha        1 2PC      0.137500
@<TRIPOS>BOND
     1    1    2 1   
     2    1    9 1   
     3    2    6 1   
     4    3    4 1   
     5    3   10 1   
     6    3   11 1   
     7    4    5 1   
     8    4   12 1   
     9    4   13 1   
    10    5   14 1   
    11    5   15 1   
    12    6    7 1   
    13    6    8 1   
@<TRIPOS>SUBSTRUCTURE
     1 2PC         1 TEMP              0 ****  ****    0 ROOT
