@<TRIPOS>MOLECULE
2PC
   15    15     1     0     0
SMALL
bcc


@<TRIPOS>ATOM
      1 N1         -0.0190   -0.0900    0.0080 nh        1 2PC     -0.253100
      2 C2          1.3000   -0.0380    0.0120 ce        1 2PC      0.285300
      3 C3          1.8390    0.1800    1.3990 c3        1 2PC     -0.189700
      4 C4          0.5950    0.2600    2.2970 c3        1 2PC     -0.108400
      5 C5         -0.6070    0.0770    1.3410 c3        1 2PC     -0.027700
      6 C6          2.2120   -0.1880   -1.2900 c         1 2PC      0.842300
      7 O7          1.5570   -0.3560   -2.3350 o         1 2PC     -0.713800
      8 O8          3.4250   -0.1120   -1.0450 o         1 2PC     -0.713800
      9 HN1        -0.5680   -0.2280   -0.8140 hn        1 2PC      0.340700
     10 H31         2.5200   -0.6660    1.6720 hc        1 2PC      0.118200
     11 H32         2.4500    1.1190    1.4180 hc        1 2PC      0.118200
     12 H41         0.5340    1.2460    2.8160 hc        1 2PC      0.072700
     13 H42         0.6040   -0.5450    3.0710 hc        1 2PC      0.072700
     14 H51        -1.2110   -0.8330    1.6020 h1        1 2PC      0.078700
     15 H52        -1.2810    0.9750    1.3450 h1        1 2PC      0.078700
@<TRIPOS>BOND
     1    1    2 2   
     2    1    5 1   
     3    1    9 1   
     4    2    3 1   
     5    2    6 1   
     6    3    4 1   
     7    3   10 1   
     8    3   11 1   
     9    4    5 1   
    10    4   12 1   
    11    4   13 1   
    12    5   14 1   
    13    5   15 1   
    14    6    7 1   
    15    6    8 1   
@<TRIPOS>SUBSTRUCTURE
     1 2PC         1 TEMP              0 ****  ****    0 ROOT
