@<TRIPOS>MOLECULE
2PC
   15    15     1     0     0
SMALL
bcc


@<TRIPOS>ATOM
      1 N1         -0.0200   -0.0970    0.0110 nu        1 2PC     -0.253100
      2 C2          1.2980   -0.0360    0.0110 ce        1 2PC      0.285300
      3 C3          1.8400    0.1880    1.3950 c3        1 2PC     -0.189700
      4 C4          0.5990    0.2590    2.2980 c3        1 2PC     -0.108400
      5 C5         -0.6050    0.0670    1.3470 c3        1 2PC     -0.027700
      6 C6          2.2060   -0.1810   -1.2950 c         1 2PC      0.842300
      7 O7          1.5490   -0.3570   -2.3360 o         1 2PC     -0.713800
      8 O8          3.4190   -0.0930   -1.0540 o         1 2PC     -0.713800
      9 HN1        -0.5720   -0.2400   -0.8090 hn        1 2PC      0.340700
     10 H31         2.4450    1.1310    1.4110 hc        1 2PC      0.118200
     11 H32         2.5280   -0.6540    1.6670 hc        1 2PC      0.118200
     12 H41         0.6160   -0.5450    3.0720 hc        1 2PC      0.072700
     13 H42         0.5330    1.2450    2.8160 hc        1 2PC      0.072700
     14 H51        -1.2020   -0.8470    1.6100 h1        1 2PC      0.078700
     15 H52        -1.2860    0.9600    1.3510 h1        1 2PC      0.078700
@<TRIPOS>BOND
     1    1    2 2   
     2    1    5 1   
     3    1    9 1   
     4    2    3 1   
     5    2    6 1   
     6    3    4 1   
     7    3   10 1   
     8    3   11 1   
     9    4    5 1   
    10    4   12 1   
    11    4   13 1   
    12    5   14 1   
    13    5   15 1   
    14    6    7 1   
    15    6    8 1   
@<TRIPOS>SUBSTRUCTURE
     1 2PC         1 TEMP              0 ****  ****    0 ROOT
