@<TRIPOS>MOLECULE
2PD
   57    53     1     0     0
SMALL
bcc


@<TRIPOS>ATOM
      1 O30        -0.5460   -0.2070    4.4170 o         1 2PD     -0.918500
      2 S33        -0.6300   -0.7970    3.1180 ss        1 2PD      2.860000
      3 O29        -1.8780   -1.5300    3.0070 o         1 2PD     -0.918500
      4 C12         0.6690   -1.9040    2.9410 c1        1 2PD     -0.833000
      5 C8          0.8210   -2.9820    3.8530 c2        1 2PD     -0.037000
      6 C11         1.9160   -3.8410    3.7410 c1        1 2PD      0.054000
      7 O32         1.2910   -5.1100    3.9990 o         1 2PD     -0.203000
      8 C20         1.6700   -5.6980    5.2410 c3        1 2PD     -0.078000
      9 C7          2.8640   -3.6390    2.7300 c2        1 2PD     -0.134000
     10 N26        -0.6320    0.3720    2.0300 n2        1 2PD     -0.818000
     11 C16         0.4270    0.4450    1.0530 c2        1 2PD      0.251000
     12 N24         1.3200   -0.7430    0.8180 n1        1 2PD     -0.271000
     13 C10         1.6090   -1.7050    1.9400 c1        1 2PD      0.087000
     14 C6          2.7140   -2.5730    1.8290 c2        1 2PD     -0.099000
     15 C14         0.6080    1.7230    0.2100 c2        1 2PD     -0.280000
     16 C15         1.6230    1.5920   -0.6410 c1        1 2PD      0.221000
     17 O31         2.9550    1.5120   -0.1460 o         1 2PD     -0.216000
     18 C17        -0.6620    2.2100   -0.4680 c2        1 2PD      0.337000
     19 O28        -0.5420    3.2990   -1.0370 o         1 2PD     -0.359000
     20 N27        -1.2180    1.3410   -1.2500 n         1 2PD     -0.217000
     21 C22        -2.6610    1.4080   -1.5150 c3        1 2PD     -0.014000
     22 C21        -3.0880    2.8990   -1.7070 c3        1 2PD     -0.174000
     23 C23        -4.4910    3.1300   -1.0410 c3        1 2PD     -0.105000
     24 C19        -5.5840    2.9750   -2.0900 c3        1 2PD     -0.210000
     25 C18        -4.5530    4.5790   -0.4290 c3        1 2PD     -0.210000
     26 N25        -0.3170    0.6550   -2.2050 n2        1 2PD      0.040000
     27 C13         1.2560    0.8990   -1.9680 c2        1 2PD     -0.092000
     28 C9          2.3020    0.0200   -2.7070 c2        1 2PD     -0.028000
     29 C4          3.1180   -0.8330   -1.9910 c2        1 2PD     -0.092000
     30 C2          4.1250   -1.5490   -2.6440 c1        1 2PD     -0.135000
     31 C5          2.4850    0.1680   -4.0840 c1        1 2PD     -0.096000
     32 C3          3.4850   -0.5430   -4.7330 c1        1 2PD     -0.125500
     33 C1          4.3050   -1.4010   -4.0150 c1        1 2PD     -0.125500
     34 H8          0.1340   -3.1510    4.5290 ha        1 2PD      0.167000
     35 H20         0.9380   -6.2870    5.5660 h1        1 2PD      0.087000
     36 H20A        1.8370   -4.9920    5.8990 h1        1 2PD      0.087000
     37 H20B        2.4940   -6.2350    5.1150 h1        1 2PD      0.087000
     38 H7          3.6210   -4.2330    2.6530 ha        1 2PD      0.145000
     39 HN26       -1.2840    1.0200    2.0510 hn        1 2PD      0.282000
     40 H6          3.3810   -2.4310    1.1170 ha        1 2PD      0.153000
     41 HO31        3.2680    2.3330   -0.0010 ho        1 2PD      0.267000
     42 H22        -2.8680    0.9000   -2.3280 h1        1 2PD      0.121500
     43 H22A       -3.1370    1.0340   -0.7780 h1        1 2PD      0.121500
     44 H21        -2.4350    3.4770   -1.2900 hc        1 2PD      0.095000
     45 H21A       -3.1410    3.1050   -2.6660 hc        1 2PD      0.095000
     46 H23        -4.6260    2.4680   -0.3280 hc        1 2PD      0.091000
     47 H19        -5.3410    3.4660   -2.8820 hc        1 2PD      0.076000
     48 H19A       -6.4250    3.3220   -1.7370 hc        1 2PD      0.076000
     49 H19B       -5.6910    2.0230   -2.3140 hc        1 2PD      0.076000
     50 H18        -5.3540    4.6630    0.1360 hc        1 2PD      0.076000
     51 H18A       -4.5940    5.2440   -1.1600 hc        1 2PD      0.076000
     52 H18B       -3.7440    4.7420    0.1190 hc        1 2PD      0.076000
     53 H4          2.9910   -0.9370   -1.0320 ha        1 2PD      0.142000
     54 H2          4.6840   -2.1340   -2.1540 ha        1 2PD      0.136000
     55 H5          1.9100    0.7690   -4.5890 ha        1 2PD      0.140000
     56 H3          3.6130   -0.4370   -5.7130 ha        1 2PD      0.135000
     57 H1          5.0090   -1.9010   -4.4730 ha        1 2PD      0.135000
@<TRIPOS>BOND
     1    1    2 1   
     2    2    3 1   
     3    4    5 1   
     4    4   13 1   
     5    5    6 1   
     6    5   34 1   
     7    6    9 1   
     8    7    8 1   
     9    8   35 1   
    10    8   36 1   
    11    8   37 1   
    12    9   14 1   
    13    9   38 1   
    14   10   11 1   
    15   10   39 1   
    16   11   12 1   
    17   11   15 1   
    18   13   14 1   
    19   14   40 1   
    20   15   16 1   
    21   15   18 1   
    22   16   27 1   
    23   17   41 1   
    24   18   19 1   
    25   18   20 1   
    26   20   21 1   
    27   20   26 1   
    28   21   22 1   
    29   21   42 1   
    30   21   43 1   
    31   22   23 1   
    32   22   44 1   
    33   22   45 1   
    34   23   24 1   
    35   23   25 1   
    36   23   46 1   
    37   24   47 1   
    38   24   48 1   
    39   24   49 1   
    40   25   50 1   
    41   25   51 1   
    42   25   52 1   
    43   26   27 1   
    44   27   28 1   
    45   28   29 1   
    46   28   31 1   
    47   29   30 1   
    48   29   53 1   
    49   30   54 1   
    50   31   55 1   
    51   32   33 1   
    52   32   56 1   
    53   33   57 1   
@<TRIPOS>SUBSTRUCTURE
     1 2PD         1 TEMP              0 ****  ****    0 ROOT
