@<TRIPOS>MOLECULE
2PD
   57    60     1     0     0
SMALL
bcc


@<TRIPOS>ATOM
      1 O30         3.4220   -2.4110   -1.9660 o         1 2PD     -0.644300
      2 S33         3.0510   -1.0600   -1.9330 sy        1 2PD      1.522200
      3 O29         3.3110   -0.3560   -3.1140 o         1 2PD     -0.644300
      4 C12         3.7600   -0.2730   -0.6230 ca        1 2PD     -0.383500
      5 C8          5.1480   -0.3730   -0.4990 ca        1 2PD     -0.040000
      6 C11         5.8160    0.2790    0.5440 ca        1 2PD      0.096100
      7 O32         7.1880    0.1060    0.5580 os        1 2PD     -0.321900
      8 C20         7.8910    0.7570    1.6100 c3        1 2PD      0.112700
      9 C7          5.0980    1.0400    1.4780 ca        1 2PD     -0.138000
     10 N26         1.4540   -0.9380   -1.5500 nh        1 2PD     -0.847100
     11 C16         0.9220   -0.0570   -0.5990 ce        1 2PD      0.765500
     12 N24         1.6290    0.6160    0.2850 nf        1 2PD     -0.627100
     13 C10         3.0270    0.4840    0.3250 ca        1 2PD      0.221400
     14 C6          3.7200    1.1400    1.3700 ca        1 2PD     -0.094000
     15 C14        -0.5530    0.1150   -0.5930 cc        1 2PD     -0.324800
     16 C15        -1.1560    1.3550   -0.5810 cd        1 2PD      0.153500
     17 O31        -0.3940    2.4710   -0.7040 oh        1 2PD     -0.447100
     18 C17        -1.3860   -1.0880   -0.5640 c         1 2PD      0.692700
     19 O28        -0.9540   -2.2520   -0.6510 o         1 2PD     -0.622500
     20 N27        -2.8030   -0.8750   -0.4630 n         1 2PD     -0.187800
     21 C22        -3.6850   -2.0500   -0.3300 c3        1 2PD      0.100000
     22 C21        -4.2560   -2.2400    1.0720 c3        1 2PD     -0.096400
     23 C23        -5.1080   -3.5010    1.1340 c3        1 2PD     -0.064700
     24 C19        -4.2490   -4.7460    1.2050 c3        1 2PD     -0.093100
     25 C18        -6.0330   -3.4370    2.3330 c3        1 2PD     -0.093100
     26 N25        -3.3580    0.3150   -0.3950 nc        1 2PD     -0.367300
     27 C13        -2.6130    1.4170   -0.4670 cd        1 2PD      0.311200
     28 C9         -3.2830    2.7280   -0.4110 ca        1 2PD     -0.136900
     29 C4         -4.2260    3.0790   -1.3830 ca        1 2PD     -0.109500
     30 C2         -4.8570    4.3210   -1.3210 ca        1 2PD     -0.129000
     31 C5         -2.9870    3.6180    0.6300 ca        1 2PD     -0.109500
     32 C3         -3.6220    4.8570    0.6860 ca        1 2PD     -0.129000
     33 C1         -4.5560    5.2100   -0.2900 ca        1 2PD     -0.113000
     34 H8          5.7320   -0.9720   -1.2200 ha        1 2PD      0.165000
     35 H20         7.7580    1.8650    1.5480 h1        1 2PD      0.046367
     36 H20A        7.5550    0.3760    2.6050 h1        1 2PD      0.046367
     37 H20B        8.9580    0.4760    1.4200 h1        1 2PD      0.046367
     38 H7          5.6160    1.5590    2.2980 ha        1 2PD      0.142000
     39 HN26        0.7850   -1.5670   -1.9450 hn        1 2PD      0.478800
     40 H6          3.1570    1.7360    2.1070 ha        1 2PD      0.154000
     41 HO31       -0.9730    3.2540   -0.6850 ho        1 2PD      0.446000
     42 H22        -4.5310   -1.9440   -1.0680 h1        1 2PD      0.081700
     43 H22A       -3.0710   -2.9510   -0.6180 h1        1 2PD      0.081700
     44 H21        -3.4270   -2.3120    1.8230 hc        1 2PD      0.057200
     45 H21A       -4.8860   -1.3530    1.3480 hc        1 2PD      0.057200
     46 H23        -5.7410   -3.5550    0.2030 hc        1 2PD      0.045700
     47 H19        -3.6100   -4.7310    2.1200 hc        1 2PD      0.037367
     48 H19A       -4.8950   -5.6570    1.2410 hc        1 2PD      0.037367
     49 H19B       -3.5840   -4.8210    0.3110 hc        1 2PD      0.037367
     50 H18        -6.7200   -2.5600    2.2520 hc        1 2PD      0.037367
     51 H18A       -6.6490   -4.3660    2.3940 hc        1 2PD      0.037367
     52 H18B       -5.4440   -3.3400    3.2770 hc        1 2PD      0.037367
     53 H4         -4.4720    2.3740   -2.1920 ha        1 2PD      0.145000
     54 H2         -5.5970    4.5960   -2.0870 ha        1 2PD      0.141000
     55 H5         -2.2630    3.3320    1.4090 ha        1 2PD      0.145000
     56 H3         -3.3900    5.5540    1.5040 ha        1 2PD      0.141000
     57 H1         -5.0560    6.1890   -0.2420 ha        1 2PD      0.139000
@<TRIPOS>BOND
     1    1    2 2   
     2    2    3 2   
     3    2    4 1   
     4    2   10 1   
     5    4    5 ar  
     6    4   13 ar  
     7    5    6 ar  
     8    5   34 1   
     9    6    7 1   
    10    6    9 ar  
    11    7    8 1   
    12    8   35 1   
    13    8   36 1   
    14    8   37 1   
    15    9   14 ar  
    16    9   38 1   
    17   10   11 1   
    18   10   39 1   
    19   11   12 2   
    20   11   15 1   
    21   12   13 1   
    22   13   14 ar  
    23   14   40 1   
    24   15   16 2   
    25   15   18 1   
    26   16   17 1   
    27   16   27 1   
    28   17   41 1   
    29   18   19 2   
    30   18   20 1   
    31   20   21 1   
    32   20   26 1   
    33   21   22 1   
    34   21   42 1   
    35   21   43 1   
    36   22   23 1   
    37   22   44 1   
    38   22   45 1   
    39   23   24 1   
    40   23   25 1   
    41   23   46 1   
    42   24   47 1   
    43   24   48 1   
    44   24   49 1   
    45   25   50 1   
    46   25   51 1   
    47   25   52 1   
    48   26   27 2   
    49   27   28 1   
    50   28   29 ar  
    51   28   31 ar  
    52   29   30 ar  
    53   29   53 1   
    54   30   33 ar  
    55   30   54 1   
    56   31   32 ar  
    57   31   55 1   
    58   32   33 ar  
    59   32   56 1   
    60   33   57 1   
@<TRIPOS>SUBSTRUCTURE
     1 2PD         1 TEMP              0 ****  ****    0 ROOT
