@<TRIPOS>MOLECULE
2PD
   57    60     1     0     0
SMALL
bcc


@<TRIPOS>ATOM
      1 O30         1.0270   -1.1400   -0.3520 o         1 2PD     -0.639300
      2 S33         2.3240   -0.8600    0.0940 sy        1 2PD      1.521200
      3 O29         3.2350   -1.9120   -0.0460 o         1 2PD     -0.639300
      4 C12         2.3110   -0.3220    1.6880 ca        1 2PD     -0.388500
      5 C8          1.6640   -1.1280    2.6270 ca        1 2PD     -0.037000
      6 C11         1.6420   -0.7650    3.9800 ca        1 2PD      0.099100
      7 O32         0.9760   -1.6460    4.8100 os        1 2PD     -0.319900
      8 C20         0.9270   -1.2940    6.1880 c3        1 2PD      0.111700
      9 C7          2.2690    0.4150    4.4060 ca        1 2PD     -0.134000
     10 N26         2.9050    0.4740   -0.6890 nh        1 2PD     -0.839100
     11 C16         3.5330    1.5610   -0.0810 ce        1 2PD      0.776500
     12 N24         3.5750    1.7570    1.2260 nf        1 2PD     -0.697100
     13 C10         2.9340    0.8790    2.1100 ca        1 2PD      0.225400
     14 C6          2.9070    1.2280    3.4810 ca        1 2PD     -0.099000
     15 C14         4.2130    2.5580   -0.9480 cc        1 2PD     -0.385800
     16 C15         5.3910    3.1840   -0.5850 cd        1 2PD      0.177500
     17 O31         6.1050    2.9760    0.5430 oh        1 2PD     -0.460100
     18 C17         3.5770    2.9260   -2.2180 c         1 2PD      0.698700
     19 O28         2.5160    2.4410   -2.6560 o         1 2PD     -0.634500
     20 N27         4.2550    3.9100   -3.0080 n         1 2PD     -0.187800
     21 C22         3.6190    4.3730   -4.2570 c3        1 2PD      0.102000
     22 C21         2.9940    5.7610   -4.1520 c3        1 2PD     -0.096400
     23 C23         2.3270    6.1460   -5.4660 c3        1 2PD     -0.064700
     24 C19         0.9960    5.4430   -5.6380 c3        1 2PD     -0.093100
     25 C18         2.1340    7.6480   -5.5230 c3        1 2PD     -0.093100
     26 N25         5.3780    4.4920   -2.6460 nc        1 2PD     -0.381300
     27 C13         5.9780    4.1700   -1.5030 cd        1 2PD      0.367200
     28 C9          7.2530    4.8240   -1.1630 ca        1 2PD     -0.112900
     29 C4          8.2810    4.8970   -2.1120 ca        1 2PD     -0.094500
     30 C2          9.4820    5.5270   -1.7890 ca        1 2PD     -0.135500
     31 C5          7.4360    5.3880    0.1060 ca        1 2PD     -0.094500
     32 C3          8.6390    6.0170    0.4210 ca        1 2PD     -0.135500
     33 C1          9.6630    6.0880   -0.5250 ca        1 2PD     -0.115000
     34 H8          1.1590   -2.0580    2.3130 ha        1 2PD      0.167000
     35 H20         0.3960   -0.3220    6.3300 h1        1 2PD      0.047700
     36 H20A        1.9560   -1.2480    6.6200 h1        1 2PD      0.047700
     37 H20B        0.3430   -2.1330    6.6470 h1        1 2PD      0.047700
     38 H7          2.2590    0.7060    5.4670 ha        1 2PD      0.145000
     39 HN26        2.7590    0.5720   -1.6750 hn        1 2PD      0.486800
     40 H6          3.3900    2.1590    3.8190 ha        1 2PD      0.153000
     41 HO31        5.6590    2.3260    1.1160 ho        1 2PD      0.468000
     42 H22         4.3990    4.3740   -5.0710 h1        1 2PD      0.081200
     43 H22A        2.8270    3.6160   -4.5210 h1        1 2PD      0.081200
     44 H21         3.7860    6.5160   -3.9040 hc        1 2PD      0.057200
     45 H21A        2.2350    5.7840   -3.3270 hc        1 2PD      0.057200
     46 H23         3.0030    5.8440   -6.3160 hc        1 2PD      0.046700
     47 H19         1.1290    4.3350   -5.6280 hc        1 2PD      0.037367
     48 H19A        0.5310    5.7350   -6.6110 hc        1 2PD      0.037367
     49 H19B        0.2950    5.7210   -4.8140 hc        1 2PD      0.037367
     50 H18         1.6300    7.9360   -6.4770 hc        1 2PD      0.037367
     51 H18A        3.1190    8.1720   -5.4700 hc        1 2PD      0.037367
     52 H18B        1.5020    7.9940   -4.6710 hc        1 2PD      0.037367
     53 H4          8.1440    4.4590   -3.1120 ha        1 2PD      0.141500
     54 H2         10.2880    5.5800   -2.5350 ha        1 2PD      0.135500
     55 H5          6.6340    5.3200    0.8570 ha        1 2PD      0.141500
     56 H3          8.7800    6.4580    1.4180 ha        1 2PD      0.135500
     57 H1         10.6110    6.5850   -0.2730 ha        1 2PD      0.134000
@<TRIPOS>BOND
     1    1    2 2   
     2    2    3 2   
     3    2    4 1   
     4    2   10 1   
     5    4    5 ar  
     6    4   13 ar  
     7    5    6 ar  
     8    5   34 1   
     9    6    7 1   
    10    6    9 ar  
    11    7    8 1   
    12    8   35 1   
    13    8   36 1   
    14    8   37 1   
    15    9   14 ar  
    16    9   38 1   
    17   10   11 1   
    18   10   39 1   
    19   11   12 2   
    20   11   15 1   
    21   12   13 1   
    22   13   14 ar  
    23   14   40 1   
    24   15   16 2   
    25   15   18 1   
    26   16   17 1   
    27   16   27 1   
    28   17   41 1   
    29   18   19 2   
    30   18   20 1   
    31   20   21 1   
    32   20   26 1   
    33   21   22 1   
    34   21   42 1   
    35   21   43 1   
    36   22   23 1   
    37   22   44 1   
    38   22   45 1   
    39   23   24 1   
    40   23   25 1   
    41   23   46 1   
    42   24   47 1   
    43   24   48 1   
    44   24   49 1   
    45   25   50 1   
    46   25   51 1   
    47   25   52 1   
    48   26   27 2   
    49   27   28 1   
    50   28   29 ar  
    51   28   31 ar  
    52   29   30 ar  
    53   29   53 1   
    54   30   33 ar  
    55   30   54 1   
    56   31   32 ar  
    57   31   55 1   
    58   32   33 ar  
    59   32   56 1   
    60   33   57 1   
@<TRIPOS>SUBSTRUCTURE
     1 2PD         1 TEMP              0 ****  ****    0 ROOT
