@<TRIPOS>MOLECULE
2PD
   57    60     1     0     0
SMALL
bcc


@<TRIPOS>ATOM
      1 O30         0.9910   -1.1050   -0.3430 o         1 2PD     -0.639300
      2 S33         2.2870   -0.8300    0.1070 sy        1 2PD      1.521200
      3 O29         3.1950   -1.8860   -0.0300 o         1 2PD     -0.639300
      4 C12         2.2730   -0.2890    1.6990 ca        1 2PD     -0.387500
      5 C8          1.6190   -1.0910    2.6380 ca        1 2PD     -0.037000
      6 C11         1.5960   -0.7270    3.9900 ca        1 2PD      0.099100
      7 O32         0.9230   -1.6030    4.8190 os        1 2PD     -0.319900
      8 C20         0.8700   -1.2490    6.1970 c3        1 2PD      0.111700
      9 C7          2.2280    0.4510    4.4160 ca        1 2PD     -0.134000
     10 N26         2.8760    0.5010   -0.6770 nh        1 2PD     -0.839100
     11 C16         3.5080    1.5860   -0.0690 ce        1 2PD      0.776500
     12 N24         3.5480    1.7830    1.2380 nf        1 2PD     -0.697100
     13 C10         2.9010    0.9090    2.1220 ca        1 2PD      0.225400
     14 C6          2.8720    1.2590    3.4930 ca        1 2PD     -0.099000
     15 C14         4.1940    2.5790   -0.9360 cc        1 2PD     -0.385800
     16 C15         5.3750    3.1990   -0.5710 cd        1 2PD      0.177500
     17 O31         6.0860    2.9880    0.5580 oh        1 2PD     -0.460100
     18 C17         3.5620    2.9490   -2.2060 c         1 2PD      0.698700
     19 O28         2.5000    2.4690   -2.6460 o         1 2PD     -0.634500
     20 N27         4.2460    3.9290   -2.9960 n         1 2PD     -0.187800
     21 C22         3.6140    4.3950   -4.2460 c3        1 2PD      0.102000
     22 C21         2.9920    5.7850   -4.1410 c3        1 2PD     -0.096400
     23 C23         2.3300    6.1730   -5.4560 c3        1 2PD     -0.064700
     24 C19         0.9980    5.4730   -5.6340 c3        1 2PD     -0.093100
     25 C18         2.1410    7.6760   -5.5120 c3        1 2PD     -0.093100
     26 N25         5.3720    4.5060   -2.6320 nc        1 2PD     -0.381300
     27 C13         5.9680    4.1810   -1.4880 cd        1 2PD      0.367200
     28 C9          7.2460    4.8290   -1.1470 ca        1 2PD     -0.112900
     29 C4          8.2750    4.8960   -2.0950 ca        1 2PD     -0.094500
     30 C2          9.4790    5.5200   -1.7700 ca        1 2PD     -0.135500
     31 C5          7.4310    5.3920    0.1220 ca        1 2PD     -0.094500
     32 C3          8.6370    6.0150    0.4380 ca        1 2PD     -0.135500
     33 C1          9.6610    6.0810   -0.5060 ca        1 2PD     -0.115000
     34 H8          1.1100   -2.0190    2.3230 ha        1 2PD      0.167000
     35 H20         1.8980   -1.2070    6.6330 h1        1 2PD      0.047700
     36 H20A        0.3440   -0.2730    6.3350 h1        1 2PD      0.047700
     37 H20B        0.2810   -2.0840    6.6550 h1        1 2PD      0.047700
     38 H7          2.2170    0.7430    5.4770 ha        1 2PD      0.145000
     39 HN26        2.7320    0.5990   -1.6630 hn        1 2PD      0.486800
     40 H6          3.3590    2.1880    3.8310 ha        1 2PD      0.153000
     41 HO31        5.6360    2.3400    1.1310 ho        1 2PD      0.468000
     42 H22         2.8200    3.6400   -4.5120 h1        1 2PD      0.081200
     43 H22A        4.3950    4.3940   -5.0590 h1        1 2PD      0.081200
     44 H21         2.2310    5.8080   -3.3180 hc        1 2PD      0.057200
     45 H21A        3.7860    6.5370   -3.8900 hc        1 2PD      0.057200
     46 H23         3.0090    5.8710   -6.3040 hc        1 2PD      0.046700
     47 H19         0.5360    5.7670   -6.6070 hc        1 2PD      0.037367
     48 H19A        1.1290    4.3640   -5.6260 hc        1 2PD      0.037367
     49 H19B        0.2960    5.7510   -4.8120 hc        1 2PD      0.037367
     50 H18         3.1260    8.1970   -5.4540 hc        1 2PD      0.037367
     51 H18A        1.6410    7.9660   -6.4670 hc        1 2PD      0.037367
     52 H18B        1.5060    8.0210   -4.6610 hc        1 2PD      0.037367
     53 H4          8.1370    4.4590   -3.0950 ha        1 2PD      0.141500
     54 H2         10.2860    5.5690   -2.5160 ha        1 2PD      0.135500
     55 H5          6.6270    5.3290    0.8720 ha        1 2PD      0.141500
     56 H3          8.7780    6.4560    1.4360 ha        1 2PD      0.135500
     57 H1         10.6120    6.5730   -0.2540 ha        1 2PD      0.134000
@<TRIPOS>BOND
     1    1    2 2   
     2    2    3 2   
     3    2    4 1   
     4    2   10 1   
     5    4    5 ar  
     6    4   13 ar  
     7    5    6 ar  
     8    5   34 1   
     9    6    7 1   
    10    6    9 ar  
    11    7    8 1   
    12    8   35 1   
    13    8   36 1   
    14    8   37 1   
    15    9   14 ar  
    16    9   38 1   
    17   10   11 1   
    18   10   39 1   
    19   11   12 2   
    20   11   15 1   
    21   12   13 1   
    22   13   14 ar  
    23   14   40 1   
    24   15   16 2   
    25   15   18 1   
    26   16   17 1   
    27   16   27 1   
    28   17   41 1   
    29   18   19 2   
    30   18   20 1   
    31   20   21 1   
    32   20   26 1   
    33   21   22 1   
    34   21   42 1   
    35   21   43 1   
    36   22   23 1   
    37   22   44 1   
    38   22   45 1   
    39   23   24 1   
    40   23   25 1   
    41   23   46 1   
    42   24   47 1   
    43   24   48 1   
    44   24   49 1   
    45   25   50 1   
    46   25   51 1   
    47   25   52 1   
    48   26   27 2   
    49   27   28 1   
    50   28   29 ar  
    51   28   31 ar  
    52   29   30 ar  
    53   29   53 1   
    54   30   33 ar  
    55   30   54 1   
    56   31   32 ar  
    57   31   55 1   
    58   32   33 ar  
    59   32   56 1   
    60   33   57 1   
@<TRIPOS>SUBSTRUCTURE
     1 2PD         1 TEMP              0 ****  ****    0 ROOT
