@<TRIPOS>MOLECULE
2PD
   57    60     1     0     0
SMALL
bcc


@<TRIPOS>ATOM
      1 O30         1.0200   -1.1350   -0.3510 o         1 2PD     -0.639300
      2 S33         2.3170   -0.8580    0.0930 sy        1 2PD      1.521200
      3 O29         3.2270   -1.9120   -0.0490 o         1 2PD     -0.639300
      4 C12         2.3080   -0.3210    1.6870 ca        1 2PD     -0.388500
      5 C8          1.6610   -1.1260    2.6270 ca        1 2PD     -0.037000
      6 C11         1.6420   -0.7650    3.9800 ca        1 2PD      0.099100
      7 O32         0.9750   -1.6450    4.8110 os        1 2PD     -0.319900
      8 C20         0.9280   -1.2940    6.1890 c3        1 2PD      0.111700
      9 C7          2.2720    0.4140    4.4060 ca        1 2PD     -0.134000
     10 N26         2.8990    0.4750   -0.6900 nu        1 2PD     -0.839100
     11 C16         3.5310    1.5610   -0.0820 ce        1 2PD      0.776500
     12 N24         3.5760    1.7560    1.2250 nf        1 2PD     -0.697100
     13 C10         2.9340    0.8790    2.1100 ca        1 2PD      0.225400
     14 C6          2.9100    1.2260    3.4810 ca        1 2PD     -0.099000
     15 C14         4.2110    2.5570   -0.9500 cc        1 2PD     -0.385800
     16 C15         5.3920    3.1810   -0.5880 cd        1 2PD      0.177500
     17 O31         6.1070    2.9700    0.5390 oh        1 2PD     -0.460100
     18 C17         3.5740    2.9270   -2.2170 c         1 2PD      0.698700
     19 O28         2.5120    2.4450   -2.6550 o         1 2PD     -0.634500
     20 N27         4.2530    3.9110   -3.0090 n         1 2PD     -0.187800
     21 C22         3.6150    4.3770   -4.2550 c3        1 2PD      0.102000
     22 C21         2.9890    5.7640   -4.1460 c3        1 2PD     -0.096400
     23 C23         2.3220    6.1520   -5.4590 c3        1 2PD     -0.064700
     24 C19         0.9930    5.4480   -5.6350 c3        1 2PD     -0.093100
     25 C18         2.1270    7.6550   -5.5100 c3        1 2PD     -0.093100
     26 N25         5.3780    4.4900   -2.6470 nc        1 2PD     -0.381300
     27 C13         5.9790    4.1650   -1.5060 cd        1 2PD      0.367200
     28 C9          7.2560    4.8160   -1.1670 ca        1 2PD     -0.112900
     29 C4          8.2820    4.8880   -2.1190 ca        1 2PD     -0.094500
     30 C2          9.4850    5.5150   -1.7970 ca        1 2PD     -0.135500
     31 C5          7.4430    5.3800    0.1020 ca        1 2PD     -0.094500
     32 C3          8.6480    6.0050    0.4140 ca        1 2PD     -0.135500
     33 C1          9.6690    6.0750   -0.5330 ca        1 2PD     -0.115000
     34 H8          1.1530   -2.0550    2.3130 ha        1 2PD      0.167000
     35 H20         0.3990   -0.3200    6.3310 h1        1 2PD      0.047700
     36 H20A        0.3440   -2.1320    6.6480 h1        1 2PD      0.047700
     37 H20B        1.9580   -1.2500    6.6200 h1        1 2PD      0.047700
     38 H7          2.2640    0.7040    5.4670 ha        1 2PD      0.145000
     39 HN26        2.7520    0.5750   -1.6750 hn        1 2PD      0.486800
     40 H6          3.3950    2.1560    3.8190 ha        1 2PD      0.153000
     41 HO31        5.6600    2.3200    1.1120 ho        1 2PD      0.468000
     42 H22         2.8240    3.6190   -4.5210 h1        1 2PD      0.081200
     43 H22A        4.3940    4.3800   -5.0710 h1        1 2PD      0.081200
     44 H21         2.2290    5.7830   -3.3210 hc        1 2PD      0.057200
     45 H21A        3.7800    6.5180   -3.8950 hc        1 2PD      0.057200
     46 H23         3.0000    5.8550   -6.3090 hc        1 2PD      0.046700
     47 H19         1.1270    4.3400   -5.6300 hc        1 2PD      0.037367
     48 H19A        0.2910    5.7210   -4.8100 hc        1 2PD      0.037367
     49 H19B        0.5270    5.7430   -6.6060 hc        1 2PD      0.037367
     50 H18         1.4920    7.9960   -4.6570 hc        1 2PD      0.037367
     51 H18A        1.6230    7.9450   -6.4640 hc        1 2PD      0.037367
     52 H18B        3.1100    8.1800   -5.4540 hc        1 2PD      0.037367
     53 H4          8.1420    4.4520   -3.1190 ha        1 2PD      0.141500
     54 H2         10.2900    5.5680   -2.5450 ha        1 2PD      0.135500
     55 H5          6.6420    5.3130    0.8540 ha        1 2PD      0.141500
     56 H3          8.7910    6.4460    1.4120 ha        1 2PD      0.135500
     57 H1         10.6200    6.5700   -0.2830 ha        1 2PD      0.134000
@<TRIPOS>BOND
     1    1    2 2   
     2    2    3 2   
     3    2    4 1   
     4    2   10 1   
     5    4    5 ar  
     6    4   13 ar  
     7    5    6 ar  
     8    5   34 1   
     9    6    7 1   
    10    6    9 ar  
    11    7    8 1   
    12    8   35 1   
    13    8   36 1   
    14    8   37 1   
    15    9   14 ar  
    16    9   38 1   
    17   10   11 1   
    18   10   39 1   
    19   11   12 2   
    20   11   15 1   
    21   12   13 1   
    22   13   14 ar  
    23   14   40 1   
    24   15   16 2   
    25   15   18 1   
    26   16   17 1   
    27   16   27 1   
    28   17   41 1   
    29   18   19 2   
    30   18   20 1   
    31   20   21 1   
    32   20   26 1   
    33   21   22 1   
    34   21   42 1   
    35   21   43 1   
    36   22   23 1   
    37   22   44 1   
    38   22   45 1   
    39   23   24 1   
    40   23   25 1   
    41   23   46 1   
    42   24   47 1   
    43   24   48 1   
    44   24   49 1   
    45   25   50 1   
    46   25   51 1   
    47   25   52 1   
    48   26   27 2   
    49   27   28 1   
    50   28   29 ar  
    51   28   31 ar  
    52   29   30 ar  
    53   29   53 1   
    54   30   33 ar  
    55   30   54 1   
    56   31   32 ar  
    57   31   55 1   
    58   32   33 ar  
    59   32   56 1   
    60   33   57 1   
@<TRIPOS>SUBSTRUCTURE
     1 2PD         1 TEMP              0 ****  ****    0 ROOT
