@<TRIPOS>MOLECULE
2PE
   66    65     1     0     0
SMALL
bcc


@<TRIPOS>ATOM
      1 O1         -1.2270    2.5380    0.2010 oh        1 2PE     -0.599800
      2 C2         -1.9190    1.4820    0.8330 c3        1 2PE      0.131400
      3 C3         -1.4050    0.1200    0.3750 c3        1 2PE      0.087400
      4 O4         -0.0660    0.0210    0.8550 os        1 2PE     -0.438600
      5 C5          0.5670   -1.1920    0.4520 c3        1 2PE      0.128400
      6 C6          1.9030   -1.2510    1.1860 c3        1 2PE      0.127400
      7 O7          1.7620   -2.2420    2.2010 os        1 2PE     -0.428600
      8 C8          2.8950   -2.2910    3.0680 c3        1 2PE      0.127400
      9 C9          2.6950   -3.5020    3.9740 c3        1 2PE      0.127400
     10 O10         3.6070   -4.5000    3.5230 os        1 2PE     -0.429600
     11 C11         3.4150   -5.7470    4.1880 c3        1 2PE      0.127400
     12 C12         4.5600   -6.6540    3.7490 c3        1 2PE      0.127400
     13 O13         5.4400   -6.7640    4.8650 os        1 2PE     -0.429600
     14 C14         6.6430   -7.4570    4.5380 c3        1 2PE      0.127400
     15 C15         7.3970   -7.6570    5.8480 c3        1 2PE      0.127400
     16 O16         7.2830   -9.0410    6.1740 os        1 2PE     -0.429600
     17 C17         7.8100   -9.3370    7.4660 c3        1 2PE      0.127400
     18 C18         7.7880  -10.8550    7.6050 c3        1 2PE      0.127400
     19 O19         9.1420  -11.2910    7.5040 os        1 2PE     -0.429600
     20 C20         9.2500  -12.7120    7.4530 c3        1 2PE      0.127400
     21 C21        10.7380  -13.0370    7.5220 c3        1 2PE      0.127400
     22 O22        10.9800  -13.5520    8.8300 os        1 2PE     -0.428600
     23 C23        12.3700  -13.7410    9.0880 c3        1 2PE      0.127400
     24 C24        12.4670  -14.4470   10.4360 c3        1 2PE      0.128400
     25 O25        12.8420  -15.7960   10.1610 os        1 2PE     -0.438600
     26 C26        12.8020  -16.6190   11.3250 c3        1 2PE      0.087400
     27 C27        13.2810  -17.9990   10.8860 c3        1 2PE      0.131400
     28 O28        14.6390  -17.9810   10.5020 oh        1 2PE     -0.599800
     29 HO1        -0.2890    2.4170    0.3970 ho        1 2PE      0.412000
     30 H21        -1.8260    1.5710    1.9480 h1        1 2PE      0.053700
     31 H22        -2.9900    1.6070    0.5240 h1        1 2PE      0.053700
     32 H31        -2.0280   -0.7040    0.8100 h1        1 2PE      0.039200
     33 H32        -1.4110    0.0480   -0.7440 h1        1 2PE      0.039200
     34 H51         0.7300   -1.1690   -0.6580 h1        1 2PE      0.045200
     35 H52        -0.0740   -2.0730    0.7210 h1        1 2PE      0.045200
     36 H61         2.1500   -0.2570    1.6450 h1        1 2PE      0.043200
     37 H62         2.7220   -1.5560    0.4830 h1        1 2PE      0.043200
     38 H81         2.9330   -1.3490    3.6760 h1        1 2PE      0.044200
     39 H82         3.8380   -2.3930    2.4690 h1        1 2PE      0.044200
     40 H91         2.9330   -3.2370    5.0380 h1        1 2PE      0.043700
     41 H92         1.6400   -3.8800    3.9060 h1        1 2PE      0.043700
     42 H111        3.4270   -5.6010    5.3000 h1        1 2PE      0.043700
     43 H112        2.4290   -6.1820    3.8750 h1        1 2PE      0.043700
     44 H121        4.1730   -7.6730    3.4830 h1        1 2PE      0.043700
     45 H122        5.1010   -6.2140    2.8690 h1        1 2PE      0.043700
     46 H141        6.4050   -8.4440    4.0600 h1        1 2PE      0.043700
     47 H142        7.2470   -6.8310    3.8300 h1        1 2PE      0.043700
     48 H151        8.4810   -7.3980    5.7190 h1        1 2PE      0.043700
     49 H152        6.9530   -7.0280    6.6640 h1        1 2PE      0.043700
     50 H171        7.1580   -8.8630    8.2460 h1        1 2PE      0.043700
     51 H172        8.8570   -8.9430    7.5580 h1        1 2PE      0.043700
     52 H181        7.1680  -11.3210    6.7940 h1        1 2PE      0.043700
     53 H182        7.3810  -11.1500    8.6080 h1        1 2PE      0.043700
     54 H201        8.8140  -13.0800    6.4870 h1        1 2PE      0.043700
     55 H202        8.7000  -13.1750    8.3150 h1        1 2PE      0.043700
     56 H211       11.3550  -12.1160    7.3470 h1        1 2PE      0.044200
     57 H212       11.0040  -13.8200    6.7640 h1        1 2PE      0.044200
     58 H231       12.8340  -14.3620    8.2770 h1        1 2PE      0.043200
     59 H232       12.8750  -12.7400    9.1340 h1        1 2PE      0.043200
     60 H241       13.2580  -13.9700   11.0720 h1        1 2PE      0.045200
     61 H242       11.4820  -14.4200   10.9720 h1        1 2PE      0.045200
     62 H261       11.7530  -16.6710   11.7180 h1        1 2PE      0.039200
     63 H262       13.4800  -16.1940   12.1110 h1        1 2PE      0.039200
     64 H271       12.6450  -18.3740   10.0400 h1        1 2PE      0.053700
     65 H272       13.2300  -18.7120   11.7510 h1        1 2PE      0.053700
     66 HO2        14.7240  -17.3230    9.7990 ho        1 2PE      0.412000
@<TRIPOS>BOND
     1    1    2 1   
     2    1   29 1   
     3    2    3 1   
     4    2   30 1   
     5    2   31 1   
     6    3    4 1   
     7    3   32 1   
     8    3   33 1   
     9    4    5 1   
    10    5    6 1   
    11    5   34 1   
    12    5   35 1   
    13    6    7 1   
    14    6   36 1   
    15    6   37 1   
    16    7    8 1   
    17    8    9 1   
    18    8   38 1   
    19    8   39 1   
    20    9   10 1   
    21    9   40 1   
    22    9   41 1   
    23   10   11 1   
    24   11   12 1   
    25   11   42 1   
    26   11   43 1   
    27   12   13 1   
    28   12   44 1   
    29   12   45 1   
    30   13   14 1   
    31   14   15 1   
    32   14   46 1   
    33   14   47 1   
    34   15   16 1   
    35   15   48 1   
    36   15   49 1   
    37   16   17 1   
    38   17   18 1   
    39   17   50 1   
    40   17   51 1   
    41   18   19 1   
    42   18   52 1   
    43   18   53 1   
    44   19   20 1   
    45   20   21 1   
    46   20   54 1   
    47   20   55 1   
    48   21   22 1   
    49   21   56 1   
    50   21   57 1   
    51   22   23 1   
    52   23   24 1   
    53   23   58 1   
    54   23   59 1   
    55   24   25 1   
    56   24   60 1   
    57   24   61 1   
    58   25   26 1   
    59   26   27 1   
    60   26   62 1   
    61   26   63 1   
    62   27   28 1   
    63   27   64 1   
    64   27   65 1   
    65   28   66 1   
@<TRIPOS>SUBSTRUCTURE
     1 2PE         1 TEMP              0 ****  ****    0 ROOT
