@<TRIPOS>MOLECULE
2PE
   66    65     1     0     0
SMALL
bcc


@<TRIPOS>ATOM
      1 O1         -3.3680    0.1600   12.7780 oh        1 2PE     -0.599800
      2 C2         -1.9880    0.4550   12.7420 c3        1 2PE      0.131400
      3 C3         -1.2260   -0.5280   11.8580 c3        1 2PE      0.087400
      4 O4         -1.6830   -0.3000   10.5270 os        1 2PE     -0.438600
      5 C5         -1.0900   -1.1950    9.5880 c3        1 2PE      0.128400
      6 C6         -1.5160   -0.7180    8.2040 c3        1 2PE      0.127400
      7 O7         -0.3680   -0.1150    7.6120 os        1 2PE     -0.428600
      8 C8         -0.6680    0.5140    6.3680 c3        1 2PE      0.127400
      9 C9          0.6650    0.9440    5.7660 c3        1 2PE      0.127400
     10 O10         0.9370    0.0420    4.6960 os        1 2PE     -0.428600
     11 C11         2.2370    0.2350    4.1430 c3        1 2PE      0.127400
     12 C12         2.3170   -0.6530    2.9060 c3        1 2PE      0.129400
     13 O13         2.2910    0.2210    1.7790 os        1 2PE     -0.430600
     14 C14         2.2210   -0.4940    0.5480 c3        1 2PE      0.128400
     15 C15         2.2040    0.5670   -0.5480 c3        1 2PE      0.128400
     16 O16         2.2980   -0.1460   -1.7790 os        1 2PE     -0.430600
     17 C17         2.2960    0.7290   -2.9050 c3        1 2PE      0.129400
     18 C18         2.2450   -0.1620   -4.1430 c3        1 2PE      0.127400
     19 O19         0.9390   -0.0110   -4.6960 os        1 2PE     -0.428600
     20 C20         0.6970   -0.9220   -5.7660 c3        1 2PE      0.127400
     21 C21        -0.6490   -0.5350   -6.3680 c3        1 2PE      0.127400
     22 O22        -0.3690    0.1040   -7.6120 os        1 2PE     -0.428600
     23 C23        -1.5360    0.6690   -8.2040 c3        1 2PE      0.127400
     24 C24        -1.1250    1.1600   -9.5880 c3        1 2PE      0.128400
     25 O25        -1.6890    0.2470  -10.5270 os        1 2PE     -0.438600
     26 C26        -1.2380    0.4900  -11.8580 c3        1 2PE      0.087400
     27 C27        -1.9680   -0.5160  -12.7430 c3        1 2PE      0.131400
     28 O28        -3.3570   -0.2650  -12.7800 oh        1 2PE     -0.599800
     29 HO1        -3.6820    0.1710   11.8650 ho        1 2PE      0.412000
     30 H21        -1.8260    1.5040   12.3770 h1        1 2PE      0.053700
     31 H22        -1.6400    0.3590   13.8040 h1        1 2PE      0.053700
     32 H31        -0.1220   -0.3400   11.9190 h1        1 2PE      0.039200
     33 H32        -1.4460   -1.5860   12.1580 h1        1 2PE      0.039200
     34 H51         0.0280   -1.1770    9.6880 h1        1 2PE      0.045200
     35 H52        -1.4700   -2.2330    9.7800 h1        1 2PE      0.045200
     36 H61        -1.8420   -1.5880    7.5740 h1        1 2PE      0.043700
     37 H62        -2.3510    0.0280    8.2780 h1        1 2PE      0.043700
     38 H81        -1.1990   -0.2030    5.6870 h1        1 2PE      0.044200
     39 H82        -1.3190    1.4080    6.5560 h1        1 2PE      0.044200
     40 H91         0.5920    1.9870    5.3590 h1        1 2PE      0.043700
     41 H92         1.4830    0.8940    6.5330 h1        1 2PE      0.043700
     42 H111        2.3870    1.3130    3.8690 h1        1 2PE      0.043700
     43 H112        3.0070   -0.0730    4.8980 h1        1 2PE      0.043700
     44 H121        3.2780   -1.2320    2.9000 h1        1 2PE      0.044700
     45 H122        1.4480   -1.3630    2.8670 h1        1 2PE      0.044700
     46 H141        3.1160   -1.1620    0.4400 h1        1 2PE      0.041200
     47 H142        1.2880   -1.1150    0.5150 h1        1 2PE      0.041200
     48 H151        1.2520    1.1570   -0.5150 h1        1 2PE      0.041200
     49 H152        3.0770    1.2630   -0.4390 h1        1 2PE      0.041200
     50 H171        1.4050    1.4100   -2.8670 h1        1 2PE      0.044700
     51 H172        3.2370    1.3390   -2.8990 h1        1 2PE      0.044700
     52 H181        3.0050    0.1710   -4.8970 h1        1 2PE      0.043700
     53 H182        2.4300   -1.2350   -3.8690 h1        1 2PE      0.043700
     54 H201        1.5130   -0.8460   -6.5330 h1        1 2PE      0.043700
     55 H202        0.6580   -1.9670   -5.3590 h1        1 2PE      0.043700
     56 H211       -1.2710   -1.4500   -6.5570 h1        1 2PE      0.044200
     57 H212       -1.2030    0.1650   -5.6880 h1        1 2PE      0.044200
     58 H231       -2.3460   -0.1040   -8.2790 h1        1 2PE      0.043700
     59 H232       -1.8910    1.5270   -7.5740 h1        1 2PE      0.043700
     60 H241       -1.5390    2.1850   -9.7790 h1        1 2PE      0.045200
     61 H242       -0.0070    1.1790   -9.6880 h1        1 2PE      0.045200
     62 H261       -1.4920    1.5410  -12.1570 h1        1 2PE      0.039200
     63 H262       -0.1290    0.3370  -11.9180 h1        1 2PE      0.039200
     64 H271       -1.6220   -0.4090  -13.8050 h1        1 2PE      0.053700
     65 H272       -1.7730   -1.5600  -12.3780 h1        1 2PE      0.053700
     66 HO2        -3.6710   -0.2870  -11.8670 ho        1 2PE      0.412000
@<TRIPOS>BOND
     1    1    2 1   
     2    1   29 1   
     3    2    3 1   
     4    2   30 1   
     5    2   31 1   
     6    3    4 1   
     7    3   32 1   
     8    3   33 1   
     9    4    5 1   
    10    5    6 1   
    11    5   34 1   
    12    5   35 1   
    13    6    7 1   
    14    6   36 1   
    15    6   37 1   
    16    7    8 1   
    17    8    9 1   
    18    8   38 1   
    19    8   39 1   
    20    9   10 1   
    21    9   40 1   
    22    9   41 1   
    23   10   11 1   
    24   11   12 1   
    25   11   42 1   
    26   11   43 1   
    27   12   13 1   
    28   12   44 1   
    29   12   45 1   
    30   13   14 1   
    31   14   15 1   
    32   14   46 1   
    33   14   47 1   
    34   15   16 1   
    35   15   48 1   
    36   15   49 1   
    37   16   17 1   
    38   17   18 1   
    39   17   50 1   
    40   17   51 1   
    41   18   19 1   
    42   18   52 1   
    43   18   53 1   
    44   19   20 1   
    45   20   21 1   
    46   20   54 1   
    47   20   55 1   
    48   21   22 1   
    49   21   56 1   
    50   21   57 1   
    51   22   23 1   
    52   23   24 1   
    53   23   58 1   
    54   23   59 1   
    55   24   25 1   
    56   24   60 1   
    57   24   61 1   
    58   25   26 1   
    59   26   27 1   
    60   26   62 1   
    61   26   63 1   
    62   27   28 1   
    63   27   64 1   
    64   27   65 1   
    65   28   66 1   
@<TRIPOS>SUBSTRUCTURE
     1 2PE         1 TEMP              0 ****  ****    0 ROOT
