@<TRIPOS>MOLECULE
2PE
   66    65     1     0     0
SMALL
bcc


@<TRIPOS>ATOM
      1 O1         -1.2090    2.5660    0.2310 oh        1 2PE     -0.599800
      2 C2         -1.9070    1.5000    0.8390 c3        1 2PE      0.131400
      3 C3         -1.3830    0.1450    0.3720 c3        1 2PE      0.087400
      4 O4         -0.0510    0.0430    0.8730 os        1 2PE     -0.438600
      5 C5          0.5910   -1.1640    0.4640 c3        1 2PE      0.128400
      6 C6          1.9140   -1.2290    1.2190 c3        1 2PE      0.127400
      7 O7          1.7610   -2.2330    2.2200 os        1 2PE     -0.428600
      8 C8          2.8790   -2.2900    3.1040 c3        1 2PE      0.127400
      9 C9          2.6690   -3.5130    3.9900 c3        1 2PE      0.127400
     10 O10         3.5930   -4.5020    3.5410 os        1 2PE     -0.429600
     11 C11         3.3960   -5.7580    4.1860 c3        1 2PE      0.127400
     12 C12         4.5510   -6.6540    3.7520 c3        1 2PE      0.127400
     13 O13         5.4170   -6.7730    4.8790 os        1 2PE     -0.429600
     14 C14         6.6290   -7.4540    4.5600 c3        1 2PE      0.127400
     15 C15         7.3670   -7.6650    5.8770 c3        1 2PE      0.127400
     16 O16         7.2630   -9.0540    6.1820 os        1 2PE     -0.429600
     17 C17         7.7760   -9.3630    7.4770 c3        1 2PE      0.127400
     18 C18         7.7700  -10.8830    7.5940 c3        1 2PE      0.127400
     19 O19         9.1300  -11.3020    7.5010 os        1 2PE     -0.429600
     20 C20         9.2550  -12.7210    7.4320 c3        1 2PE      0.127400
     21 C21        10.7460  -13.0290    7.5110 c3        1 2PE      0.127400
     22 O22        10.9820  -13.5600    8.8140 os        1 2PE     -0.428600
     23 C23        12.3710  -13.7350    9.0830 c3        1 2PE      0.127400
     24 C24        12.4640  -14.4600   10.4210 c3        1 2PE      0.128400
     25 O25        12.8610  -15.7990   10.1310 os        1 2PE     -0.438600
     26 C26        12.8210  -16.6390   11.2830 c3        1 2PE      0.087400
     27 C27        13.3230  -18.0050   10.8280 c3        1 2PE      0.131400
     28 O28        14.6840  -17.9630   10.4570 oh        1 2PE     -0.599800
     29 HO1        -0.2730    2.4440    0.4400 ho        1 2PE      0.412000
     30 H21        -1.8320    1.5760    1.9560 h1        1 2PE      0.053700
     31 H22        -2.9740    1.6260    0.5150 h1        1 2PE      0.053700
     32 H31        -2.0110   -0.6850    0.7870 h1        1 2PE      0.039200
     33 H32        -1.3710    0.0870   -0.7480 h1        1 2PE      0.039200
     34 H51         0.7710   -1.1270   -0.6420 h1        1 2PE      0.045200
     35 H52        -0.0530   -2.0490    0.7130 h1        1 2PE      0.045200
     36 H61         2.1520   -0.2400    1.6940 h1        1 2PE      0.043200
     37 H62         2.7450   -1.5240    0.5250 h1        1 2PE      0.043200
     38 H81         2.9030   -1.3560    3.7250 h1        1 2PE      0.044200
     39 H82         3.8320   -2.3800    2.5190 h1        1 2PE      0.044200
     40 H91         2.8890   -3.2620    5.0610 h1        1 2PE      0.043700
     41 H92         1.6170   -3.8950    3.8990 h1        1 2PE      0.043700
     42 H111        3.3900   -5.6260    5.3010 h1        1 2PE      0.043700
     43 H112        2.4170   -6.1930    3.8530 h1        1 2PE      0.043700
     44 H121        4.1720   -7.6720    3.4710 h1        1 2PE      0.043700
     45 H122        5.1010   -6.2030    2.8850 h1        1 2PE      0.043700
     46 H141        6.4040   -8.4370    4.0670 h1        1 2PE      0.043700
     47 H142        7.2380   -6.8150    3.8670 h1        1 2PE      0.043700
     48 H151        8.4500   -7.3930    5.7670 h1        1 2PE      0.043700
     49 H152        6.9050   -7.0520    6.6960 h1        1 2PE      0.043700
     50 H171        7.1080   -8.9080    8.2550 h1        1 2PE      0.043700
     51 H172        8.8160   -8.9580    7.5890 h1        1 2PE      0.043700
     52 H181        7.1640  -11.3440    6.7690 h1        1 2PE      0.043700
     53 H182        7.3550  -11.1980    8.5880 h1        1 2PE      0.043700
     54 H201        8.8330  -13.0810    6.4570 h1        1 2PE      0.043700
     55 H202        8.7030  -13.2010    8.2830 h1        1 2PE      0.043700
     56 H211       11.3540  -12.0980    7.3550 h1        1 2PE      0.044200
     57 H212       11.0280  -13.7980    6.7450 h1        1 2PE      0.044200
     58 H231       12.8510  -14.3380    8.2680 h1        1 2PE      0.043200
     59 H232       12.8630  -12.7290    9.1490 h1        1 2PE      0.043200
     60 H241       13.2420  -13.9810   11.0740 h1        1 2PE      0.045200
     61 H242       11.4730  -14.4540   10.9480 h1        1 2PE      0.045200
     62 H261       11.7700  -16.7110   11.6650 h1        1 2PE      0.039200
     63 H262       13.4860  -16.2160   12.0820 h1        1 2PE      0.039200
     64 H271       12.7000  -18.3770    9.9720 h1        1 2PE      0.053700
     65 H272       13.2750  -18.7310   11.6830 h1        1 2PE      0.053700
     66 HO2        14.7660  -17.2950    9.7640 ho        1 2PE      0.412000
@<TRIPOS>BOND
     1    1    2 1   
     2    1   29 1   
     3    2    3 1   
     4    2   30 1   
     5    2   31 1   
     6    3    4 1   
     7    3   32 1   
     8    3   33 1   
     9    4    5 1   
    10    5    6 1   
    11    5   34 1   
    12    5   35 1   
    13    6    7 1   
    14    6   36 1   
    15    6   37 1   
    16    7    8 1   
    17    8    9 1   
    18    8   38 1   
    19    8   39 1   
    20    9   10 1   
    21    9   40 1   
    22    9   41 1   
    23   10   11 1   
    24   11   12 1   
    25   11   42 1   
    26   11   43 1   
    27   12   13 1   
    28   12   44 1   
    29   12   45 1   
    30   13   14 1   
    31   14   15 1   
    32   14   46 1   
    33   14   47 1   
    34   15   16 1   
    35   15   48 1   
    36   15   49 1   
    37   16   17 1   
    38   17   18 1   
    39   17   50 1   
    40   17   51 1   
    41   18   19 1   
    42   18   52 1   
    43   18   53 1   
    44   19   20 1   
    45   20   21 1   
    46   20   54 1   
    47   20   55 1   
    48   21   22 1   
    49   21   56 1   
    50   21   57 1   
    51   22   23 1   
    52   23   24 1   
    53   23   58 1   
    54   23   59 1   
    55   24   25 1   
    56   24   60 1   
    57   24   61 1   
    58   25   26 1   
    59   26   27 1   
    60   26   62 1   
    61   26   63 1   
    62   27   28 1   
    63   27   64 1   
    64   27   65 1   
    65   28   66 1   
@<TRIPOS>SUBSTRUCTURE
     1 2PE         1 TEMP              0 ****  ****    0 ROOT
