@<TRIPOS>MOLECULE
2PE
   66    65     1     0     0
SMALL
bcc


@<TRIPOS>ATOM
      1 O1         -8.9610    4.8210  -10.9740 oh        1 2PE     -0.602800
      2 C2         -8.2300    3.7240  -10.4850 c3        1 2PE      0.127400
      3 C3         -8.7540    3.3420   -9.0610 c3        1 2PE      0.128400
      4 O4         -7.9230    2.3330   -8.5080 os        1 2PE     -0.431100
      5 C5         -8.1700    2.0710   -7.1200 c3        1 2PE      0.129400
      6 C6         -7.1600    1.0610   -6.6110 c3        1 2PE      0.127900
      7 O7         -6.9190    1.2860   -5.2040 os        1 2PE     -0.429100
      8 C8         -6.1260    0.2680   -4.5750 c3        1 2PE      0.127900
      9 C9         -5.9570    0.6040   -3.0600 c3        1 2PE      0.128900
     10 O10        -4.9420   -0.2620   -2.4820 os        1 2PE     -0.426600
     11 C11        -4.3980    0.2210   -1.2300 c3        1 2PE      0.096900
     12 C12        -3.7290   -0.8830   -0.5350 c3        1 2PE      0.129400
     13 O13        -2.4220   -0.4690   -0.1360 os        1 2PE     -0.421100
     14 C14        -1.9770   -1.0480    1.0830 c3        1 2PE      0.122900
     15 C15        -0.4510   -1.3720    0.9790 c3        1 2PE      0.122900
     16 O16         0.2360   -0.7810    2.0850 os        1 2PE     -0.421100
     17 C17         1.3620   -1.5410    2.5500 c3        1 2PE      0.129400
     18 C18         2.5030   -0.5610    2.9950 c3        1 2PE      0.096900
     19 O19         3.2950   -1.1840    4.0140 os        1 2PE     -0.426600
     20 C20         4.6930   -0.8480    3.9610 c3        1 2PE      0.128900
     21 C21         5.2760   -0.8690    5.3840 c3        1 2PE      0.127900
     22 O22         6.5980   -1.3260    5.3310 os        1 2PE     -0.429100
     23 C23         7.3930   -0.9290    6.4280 c3        1 2PE      0.127900
     24 C24         8.6080   -1.8670    6.5410 c3        1 2PE      0.129400
     25 O25         9.7710   -1.1010    6.7590 os        1 2PE     -0.431100
     26 C26        10.9180   -1.8740    7.1610 c3        1 2PE      0.128400
     27 C27        12.1540   -0.9380    7.2780 c3        1 2PE      0.127400
     28 O28        13.3410   -1.7270    7.4060 oh        1 2PE     -0.602800
     29 HO1        -8.7500    4.9620  -11.8470 ho        1 2PE      0.405000
     30 H21        -7.2850    3.9610  -10.4320 h1        1 2PE      0.035450
     31 H22        -8.3410    2.9690  -11.0840 h1        1 2PE      0.035450
     32 H31        -8.7370    4.1240   -8.4910 h1        1 2PE      0.041700
     33 H32        -9.6840    3.0040   -9.1300 h1        1 2PE      0.041700
     34 H51        -8.0860    2.8960   -6.6140 h1        1 2PE      0.044950
     35 H52        -9.0620    1.7160   -7.0120 h1        1 2PE      0.044950
     36 H61        -6.3250    1.1620   -7.1040 h1        1 2PE      0.044450
     37 H62        -7.5090    0.1530   -6.7420 h1        1 2PE      0.044450
     38 H81        -6.5690   -0.5920   -4.6680 h1        1 2PE      0.042950
     39 H82        -5.2320    0.2300   -5.0070 h1        1 2PE      0.042950
     40 H91        -5.6830    1.5390   -2.9620 h1        1 2PE      0.043700
     41 H92        -6.8290    0.4590   -2.5860 h1        1 2PE      0.043700
     42 H111       -3.7510    0.9360   -1.4090 h1        1 2PE      0.036450
     43 H112       -5.1120    0.5620   -0.6770 h1        1 2PE      0.036450
     44 H121       -3.6580   -1.6390   -1.1270 h1        1 2PE      0.062200
     45 H122       -4.2430   -1.1320    0.2490 h1        1 2PE      0.062200
     46 H141       -2.1260   -0.4180    1.8170 h1        1 2PE      0.041950
     47 H142       -2.4770   -1.8740    1.2550 h1        1 2PE      0.041950
     48 H151       -0.0920   -1.0040    0.1350 h1        1 2PE      0.041950
     49 H152       -0.3200   -2.3490    0.9940 h1        1 2PE      0.041950
     50 H171        1.6930   -2.1270    1.8150 h1        1 2PE      0.062200
     51 H172        1.0860   -2.1040    3.3240 h1        1 2PE      0.062200
     52 H181        3.0680   -0.3480    2.2250 h1        1 2PE      0.036450
     53 H182        2.1030    0.2720    3.3520 h1        1 2PE      0.036450
     54 H201        4.8020    0.0510    3.5720 h1        1 2PE      0.043700
     55 H202        5.1690   -1.5080    3.4010 h1        1 2PE      0.043700
     56 H211        5.2540    0.0410    5.7650 h1        1 2PE      0.042950
     57 H212        4.7430   -1.4740    5.9480 h1        1 2PE      0.042950
     58 H231        6.8630   -0.9770    7.2520 h1        1 2PE      0.044450
     59 H232        7.7010   -0.0150    6.2920 h1        1 2PE      0.044450
     60 H241        8.4800   -2.4680    7.2710 h1        1 2PE      0.044950
     61 H242        8.7010   -2.3620    5.7360 h1        1 2PE      0.044950
     62 H261       10.7390   -2.3000    8.0450 h1        1 2PE      0.041700
     63 H262       11.0960   -2.5720    6.4900 h1        1 2PE      0.041700
     64 H271       12.2180   -0.3760    6.4700 h1        1 2PE      0.035450
     65 H272       12.0570   -0.3700    8.0620 h1        1 2PE      0.035450
     66 HO2        14.0650   -1.1790    7.4470 ho        1 2PE      0.405000
@<TRIPOS>BOND
     1    1    2 1   
     2    1   29 1   
     3    2    3 1   
     4    2   30 1   
     5    2   31 1   
     6    3    4 1   
     7    3   32 1   
     8    3   33 1   
     9    4    5 1   
    10    5    6 1   
    11    5   34 1   
    12    5   35 1   
    13    6    7 1   
    14    6   36 1   
    15    6   37 1   
    16    7    8 1   
    17    8    9 1   
    18    8   38 1   
    19    8   39 1   
    20    9   10 1   
    21    9   40 1   
    22    9   41 1   
    23   10   11 1   
    24   11   12 1   
    25   11   42 1   
    26   11   43 1   
    27   12   13 1   
    28   12   44 1   
    29   12   45 1   
    30   13   14 1   
    31   14   15 1   
    32   14   46 1   
    33   14   47 1   
    34   15   16 1   
    35   15   48 1   
    36   15   49 1   
    37   16   17 1   
    38   17   18 1   
    39   17   50 1   
    40   17   51 1   
    41   18   19 1   
    42   18   52 1   
    43   18   53 1   
    44   19   20 1   
    45   20   21 1   
    46   20   54 1   
    47   20   55 1   
    48   21   22 1   
    49   21   56 1   
    50   21   57 1   
    51   22   23 1   
    52   23   24 1   
    53   23   58 1   
    54   23   59 1   
    55   24   25 1   
    56   24   60 1   
    57   24   61 1   
    58   25   26 1   
    59   26   27 1   
    60   26   62 1   
    61   26   63 1   
    62   27   28 1   
    63   27   64 1   
    64   27   65 1   
    65   28   66 1   
@<TRIPOS>SUBSTRUCTURE
     1 2PE         1 TEMP              0 ****  ****    0 ROOT
