@<TRIPOS>MOLECULE
2PG
   15    14     1     0     0
SMALL
bcc


@<TRIPOS>ATOM
      1 C1         -0.7340   -0.1740   -2.1880 c         1 2PG      0.900600
      2 C2          0.2250   -0.1640   -0.9660 c3        1 2PG      0.124100
      3 C3          1.5600    0.4050   -1.5120 c3        1 2PG      0.128400
      4 O1         -1.0440    0.8920   -2.8090 o         1 2PG     -0.913800
      5 O2         -1.1240   -1.3010   -2.6460 o         1 2PG     -0.913800
      6 O3          2.7060    0.0220   -0.7790 oh        1 2PG     -0.736800
      7 O1P        -0.2340    0.5820    0.1010 os        1 2PG     -0.572200
      8 O2P         1.4150   -0.6150    1.6090 o         1 2PG     -0.945833
      9 O3P        -0.0170    1.2760    2.5070 o         1 2PG     -0.945833
     10 O4P        -1.0650   -0.9790    2.0020 o         1 2PG     -0.945833
     11 H2          0.4020   -1.2300   -0.6350 h1        1 2PG      0.019700
     12 H31         1.5030    1.5260   -1.5290 h1        1 2PG     -0.011800
     13 H32         1.7320    0.0370   -2.5610 h1        1 2PG     -0.011800
     14 H3          2.3950   -0.1860    0.1370 ho        1 2PG      0.487000
     15 P           0.0310    0.0060    1.6910 p5        1 2PG      1.336900
@<TRIPOS>BOND
     1    1    2 1   
     2    1    4 1   
     3    1    5 1   
     4    2    3 1   
     5    2    7 1   
     6    2   11 1   
     7    3    6 1   
     8    3   12 1   
     9    3   13 1   
    10    6   14 1   
    11    7   15 1   
    12    8   15 1   
    13    9   15 1   
    14   10   15 1   
@<TRIPOS>SUBSTRUCTURE
     1 2PG         1 TEMP              0 ****  ****    0 ROOT
