@<TRIPOS>MOLECULE
2PG
   15    12     1     0     0
SMALL
bcc


@<TRIPOS>ATOM
      1 C1         -1.6250    0.4380    0.1170 c1        1 2PG      0.314000
      2 C2         -0.1130    0.4030    0.1100 c2        1 2PG      0.066000
      3 C3          0.3980    0.3990    1.5340 c3        1 2PG     -0.034000
      4 P           0.7450   -0.6500   -2.0690 p3        1 2PG      2.519000
      5 O1         -2.2290    1.5420    0.0780 o         1 2PG     -0.649000
      6 O2         -2.2790   -0.6370    0.1620 o         1 2PG     -0.649000
      7 O3          0.0520   -0.8200    2.1540 oh        1 2PG     -0.419000
      8 O1P         0.3260   -0.7590   -0.5490 o         1 2PG     -0.725000
      9 O2P        -0.4010   -0.0750   -2.8660 o         1 2PG     -1.270667
     10 O3P         1.9490    0.2520   -2.1960 o         1 2PG     -1.270667
     11 O4P         1.0860   -2.0230   -2.5970 o         1 2PG     -1.270667
     12 H2          0.2290    1.1910   -0.3560 h4        1 2PG      0.065000
     13 H31         1.3720    0.4990    1.5320 h1        1 2PG      0.038500
     14 H32        -0.0060    1.1420    2.0280 h1        1 2PG      0.038500
     15 H3          0.4970   -0.9010    2.9190 ho        1 2PG      0.245000
@<TRIPOS>BOND
     1    1    5 1   
     2    1    6 1   
     3    2    3 1   
     4    2    8 1   
     5    2   12 1   
     6    3    7 1   
     7    3   13 1   
     8    3   14 1   
     9    4    9 1   
    10    4   10 1   
    11    4   11 1   
    12    7   15 1   
@<TRIPOS>SUBSTRUCTURE
     1 2PG         1 TEMP              0 ****  ****    0 ROOT
