@<TRIPOS>MOLECULE
2PG
   15    13     1     0     0
SMALL
bcc


@<TRIPOS>ATOM
      1 C1          0.2730    0.8500    0.3400 c2        1 2PG      0.319000
      2 C2          1.7010    0.2890    0.4300 c3        1 2PG     -0.049000
      3 C3          1.8830   -0.6950    1.6350 c3        1 2PG      0.163000
      4 O1         -0.6480    0.1280   -0.1640 o         1 2PG     -0.638500
      5 O2          0.0180    2.0280    0.7500 o         1 2PG     -0.638500
      6 O3          2.5930   -0.2260    2.6500 o         1 2PG     -0.798000
      7 O1P         2.0230   -0.3820   -0.8150 oh        1 2PG     -0.469000
      8 O2P         3.3750    0.5820   -3.2310 o         1 2PG     -1.177000
      9 O3P         4.5980   -1.2940   -2.0740 o         1 2PG     -1.177000
     10 O4P         2.2550   -1.6980   -2.9710 o         1 2PG     -1.177000
     11 H2          1.2490   -0.9140   -1.0540 ho        1 2PG      0.243000
     12 H31         2.4490    1.1190    0.4980 h1        1 2PG      0.082000
     13 H32         2.3350   -1.6460    1.1780 h1        1 2PG     -0.090000
     14 H3          0.8260   -1.0150    1.9410 h1        1 2PG     -0.090000
     15 P           3.3120   -0.7410   -2.5630 p3        1 2PG      2.497000
@<TRIPOS>BOND
     1    1    2 1   
     2    1    4 1   
     3    1    5 1   
     4    2    3 1   
     5    2    7 1   
     6    2   12 1   
     7    3    6 1   
     8    3   13 1   
     9    3   14 1   
    10    7   11 1   
    11    8   15 1   
    12    9   15 1   
    13   10   15 1   
@<TRIPOS>SUBSTRUCTURE
     1 2PG         1 TEMP              0 ****  ****    0 ROOT
