@<TRIPOS>MOLECULE
2PH
   30    31     1     0     0
SMALL
bcc


@<TRIPOS>ATOM
      1 N1          0.0000    0.0000    0.0000 ne        1 2PH     -0.331300
      2 C2          1.2870    0.0000    0.0000 c2        1 2PH      0.219300
      3 C3          2.0740    0.0000    1.2850 c3        1 2PH      0.095500
      4 N4          1.2690    0.6280    2.3440 nu        1 2PH     -0.386000
      5 N5         -0.7810    0.3570    3.5020 nc        1 2PH     -0.535300
      6 C6         -2.0740    0.0990    3.5040 cd        1 2PH      0.096800
      7 N6         -2.7570    0.1270    4.6900 nv        1 2PH     -0.562800
      8 N7         -2.7470   -0.1990    2.3590 ns        1 2PH     -0.023400
      9 C8         -2.1000   -0.2350    1.1730 c         1 2PH      0.631700
     10 O8         -2.6990   -0.4990    0.1430 o         1 2PH     -0.734500
     11 C9         -0.7180    0.0330    1.1580 cc        1 2PH     -0.183600
     12 C10        -0.0830    0.3400    2.3680 cd        1 2PH      0.051600
     13 C11         2.0240    0.0000   -1.3140 c3        1 2PH      0.234100
     14 O4          1.0810    0.0000   -2.3880 os        1 2PH     -0.441200
     15 P1          1.9320    0.0010   -3.7550 p5        1 2PH      0.892800
     16 O1P         2.7850    1.2080   -3.8040 o         1 2PH     -0.681000
     17 O2P         2.8610   -1.3130   -3.8090 o         1 2PH     -0.681000
     18 O3P         0.9290   -0.0000   -5.0120 os        1 2PH     -0.456800
     19 P2          1.8430   -0.0000   -6.3380 p5        1 2PH      0.805900
     20 O4P         2.6980   -1.2070   -6.3480 o         1 2PH     -0.598500
     21 O5P         0.8990   -0.0000   -7.6410 o         1 2PH     -0.598500
     22 O6P         2.7720    1.3150   -6.3490 o         1 2PH     -0.598500
     23 H31         2.9780    0.5800    1.1420 h1        1 2PH     -0.006300
     24 H32         2.2840   -1.0250    1.5670 h1        1 2PH     -0.006300
     25 HN4         1.6710    0.4200    3.2360 hn        1 2PH      0.217800
     26 HN61       -2.8210   -0.7000    5.2500 hn        1 2PH      0.224800
     27 HN62       -3.1670    0.9820    5.0100 hn        1 2PH      0.224800
     28 HN7        -3.7280   -0.3930    2.3960 hn        1 2PH      0.130500
     29 H111        2.6460   -0.8840   -1.3800 h1        1 2PH      0.000700
     30 H112        2.6460    0.8850   -1.3800 h1        1 2PH      0.000700
@<TRIPOS>BOND
     1    1    2 2   
     2    1   11 1   
     3    2    3 1   
     4    2   13 1   
     5    3    4 1   
     6    3   23 1   
     7    3   24 1   
     8    4   12 1   
     9    4   25 1   
    10    5    6 2   
    11    5   12 1   
    12    6    7 1   
    13    6    8 1   
    14    7   26 1   
    15    7   27 1   
    16    8    9 1   
    17    8   28 1   
    18    9   10 2   
    19    9   11 1   
    20   11   12 2   
    21   13   14 1   
    22   13   29 1   
    23   13   30 1   
    24   14   15 1   
    25   15   16 1   
    26   15   17 1   
    27   15   18 1   
    28   18   19 1   
    29   19   20 1   
    30   19   21 1   
    31   19   22 1   
@<TRIPOS>SUBSTRUCTURE
     1 2PH         1 TEMP              0 ****  ****    0 ROOT
