@<TRIPOS>MOLECULE
2PI
   18    17     1     0     0
SMALL
bcc


@<TRIPOS>ATOM
      1 N          -1.9410   -0.7570    0.8010 n3        1 2PI     -0.891800
      2 CA         -0.5180   -0.7570    0.8010 c3        1 2PI      0.018500
      3 C          -0.0140   -0.7570    2.2260 c         1 2PI      0.887600
      4 O          -0.4120    0.1230    3.0340 o         1 2PI     -0.845800
      5 OXT         0.8030   -1.6360    2.6050 o         1 2PI     -0.845800
      6 CB         -0.0140    0.4770    0.0890 c3        1 2PI     -0.063400
      7 CG          0.6370    0.0750   -1.2160 c3        1 2PI     -0.078400
      8 CD          1.1430    1.3110   -1.9290 c3        1 2PI     -0.088100
      9 H          -2.2450   -1.0530    1.6080 hn        1 2PI      0.328800
     10 HN2        -2.2450   -1.3070    0.1410 hn        1 2PI      0.328800
     11 HA         -0.1930   -1.5540    0.3410 h1        1 2PI      0.039700
     12 HB1        -0.7630    1.0770   -0.0930 hc        1 2PI      0.045200
     13 HB2         0.6390    0.9340    0.6520 hc        1 2PI      0.045200
     14 HG1         1.3850   -0.5250   -1.0350 hc        1 2PI      0.034200
     15 HG2        -0.0170   -0.3800   -1.7800 hc        1 2PI      0.034200
     16 HD1         0.3960    1.9150   -2.1020 hc        1 2PI      0.017367
     17 HD2         1.5560    1.0520   -2.7750 hc        1 2PI      0.017367
     18 HD3         1.8030    1.7620   -1.3690 hc        1 2PI      0.017367
@<TRIPOS>BOND
     1    1    2 1   
     2    1    9 1   
     3    1   10 1   
     4    2    3 1   
     5    2    6 1   
     6    2   11 1   
     7    3    4 1   
     8    3    5 1   
     9    6    7 1   
    10    6   12 1   
    11    6   13 1   
    12    7    8 1   
    13    7   14 1   
    14    7   15 1   
    15    8   16 1   
    16    8   17 1   
    17    8   18 1   
@<TRIPOS>SUBSTRUCTURE
     1 2PI         1 TEMP              0 ****  ****    0 ROOT
