@<TRIPOS>MOLECULE
2PI
   18    17     1     0     0
SMALL
bcc


@<TRIPOS>ATOM
      1 N          -1.8760    0.2790   -0.0860 n3        1 2PI     -0.891800
      2 CA         -0.4260    0.4090   -0.1630 c3        1 2PI      0.018500
      3 C           0.1970   -0.1040   -1.5040 c         1 2PI      0.887600
      4 O          -0.5830   -0.5750   -2.3820 o         1 2PI     -0.845800
      5 OXT         1.4470    0.0000   -1.6460 o         1 2PI     -0.845800
      6 CB          0.3080   -0.2700    0.9930 c3        1 2PI     -0.063400
      7 CG          0.0150    0.3770    2.3300 c3        1 2PI     -0.078400
      8 CD          0.8170   -0.2550    3.4390 c3        1 2PI     -0.088100
      9 H          -2.1000   -0.6900    0.0620 hn        1 2PI      0.328800
     10 HN2        -2.2440    0.5150   -0.9940 hn        1 2PI      0.328800
     11 HA         -0.2050    1.5160   -0.1170 h1        1 2PI      0.039700
     12 HB1         1.4070   -0.2060    0.7690 hc        1 2PI      0.045200
     13 HB2         0.0380   -1.3570    1.0350 hc        1 2PI      0.045200
     14 HG1        -1.0790    0.2900    2.5620 hc        1 2PI      0.034200
     15 HG2         0.2530    1.4720    2.2720 hc        1 2PI      0.034200
     16 HD1         0.5930    0.2370    4.4170 hc        1 2PI      0.017367
     17 HD2         0.5760   -1.3420    3.5290 hc        1 2PI      0.017367
     18 HD3         1.9120   -0.1580    3.2380 hc        1 2PI      0.017367
@<TRIPOS>BOND
     1    1    2 1   
     2    1    9 1   
     3    1   10 1   
     4    2    3 1   
     5    2    6 1   
     6    2   11 1   
     7    3    4 1   
     8    3    5 1   
     9    6    7 1   
    10    6   12 1   
    11    6   13 1   
    12    7    8 1   
    13    7   14 1   
    14    7   15 1   
    15    8   16 1   
    16    8   17 1   
    17    8   18 1   
@<TRIPOS>SUBSTRUCTURE
     1 2PI         1 TEMP              0 ****  ****    0 ROOT
