@<TRIPOS>MOLECULE
2PJ
   54    56     1     0     0
SMALL
bcc


@<TRIPOS>ATOM
      1 C7         -0.1660   -0.7870    0.1590 ca        1 2PJ     -0.109000
      2 C6          1.2030   -0.4300    0.1220 ca        1 2PJ     -0.112000
      3 C1          1.8470    0.1460    6.2660 c3        1 2PJ     -0.012100
      4 C5          1.8830   -0.1680    1.2860 ca        1 2PJ     -0.116000
      5 C4          1.2210   -0.2520    2.5370 ca        1 2PJ     -0.148300
      6 C3          1.8900    0.0090    3.7640 ca        1 2PJ     -0.063000
      7 C2          1.2000   -0.0870    4.9520 ca        1 2PJ     -0.233600
      8 C8         -0.8410   -0.8800    1.3510 ca        1 2PJ     -0.162300
      9 C9         -0.1620   -0.6140    2.5830 ca        1 2PJ      0.401600
     10 N10        -0.8440   -0.7160    3.7830 nb        1 2PJ     -0.634000
     11 C11        -0.1850   -0.4650    4.8960 ca        1 2PJ      0.416200
     12 C12         2.2190    1.6140    6.4780 c3        1 2PJ     -0.032400
     13 C13         1.0590    2.5500    6.6030 ca        1 2PJ     -0.132300
     14 C14         1.1910    3.8800    6.1340 ca        1 2PJ      0.061900
     15 F15         2.3890    4.3080    5.6480 f         1 2PJ     -0.159900
     16 C16         0.1040    4.7700    6.1600 ca        1 2PJ     -0.112000
     17 C17        -1.1140    4.3600    6.6840 ca        1 2PJ     -0.123000
     18 C18        -1.2480    3.0520    7.1860 ca        1 2PJ      0.146900
     19 C19        -0.1640    2.1530    7.1400 ca        1 2PJ     -0.133000
     20 F20        -2.4240    2.6480    7.7140 f         1 2PJ     -0.108900
     21 C21         3.1100    1.6910    7.7290 c3        1 2PJ      0.110800
     22 N22         3.6010    3.0820    7.9790 ny        1 2PJ     -0.645800
     23 C23         4.6210    3.1150    9.0830 c         1 2PJ      0.632100
     24 O24         5.6280    2.4240    9.0340 o         1 2PJ     -0.434000
     25 O25         4.2340    3.9770   10.0270 os        1 2PJ     -0.421900
     26 C26         5.1120    4.2030   11.2180 c3        1 2PJ      0.201800
     27 C27         6.4410    4.7580   10.7530 c3        1 2PJ     -0.129767
     28 C28         4.3000    5.2330   11.9870 c3        1 2PJ     -0.129767
     29 C29         5.2540    2.9040   11.9810 c3        1 2PJ     -0.129767
     30 H1         -0.6870   -0.9930   -0.7900 ha        1 2PJ      0.149000
     31 H2          1.7130   -0.3680   -0.8520 ha        1 2PJ      0.146000
     32 H3          2.7920   -0.4660    6.3160 hc        1 2PJ      0.062700
     33 H4          1.1840   -0.2090    7.0990 hc        1 2PJ      0.062700
     34 H5          2.9490    0.1070    1.2670 ha        1 2PJ      0.136000
     35 H6          2.9570    0.2790    3.7400 ha        1 2PJ      0.131000
     36 H7         -1.9060   -1.1600    1.3770 ha        1 2PJ      0.161000
     37 H8         -0.7610   -0.5660    5.8350 h4        1 2PJ      0.019100
     38 H9          2.8270    1.9300    5.5760 hc        1 2PJ      0.089700
     39 H10         0.2260    5.7880    5.7550 ha        1 2PJ      0.174000
     40 H11        -1.9770    5.0460    6.7040 ha        1 2PJ      0.180000
     41 H12        -0.3130    1.1280    7.5140 ha        1 2PJ      0.166000
     42 H13         4.0130    1.0260    7.6020 hx        1 2PJ      0.115700
     43 H14         2.5320    1.3600    8.6380 hx        1 2PJ      0.115700
     44 H15         4.0360    3.4470    7.1180 hn        1 2PJ      0.475800
     45 H16         7.0170    3.9910   10.1800 hc        1 2PJ      0.072700
     46 H17         6.2880    5.6590   10.1110 hc        1 2PJ      0.072700
     47 H18         7.0420    5.0560   11.6480 hc        1 2PJ      0.072700
     48 H19         4.8570    5.4930   12.9210 hc        1 2PJ      0.072700
     49 H20         3.3000    4.8210   12.2610 hc        1 2PJ      0.072700
     50 H21         4.1570    6.1570   11.3780 hc        1 2PJ      0.072700
     51 H22         5.7930    3.1040   12.9390 hc        1 2PJ      0.072700
     52 H23         5.8420    2.1570   11.3930 hc        1 2PJ      0.072700
     53 H24         4.2500    2.4770   12.2200 hc        1 2PJ      0.072700
     54 H222        2.8060    3.6930    8.2130 hn        1 2PJ      0.475800
@<TRIPOS>BOND
     1    1    2 ar  
     2    1    8 ar  
     3    1   30 1   
     4    2    4 ar  
     5    2   31 1   
     6    3    7 1   
     7    3   12 1   
     8    3   32 1   
     9    3   33 1   
    10    4    5 ar  
    11    4   34 1   
    12    5    6 ar  
    13    5    9 ar  
    14    6    7 ar  
    15    6   35 1   
    16    7   11 ar  
    17    8    9 ar  
    18    8   36 1   
    19    9   10 ar  
    20   10   11 ar  
    21   11   37 1   
    22   12   13 1   
    23   12   21 1   
    24   12   38 1   
    25   13   14 ar  
    26   13   19 ar  
    27   14   15 1   
    28   14   16 ar  
    29   16   17 ar  
    30   16   39 1   
    31   17   18 ar  
    32   17   40 1   
    33   18   19 ar  
    34   18   20 1   
    35   19   41 1   
    36   21   22 1   
    37   21   42 1   
    38   21   43 1   
    39   22   23 1   
    40   22   44 1   
    41   22   54 1   
    42   23   24 2   
    43   23   25 1   
    44   25   26 1   
    45   26   27 1   
    46   26   28 1   
    47   26   29 1   
    48   27   45 1   
    49   27   46 1   
    50   27   47 1   
    51   28   48 1   
    52   28   49 1   
    53   28   50 1   
    54   29   51 1   
    55   29   52 1   
    56   29   53 1   
@<TRIPOS>SUBSTRUCTURE
     1 2PJ         1 TEMP              0 ****  ****    0 ROOT
