@<TRIPOS>MOLECULE
2PJ
   54    56     1     0     0
SMALL
bcc


@<TRIPOS>ATOM
      1 C7         -0.1830   -0.7980    0.1720 ca        1 2PJ     -0.109000
      2 C6          1.1920   -0.4670    0.1390 ca        1 2PJ     -0.112000
      3 C1          1.8140    0.1540    6.2820 c3        1 2PJ     -0.012100
      4 C5          1.8710   -0.2070    1.3040 ca        1 2PJ     -0.116000
      5 C4          1.2000   -0.2670    2.5530 ca        1 2PJ     -0.148300
      6 C3          1.8670   -0.0070    3.7810 ca        1 2PJ     -0.063000
      7 C2          1.1690   -0.0790    4.9660 ca        1 2PJ     -0.233600
      8 C8         -0.8660   -0.8670    1.3610 ca        1 2PJ     -0.162300
      9 C9         -0.1900   -0.6030    2.5940 ca        1 2PJ      0.401600
     10 N10        -0.8800   -0.6800    3.7910 nb        1 2PJ     -0.634000
     11 C11        -0.2220   -0.4320    4.9050 ca        1 2PJ      0.416200
     12 C12         2.2120    1.6170    6.4820 c3        1 2PJ     -0.032400
     13 C13         1.0690    2.5750    6.5910 ca        1 2PJ     -0.132300
     14 C14         1.2290    3.8980    6.1110 ca        1 2PJ      0.061900
     15 F15         2.4370    4.2980    5.6280 f         1 2PJ     -0.159900
     16 C16         0.1590    4.8090    6.1220 ca        1 2PJ     -0.112000
     17 C17        -1.0700    4.4270    6.6430 ca        1 2PJ     -0.123000
     18 C18        -1.2310    3.1260    7.1560 ca        1 2PJ      0.146900
     19 C19        -0.1640    2.2070    7.1250 ca        1 2PJ     -0.133000
     20 F20        -2.4170    2.7490    7.6810 f         1 2PJ     -0.108900
     21 C21         3.0970    1.6890    7.7370 c3        1 2PJ      0.110800
     22 N22         3.6130    3.0720    7.9770 n4        1 2PJ     -0.645800
     23 C23         4.6270    3.0970    9.0870 c         1 2PJ      0.632100
     24 O24         5.6230    2.3880    9.0480 o         1 2PJ     -0.434000
     25 O25         4.2490    3.9700   10.0220 os        1 2PJ     -0.421900
     26 C26         5.1240    4.1910   11.2170 c3        1 2PJ      0.201800
     27 C27         6.4640    4.7210   10.7560 c3        1 2PJ     -0.129767
     28 C28         4.3240    5.2390   11.9750 c3        1 2PJ     -0.129767
     29 C29         5.2400    2.8950   11.9890 c3        1 2PJ     -0.129767
     30 H1         -0.7030   -1.0030   -0.7780 ha        1 2PJ      0.149000
     31 H2          1.7090   -0.4240   -0.8320 ha        1 2PJ      0.146000
     32 H3          2.7460   -0.4750    6.3430 hc        1 2PJ      0.062700
     33 H4          1.1390   -0.1810    7.1140 hc        1 2PJ      0.062700
     34 H5          2.9420    0.0470    1.2900 ha        1 2PJ      0.136000
     35 H6          2.9390    0.2420    3.7610 ha        1 2PJ      0.131000
     36 H7         -1.9370   -1.1270    1.3830 ha        1 2PJ      0.161000
     37 H8         -0.8050   -0.5120    5.8420 h4        1 2PJ      0.019100
     38 H9          2.8300    1.9120    5.5800 hc        1 2PJ      0.089700
     39 H10         0.3020    5.8210    5.7080 ha        1 2PJ      0.174000
     40 H11        -1.9200    5.1290    6.6510 ha        1 2PJ      0.180000
     41 H12        -0.3350    1.1880    7.5070 ha        1 2PJ      0.166000
     42 H13         3.9890    1.0060    7.6210 hx        1 2PJ      0.115700
     43 H14         2.5090    1.3770    8.6460 hx        1 2PJ      0.115700
     44 H15         4.0600    3.4210    7.1150 hn        1 2PJ      0.475800
     45 H16         7.0650    5.0150   11.6520 hc        1 2PJ      0.072811
     46 H17         7.0300    3.9410   10.1910 hc        1 2PJ      0.072811
     47 H18         6.3300    5.6200   10.1070 hc        1 2PJ      0.072811
     48 H19         4.1990    6.1610   11.3580 hc        1 2PJ      0.072811
     49 H20         3.3160    4.8440   12.2460 hc        1 2PJ      0.072811
     50 H21         4.8800    5.4960   12.9100 hc        1 2PJ      0.072811
     51 H22         4.2290    2.4850   12.2250 hc        1 2PJ      0.072811
     52 H23         5.7770    3.0930   12.9500 hc        1 2PJ      0.072811
     53 H24         5.8200    2.1350   11.4110 hc        1 2PJ      0.072811
     54 H222        2.8280    3.7000    8.2000 hn        1 2PJ      0.475800
@<TRIPOS>BOND
     1    1    2 ar  
     2    1    8 ar  
     3    1   30 1   
     4    2    4 ar  
     5    2   31 1   
     6    3    7 1   
     7    3   12 1   
     8    3   32 1   
     9    3   33 1   
    10    4    5 ar  
    11    4   34 1   
    12    5    6 ar  
    13    5    9 ar  
    14    6    7 ar  
    15    6   35 1   
    16    7   11 ar  
    17    8    9 ar  
    18    8   36 1   
    19    9   10 ar  
    20   10   11 ar  
    21   11   37 1   
    22   12   13 1   
    23   12   21 1   
    24   12   38 1   
    25   13   14 ar  
    26   13   19 ar  
    27   14   15 1   
    28   14   16 ar  
    29   16   17 ar  
    30   16   39 1   
    31   17   18 ar  
    32   17   40 1   
    33   18   19 ar  
    34   18   20 1   
    35   19   41 1   
    36   21   22 1   
    37   21   42 1   
    38   21   43 1   
    39   22   23 1   
    40   22   44 1   
    41   22   54 1   
    42   23   24 2   
    43   23   25 1   
    44   25   26 1   
    45   26   27 1   
    46   26   28 1   
    47   26   29 1   
    48   27   45 1   
    49   27   46 1   
    50   27   47 1   
    51   28   48 1   
    52   28   49 1   
    53   28   50 1   
    54   29   51 1   
    55   29   52 1   
    56   29   53 1   
@<TRIPOS>SUBSTRUCTURE
     1 2PJ         1 TEMP              0 ****  ****    0 ROOT
