@<TRIPOS>MOLECULE
2PK
   26    27     1     0     0
SMALL
bcc


@<TRIPOS>ATOM
      1 OAB         0.3520    1.7710    0.0500 o         1 2PK     -0.380100
      2 CAN         1.3020    1.0040    0.0690 c         1 2PK      0.702700
      3 NAI         2.4670    1.2560    0.9460 ne        1 2PK     -0.537100
      4 CAM         3.2770    0.2470    0.9300 cf        1 2PK      0.494500
      5 NAA         4.5030    0.1990    1.7180 n4        1 2PK     -0.767600
      6 SAJ         2.5050   -1.2210   -0.0740 sx        1 2PK      0.320400
      7 CAO         1.4830   -0.2430   -0.7270 ce        1 2PK     -0.673400
      8 CAD         0.8210   -0.2630   -2.0510 c3        1 2PK      0.038100
      9 CAL         0.9190   -1.5810   -2.7350 ca        1 2PK     -0.190300
     10 CAG        -0.0690   -2.5530   -2.5360 ca        1 2PK     -0.083500
     11 CAE        -0.0050   -3.7730   -3.2010 ca        1 2PK     -0.184000
     12 CAK         1.0550   -4.0200   -4.0860 ca        1 2PK      0.154100
     13 OAC         1.1980   -5.1980   -4.7700 oh        1 2PK     -0.481100
     14 CAF         2.0450   -3.0440   -4.3100 ca        1 2PK     -0.184000
     15 CAH         1.9640   -1.8330   -3.6360 ca        1 2PK     -0.083500
     16 H1          5.2920    0.0760    1.0730 hn        1 2PK      0.467133
     17 H2          4.6560    1.0560    2.2720 hn        1 2PK      0.467133
     18 H3         -0.2640    0.0150   -1.8970 hc        1 2PK      0.092700
     19 H4          1.2630    0.5420   -2.7050 hc        1 2PK      0.092700
     20 H5         -0.9120   -2.3470   -1.8580 ha        1 2PK      0.138500
     21 H6         -0.7880   -4.5310   -3.0460 ha        1 2PK      0.158000
     22 H7          0.4180   -5.7490   -4.6010 ho        1 2PK      0.434000
     23 H8          2.8560   -3.2510   -5.0240 ha        1 2PK      0.158000
     24 H9          2.7180   -1.0560   -3.8330 ha        1 2PK      0.138500
     25 H10         3.1410   -1.8090   -1.0400 hs        1 2PK      0.241000
     26 HAA3        4.4500   -0.6030    2.3570 hn        1 2PK      0.467133
@<TRIPOS>BOND
     1    1    2 2   
     2    2    3 1   
     3    2    7 1   
     4    3    4 2   
     5    4    5 1   
     6    4    6 1   
     7    5   16 1   
     8    5   17 1   
     9    5   26 1   
    10    6    7 2   
    11    6   25 1   
    12    7    8 1   
    13    8    9 1   
    14    8   18 1   
    15    8   19 1   
    16    9   10 ar  
    17    9   15 ar  
    18   10   11 ar  
    19   10   20 1   
    20   11   12 ar  
    21   11   21 1   
    22   12   13 1   
    23   12   14 ar  
    24   13   22 1   
    25   14   15 ar  
    26   14   23 1   
    27   15   24 1   
@<TRIPOS>SUBSTRUCTURE
     1 2PK         1 TEMP              0 ****  ****    0 ROOT
