@<TRIPOS>MOLECULE
2PK
   25    22     1     0     0
SMALL
bcc


@<TRIPOS>ATOM
      1 OAB        -1.3830    2.3450    2.0240 o         1 2PK     -0.270000
      2 CAN        -0.4830    1.5510    2.2140 c1        1 2PK      0.328000
      3 NAI         0.4690    1.4930    3.5100 n1        1 2PK     -0.183000
      4 CAM         1.7620    0.8800    3.2230 c1        1 2PK     -0.179000
      5 NAA         2.4400    0.1470    4.2320 n2        1 2PK     -0.301000
      6 SAJ         1.8810    0.4280    1.6810 s4        1 2PK      1.196000
      7 CAO         0.4230    0.8820    1.0940 c2        1 2PK     -0.886000
      8 CAD         0.2920    1.3220   -0.3480 c3        1 2PK     -0.003000
      9 CAL        -0.3970    0.2360   -1.1470 c2        1 2PK     -0.119000
     10 CAG         0.3580   -0.7150   -1.8160 c1        1 2PK     -0.101000
     11 CAE        -0.2650   -1.6470   -2.6310 c1        1 2PK     -0.216000
     12 CAK        -1.6430   -1.6300   -2.7760 c1        1 2PK      0.074000
     13 OAC        -2.2670   -2.5260   -3.6640 oh        1 2PK     -0.252000
     14 CAF        -2.3980   -0.6800   -2.1070 c1        1 2PK     -0.158000
     15 CAH        -1.7750    0.2530   -1.2930 c2        1 2PK     -0.085000
     16 H1          2.1570    0.1960    5.1000 hn        1 2PK      0.207000
     17 H2          3.1770   -0.3520    4.0180 hn        1 2PK      0.207000
     18 H3         -0.2380    2.1440   -0.3910 hc        1 2PK      0.095500
     19 H4          1.1800    1.4870   -0.7200 hc        1 2PK      0.095500
     20 H5          1.3280   -0.7270   -1.7140 ha        1 2PK      0.131000
     21 H6          0.2670   -2.3170   -3.1020 ha        1 2PK      0.132000
     22 H7         -2.0880   -3.3610   -3.4180 ho        1 2PK      0.217000
     23 H8         -3.3680   -0.6680   -2.2100 ha        1 2PK      0.151000
     24 H9         -2.3080    0.9220   -0.8220 ha        1 2PK      0.148000
     25 H10         2.8780    0.3360    1.0610 hs        1 2PK     -0.227000
@<TRIPOS>BOND
     1    1    2 1   
     2    2    7 1   
     3    3    4 1   
     4    4    6 1   
     5    5   16 1   
     6    5   17 1   
     7    6    7 1   
     8    6   25 1   
     9    7    8 1   
    10    8    9 1   
    11    8   18 1   
    12    8   19 1   
    13    9   10 1   
    14    9   15 1   
    15   10   20 1   
    16   11   12 1   
    17   11   21 1   
    18   12   13 1   
    19   13   22 1   
    20   14   15 1   
    21   14   23 1   
    22   15   24 1   
@<TRIPOS>SUBSTRUCTURE
     1 2PK         1 TEMP              0 ****  ****    0 ROOT
