@<TRIPOS>MOLECULE
2PK
   25    26     1     0     0
SMALL
bcc


@<TRIPOS>ATOM
      1 OAB        -2.0240   -2.5680   -1.0910 o         1 2PK     -0.508100
      2 CAN        -2.1610   -1.4500   -0.5910 c         1 2PK      0.728700
      3 NAI        -3.4110   -1.0610    0.0720 ne        1 2PK     -0.615100
      4 CAM        -3.2890    0.1200    0.6100 cf        1 2PK      0.699500
      5 NAA        -4.2470    0.9030    1.2260 nh        1 2PK     -0.863800
      6 SAJ        -1.5730    0.8120    0.4260 sx        1 2PK      0.334400
      7 CAO        -1.1660   -0.3690   -0.5420 ce        1 2PK     -0.908400
      8 CAD        -0.0260   -0.4300   -1.4720 c3        1 2PK      0.087100
      9 CAL         1.2780   -0.0810   -0.8360 ca        1 2PK     -0.123300
     10 CAG         1.8480   -0.9390    0.1120 ca        1 2PK     -0.093000
     11 CAE         3.0730   -0.6360    0.6990 ca        1 2PK     -0.186500
     12 CAK         3.7390    0.5410    0.3270 ca        1 2PK      0.118100
     13 OAC         4.9490    0.9130    0.8680 oh        1 2PK     -0.500100
     14 CAF         3.1860    1.4080   -0.6290 ca        1 2PK     -0.186500
     15 CAH         1.9600    1.0860   -1.2030 ca        1 2PK     -0.093000
     16 H1         -5.1310    0.4660    1.3890 hn        1 2PK      0.412300
     17 H2         -3.9100    1.4240    2.0060 hn        1 2PK      0.412300
     18 H3          0.0430   -1.4760   -1.8890 hc        1 2PK      0.056200
     19 H4         -0.2120    0.2560   -2.3470 hc        1 2PK      0.056200
     20 H5          1.3180   -1.8630    0.3910 ha        1 2PK      0.139000
     21 H6          3.5170   -1.3130    1.4410 ha        1 2PK      0.141000
     22 H7          5.2340    0.2110    1.4700 ho        1 2PK      0.418000
     23 H8          3.7280    2.3200   -0.9130 ha        1 2PK      0.141000
     24 H9          1.5290    1.7560   -1.9630 ha        1 2PK      0.139000
     25 H10        -1.7360    1.8740   -0.3050 hs        1 2PK      0.195000
@<TRIPOS>BOND
     1    1    2 2   
     2    2    3 1   
     3    2    7 1   
     4    3    4 2   
     5    4    5 1   
     6    4    6 1   
     7    5   16 1   
     8    5   17 1   
     9    6    7 2   
    10    6   25 1   
    11    7    8 1   
    12    8    9 1   
    13    8   18 1   
    14    8   19 1   
    15    9   10 ar  
    16    9   15 ar  
    17   10   11 ar  
    18   10   20 1   
    19   11   12 ar  
    20   11   21 1   
    21   12   13 1   
    22   12   14 ar  
    23   13   22 1   
    24   14   15 ar  
    25   14   23 1   
    26   15   24 1   
@<TRIPOS>SUBSTRUCTURE
     1 2PK         1 TEMP              0 ****  ****    0 ROOT
