@<TRIPOS>MOLECULE
2PK
   26    27     1     0     0
SMALL
bcc


@<TRIPOS>ATOM
      1 OAB         0.2360    1.6460    0.1730 o         1 2PK     -0.380100
      2 CAN         1.2230    0.9270    0.1500 c         1 2PK      0.702700
      3 NAI         2.3930    1.2100    1.0110 ne        1 2PK     -0.537100
      4 CAM         3.2500    0.2430    0.9480 cf        1 2PK      0.494500
      5 NAA         4.4940    0.2320    1.7100 n4        1 2PK     -0.767600
      6 SAJ         2.5300   -1.2320   -0.0850 sx        1 2PK      0.320400
      7 CAO         1.4470   -0.2860   -0.6870 ce        1 2PK     -0.673400
      8 CAD         0.7590   -0.3000   -1.9970 c3        1 2PK      0.038100
      9 CAL         0.9050   -1.5920   -2.7220 ca        1 2PK     -0.190300
     10 CAG        -0.0310   -2.6150   -2.5320 ca        1 2PK     -0.083500
     11 CAE         0.0750   -3.8120   -3.2330 ca        1 2PK     -0.184000
     12 CAK         1.1270   -3.9820   -4.1470 ca        1 2PK      0.154100
     13 OAC         1.3110   -5.1320   -4.8680 oh        1 2PK     -0.481100
     14 CAF         2.0650   -2.9540   -4.3610 ca        1 2PK     -0.184000
     15 CAH         1.9410   -1.7680   -3.6510 ca        1 2PK     -0.083500
     16 H1          4.4940   -0.5890    2.3250 hn        1 2PK      0.467133
     17 H2          5.2740    0.1680    1.0460 hn        1 2PK      0.467133
     18 H3         -0.3340   -0.0790   -1.8140 hc        1 2PK      0.092700
     19 H4          1.1480    0.5440   -2.6360 hc        1 2PK      0.092700
     20 H5         -0.8700   -2.4700   -1.8320 ha        1 2PK      0.138500
     21 H6         -0.6670   -4.6100   -3.0860 ha        1 2PK      0.158000
     22 H7          0.5620   -5.7250   -4.6990 ho        1 2PK      0.434000
     23 H8          2.8690   -3.1020   -5.0970 ha        1 2PK      0.158000
     24 H9          2.6530   -0.9500   -3.8390 ha        1 2PK      0.138500
     25 H10         3.1730   -1.7590   -1.0800 hs        1 2PK      0.241000
     26 HAA3        4.6160    1.0790    2.2860 hn        1 2PK      0.467133
@<TRIPOS>BOND
     1    1    2 2   
     2    2    3 1   
     3    2    7 1   
     4    3    4 2   
     5    4    5 1   
     6    4    6 1   
     7    5   16 1   
     8    5   17 1   
     9    5   26 1   
    10    6    7 2   
    11    6   25 1   
    12    7    8 1   
    13    8    9 1   
    14    8   18 1   
    15    8   19 1   
    16    9   10 ar  
    17    9   15 ar  
    18   10   11 ar  
    19   10   20 1   
    20   11   12 ar  
    21   11   21 1   
    22   12   13 1   
    23   12   14 ar  
    24   13   22 1   
    25   14   15 ar  
    26   14   23 1   
    27   15   24 1   
@<TRIPOS>SUBSTRUCTURE
     1 2PK         1 TEMP              0 ****  ****    0 ROOT
