@<TRIPOS>MOLECULE
2PK
   26    27     1     0     0
SMALL
bcc


@<TRIPOS>ATOM
      1 OAB         0.2920    1.7200    0.0930 o         1 2PK     -0.380100
      2 CAN         1.2580    0.9730    0.1000 c         1 2PK      0.702700
      3 NAI         2.4210    1.2370    0.9770 ne        1 2PK     -0.537100
      4 CAM         3.2510    0.2460    0.9450 cf        1 2PK      0.494500
      5 NAA         4.4800    0.2140    1.7290 nz        1 2PK     -0.767600
      6 SAJ         2.5070   -1.2260   -0.0750 sx        1 2PK      0.320400
      7 CAO         1.4620   -0.2610   -0.7120 ce        1 2PK     -0.673400
      8 CAD         0.7970   -0.2780   -2.0340 c3        1 2PK      0.038100
      9 CAL         0.9190   -1.5860   -2.7340 ca        1 2PK     -0.190300
     10 CAG        -0.0480   -2.5790   -2.5440 ca        1 2PK     -0.083500
     11 CAE         0.0370   -3.7910   -3.2230 ca        1 2PK     -0.184000
     12 CAK         1.0990   -4.0050   -4.1150 ca        1 2PK      0.154100
     13 OAC         1.2640   -5.1720   -4.8130 oh        1 2PK     -0.481100
     14 CAF         2.0700   -3.0070   -4.3300 ca        1 2PK     -0.184000
     15 CAH         1.9650   -1.8060   -3.6420 ca        1 2PK     -0.083500
     16 H1          5.2700    0.1160    1.0800 hn        1 2PK      0.467133
     17 H2          4.6170    1.0670    2.2930 hn        1 2PK      0.467133
     18 H3         -0.2930   -0.0240   -1.8730 hc        1 2PK      0.092700
     19 H4          1.2200    0.5440   -2.6800 hc        1 2PK      0.092700
     20 H5         -0.8940   -2.3990   -1.8610 ha        1 2PK      0.138500
     21 H6         -0.7290   -4.5660   -3.0760 ha        1 2PK      0.158000
     22 H7          0.4960   -5.7410   -4.6490 ho        1 2PK      0.434000
     23 H8          2.8820   -3.1890   -5.0490 ha        1 2PK      0.158000
     24 H9          2.7030   -1.0110   -3.8320 ha        1 2PK      0.138500
     25 H10         3.1510   -1.7880   -1.0500 hs        1 2PK      0.241000
     26 HAA3        4.4470   -0.5970    2.3580 hn        1 2PK      0.467133
@<TRIPOS>BOND
     1    1    2 2   
     2    2    3 1   
     3    2    7 1   
     4    3    4 2   
     5    4    5 1   
     6    4    6 1   
     7    5   16 1   
     8    5   17 1   
     9    5   26 1   
    10    6    7 2   
    11    6   25 1   
    12    7    8 1   
    13    8    9 1   
    14    8   18 1   
    15    8   19 1   
    16    9   10 ar  
    17    9   15 ar  
    18   10   11 ar  
    19   10   20 1   
    20   11   12 ar  
    21   11   21 1   
    22   12   13 1   
    23   12   14 ar  
    24   13   22 1   
    25   14   15 ar  
    26   14   23 1   
    27   15   24 1   
@<TRIPOS>SUBSTRUCTURE
     1 2PK         1 TEMP              0 ****  ****    0 ROOT
