@<TRIPOS>MOLECULE
2PL
   11    10     1     0     0
SMALL
bcc


@<TRIPOS>ATOM
      1 C1         -0.0580   -0.0790    0.0260 c         1 2PL      0.894600
      2 C2          1.4640    0.1360    0.0890 c3        1 2PL      0.116400
      3 P           3.7730   -0.1400    1.2040 p5        1 2PL      1.321900
      4 O11        -0.8580    0.7970    0.5010 o         1 2PL     -0.928300
      5 O12        -0.5480   -1.0720   -0.6100 o         1 2PL     -0.928300
      6 O1P         2.0820   -0.4160    1.1980 os        1 2PL     -0.569200
      7 O2P         3.9370    1.3650    1.2140 o         1 2PL     -0.958167
      8 O3P         4.2080   -0.8200    2.4850 o         1 2PL     -0.958167
      9 O4P         4.2940   -0.7990   -0.0550 o         1 2PL     -0.958167
     10 H21         1.6650    1.2460    0.0760 h1        1 2PL     -0.016300
     11 H22         1.9220   -0.3100   -0.8420 h1        1 2PL     -0.016300
@<TRIPOS>BOND
     1    1    2 1   
     2    1    4 1   
     3    1    5 1   
     4    2    6 1   
     5    2   10 1   
     6    2   11 1   
     7    3    6 1   
     8    3    7 1   
     9    3    8 1   
    10    3    9 1   
@<TRIPOS>SUBSTRUCTURE
     1 2PL         1 TEMP              0 ****  ****    0 ROOT
