@<TRIPOS>MOLECULE
2PL
   11    10     1     0     0
SMALL
bcc


@<TRIPOS>ATOM
      1 C1         -0.0550   -0.0390    0.0100 c         1 2PL      0.894600
      2 C2          1.4780    0.0800    0.0560 c3        1 2PL      0.116400
      3 P           3.7560   -0.0960    1.2520 p5        1 2PL      1.321900
      4 O11        -0.7930    0.9740    0.2580 o         1 2PL     -0.928300
      5 O12        -0.6120   -1.1160   -0.3940 o         1 2PL     -0.928300
      6 O1P         2.0500   -0.2500    1.2730 os        1 2PL     -0.569200
      7 O2P         4.0260    1.3590    0.9330 o         1 2PL     -0.958167
      8 O3P         4.1350   -0.5030    2.6610 o         1 2PL     -0.958167
      9 O4P         4.2350   -1.0520    0.1800 o         1 2PL     -0.958167
     10 H21         1.7570    1.1430   -0.2000 h1        1 2PL     -0.016300
     11 H22         1.9080   -0.5940   -0.7420 h1        1 2PL     -0.016300
@<TRIPOS>BOND
     1    1    2 1   
     2    1    4 1   
     3    1    5 1   
     4    2    6 1   
     5    2   10 1   
     6    2   11 1   
     7    3    6 1   
     8    3    7 1   
     9    3    8 1   
    10    3    9 1   
@<TRIPOS>SUBSTRUCTURE
     1 2PL         1 TEMP              0 ****  ****    0 ROOT
