@<TRIPOS>MOLECULE
2PL
   11     8     1     0     0
SMALL
bcc


@<TRIPOS>ATOM
      1 C1         -1.9000    0.6710    0.0900 c1        1 2PL      0.314000
      2 C2         -0.4040    0.6430    0.3100 c2        1 2PL      0.016000
      3 P           1.5140   -0.9770   -0.2400 p3        1 2PL      2.514000
      4 O11        -2.6700    0.1380    0.9320 o         1 2PL     -0.663000
      5 O12        -2.3760    1.2260   -0.9350 o         1 2PL     -0.663000
      6 O1P         0.0510   -0.6900    0.2840 o         1 2PL     -0.731000
      7 O2P         1.5800   -0.7020   -1.7230 o         1 2PL     -1.277667
      8 O3P         2.4920   -0.0820    0.4820 o         1 2PL     -1.277667
      9 O4P         1.8670   -2.4220    0.0210 o         1 2PL     -1.277667
     10 H21         0.0400    1.1530   -0.4000 h4        1 2PL      0.023000
     11 H22        -0.1940    1.0430    1.1790 h4        1 2PL      0.023000
@<TRIPOS>BOND
     1    1    4 1   
     2    1    5 1   
     3    2    6 1   
     4    2   10 1   
     5    2   11 1   
     6    3    7 1   
     7    3    8 1   
     8    3    9 1   
@<TRIPOS>SUBSTRUCTURE
     1 2PL         1 TEMP              0 ****  ****    0 ROOT
