@<TRIPOS>MOLECULE
2PL
   11    10     1     0     0
SMALL
bcc


@<TRIPOS>ATOM
      1 C1          0.0910   -0.0510    2.4160 c         1 2PL      0.894600
      2 C2         -0.3930    0.1380    0.9680 c3        1 2PL      0.116400
      3 P          -0.1050   -0.0530   -1.5880 p5        1 2PL      1.321900
      4 O11         0.7000    0.8920    3.0260 o         1 2PL     -0.928300
      5 O12        -0.2150   -1.1040    3.0710 o         1 2PL     -0.928300
      6 O1P         0.4970   -0.2930   -0.0020 os        1 2PL     -0.569200
      7 O2P        -0.3250    1.4390   -1.7150 o         1 2PL     -0.958167
      8 O3P         1.0210   -0.5890   -2.4460 o         1 2PL     -0.958167
      9 O4P        -1.3810   -0.8630   -1.6620 o         1 2PL     -0.958167
     10 H21        -1.3640   -0.4230    0.8450 h1        1 2PL     -0.016300
     11 H22        -0.6030    1.2350    0.8070 h1        1 2PL     -0.016300
@<TRIPOS>BOND
     1    1    2 1   
     2    1    4 1   
     3    1    5 1   
     4    2    6 1   
     5    2   10 1   
     6    2   11 1   
     7    3    6 1   
     8    3    7 1   
     9    3    8 1   
    10    3    9 1   
@<TRIPOS>SUBSTRUCTURE
     1 2PL         1 TEMP              0 ****  ****    0 ROOT
