@<TRIPOS>MOLECULE
2PM
   40    41     1     0     0
SMALL
bcc


@<TRIPOS>ATOM
      1 C1          2.4170    3.2850   -0.4310 ca        1 2PM     -0.132750
      2 C2          2.1940    3.7300    0.8720 ca        1 2PM     -0.127000
      3 C3          1.3530    3.0090    1.7180 ca        1 2PM     -0.132750
      4 C4          0.7370    1.8420    1.2650 ca        1 2PM     -0.112000
      5 C5          0.9590    1.3940   -0.0400 ca        1 2PM     -0.095300
      6 C6          1.8000    2.1230   -0.8890 ca        1 2PM     -0.112000
      7 C7          0.3090    0.1400   -0.5570 c3        1 2PM      0.234700
      8 C8          1.2250   -1.0460   -0.4040 ca        1 2PM     -0.095300
      9 C9          2.0780   -1.4020   -1.4540 ca        1 2PM     -0.112000
     10 C10         2.9390   -2.4900   -1.3190 ca        1 2PM     -0.132750
     11 C11         2.9530   -3.2290   -0.1360 ca        1 2PM     -0.127000
     12 C12         2.1030   -2.8780    0.9130 ca        1 2PM     -0.132750
     13 C13         1.2420   -1.7900    0.7810 ca        1 2PM     -0.112000
     14 O1         -0.9110   -0.0390    0.1710 os        1 2PM     -0.415600
     15 C14        -1.7760   -1.0050   -0.4250 c3        1 2PM      0.128400
     16 C15        -3.0900   -0.9480    0.3700 c3        1 2PM      0.171800
     17 N1         -4.0890   -0.0830   -0.2360 n3        1 2PM     -0.744600
     18 C16        -4.8300   -0.7240   -1.2970 c3        1 2PM      0.162600
     19 C17        -4.9340    0.5820    0.7270 c3        1 2PM      0.162600
     20 H1          3.0800    3.8530   -1.1010 ha        1 2PM      0.130500
     21 H2          2.6810    4.6490    1.2310 ha        1 2PM      0.130000
     22 H3          1.1720    3.3590    2.7440 ha        1 2PM      0.130500
     23 H4          0.0650    1.2730    1.9260 ha        1 2PM      0.136750
     24 H6          1.9770    1.7740   -1.9170 ha        1 2PM      0.136750
     25 H7          0.0630    0.2760   -1.6530 h1        1 2PM      0.051700
     26 H9          2.0720   -0.8190   -2.3870 ha        1 2PM      0.136750
     27 H10         3.6100   -2.7640   -2.1460 ha        1 2PM      0.130500
     28 H11         3.6330   -4.0870   -0.0310 ha        1 2PM      0.130000
     29 H12         2.1130   -3.4580    1.8470 ha        1 2PM      0.130500
     30 H13         0.5690   -1.5040    1.6040 ha        1 2PM      0.136750
     31 H141       -1.3110   -2.0210   -0.3170 h1        1 2PM      0.037200
     32 H142       -1.9200   -0.7780   -1.5140 h1        1 2PM      0.037200
     33 H151       -2.8470   -0.5690    1.4040 h1        1 2PM      0.044200
     34 H152       -3.4680   -2.0070    0.4730 h1        1 2PM      0.044200
     35 H161       -4.1080   -1.1570   -2.0380 h1        1 2PM      0.030200
     36 H162       -5.5030   -1.5490   -0.9330 h1        1 2PM      0.030200
     37 H163       -5.4590    0.0460   -1.8150 h1        1 2PM      0.030200
     38 H171       -5.5590   -0.1280    1.3370 h1        1 2PM      0.030200
     39 H172       -4.2910    1.1820    1.4240 h1        1 2PM      0.030200
     40 H173       -5.6210    1.2810    0.1830 h1        1 2PM      0.030200
@<TRIPOS>BOND
     1    1    2 ar  
     2    1    6 ar  
     3    1   20 1   
     4    2    3 ar  
     5    2   21 1   
     6    3    4 ar  
     7    3   22 1   
     8    4    5 ar  
     9    4   23 1   
    10    5    6 ar  
    11    5    7 1   
    12    6   24 1   
    13    7    8 1   
    14    7   14 1   
    15    7   25 1   
    16    8    9 ar  
    17    8   13 ar  
    18    9   10 ar  
    19    9   26 1   
    20   10   11 ar  
    21   10   27 1   
    22   11   12 ar  
    23   11   28 1   
    24   12   13 ar  
    25   12   29 1   
    26   13   30 1   
    27   14   15 1   
    28   15   16 1   
    29   15   31 1   
    30   15   32 1   
    31   16   17 1   
    32   16   33 1   
    33   16   34 1   
    34   17   18 1   
    35   17   19 1   
    36   18   35 1   
    37   18   36 1   
    38   18   37 1   
    39   19   38 1   
    40   19   39 1   
    41   19   40 1   
@<TRIPOS>SUBSTRUCTURE
     1 2PM         1 TEMP              0 ****  ****    0 ROOT
