@<TRIPOS>MOLECULE
2PM
   40    36     1     0     0
SMALL
bcc


@<TRIPOS>ATOM
      1 C1          1.8460    0.7760   -2.9050 c1        1 2PM     -0.126333
      2 C2          1.1910    0.3320   -4.0510 c1        1 2PM     -0.126333
      3 C3         -0.1380   -0.0200   -3.9900 c1        1 2PM     -0.126333
      4 C4         -0.8260    0.0660   -2.7860 c1        1 2PM     -0.120000
      5 C5         -0.1710    0.5100   -1.6440 c1        1 2PM     -0.106000
      6 C6          1.1640    0.8640   -1.7060 c1        1 2PM     -0.126333
      7 C7         -0.8840    0.5100   -0.3220 c3        1 2PM      0.112000
      8 C8         -1.2770    1.9680    0.0560 c2        1 2PM     -0.072000
      9 C9         -2.6230    2.4100   -0.1070 c2        1 2PM     -0.122000
     10 C10        -2.9650    3.7380    0.1850 c1        1 2PM     -0.132000
     11 C11        -1.9910    4.6220    0.6320 c1        1 2PM     -0.126333
     12 C12        -0.6560    4.1820    0.7930 c1        1 2PM     -0.126333
     13 C13        -0.3120    2.8470    0.5000 c1        1 2PM     -0.098000
     14 O1         -0.0270   -0.0190    0.6750 os        1 2PM     -0.280000
     15 C14        -0.2630   -1.3400    0.9760 c3        1 2PM     -0.024000
     16 C15         0.7800   -1.8230    1.9330 c3        1 2PM     -0.071000
     17 N1          0.8570   -3.2960    1.8700 n3        1 2PM     -0.266000
     18 C16         2.0560   -3.6760    1.2560 c3        1 2PM     -0.118500
     19 C17         0.8090   -3.8360    3.1970 c3        1 2PM     -0.118500
     20 H1          2.7360    1.0120   -2.9470 ha        1 2PM      0.133167
     21 H2          1.6920    0.2700   -4.9250 ha        1 2PM      0.133167
     22 H3         -0.5960   -0.3300   -4.7880 ha        1 2PM      0.133167
     23 H4         -1.8170   -0.1970   -2.7410 ha        1 2PM      0.129000
     24 H6          1.6310    1.1790   -0.8920 ha        1 2PM      0.133167
     25 H7         -1.6890   -0.0360   -0.3880 h1        1 2PM      0.090000
     26 H9         -3.3050    1.7880   -0.4190 ha        1 2PM      0.128000
     27 H10        -3.9380    4.0590    0.0670 ha        1 2PM      0.130000
     28 H11        -2.2190    5.5170    0.8290 ha        1 2PM      0.133167
     29 H12         0.0660    4.8380    1.1270 ha        1 2PM      0.133167
     30 H13         0.6370    2.5370    0.6120 ha        1 2PM      0.146000
     31 H141       -1.1710   -1.4320    1.3960 h1        1 2PM      0.079000
     32 H142       -0.2250   -1.9090    0.1020 h1        1 2PM      0.079000
     33 H151        0.5420   -1.5440    2.8390 h1        1 2PM      0.083500
     34 H152        1.6620   -1.4350    1.6880 h1        1 2PM      0.083500
     35 H161        2.0960   -4.6530    1.1960 h1        1 2PM      0.071000
     36 H162        2.8520   -3.3340    1.8170 h1        1 2PM      0.071000
     37 H163        2.1010   -3.2880    0.3480 h1        1 2PM      0.071000
     38 H171        1.5500   -3.4510    3.7400 h1        1 2PM      0.071000
     39 H172        0.9050   -4.8040    3.1570 h1        1 2PM      0.071000
     40 H173       -0.0780   -3.6050    3.6220 h1        1 2PM      0.071000
@<TRIPOS>BOND
     1    1    6 1   
     2    1   20 1   
     3    2    3 1   
     4    2   21 1   
     5    3   22 1   
     6    4    5 1   
     7    4   23 1   
     8    5    7 1   
     9    6   24 1   
    10    7    8 1   
    11    7   14 1   
    12    7   25 1   
    13    8    9 1   
    14    8   13 1   
    15    9   10 1   
    16    9   26 1   
    17   10   27 1   
    18   11   12 1   
    19   11   28 1   
    20   12   29 1   
    21   13   30 1   
    22   14   15 1   
    23   15   16 1   
    24   15   31 1   
    25   15   32 1   
    26   16   17 1   
    27   16   33 1   
    28   16   34 1   
    29   17   18 1   
    30   17   19 1   
    31   18   35 1   
    32   18   36 1   
    33   18   37 1   
    34   19   38 1   
    35   19   39 1   
    36   19   40 1   
@<TRIPOS>SUBSTRUCTURE
     1 2PM         1 TEMP              0 ****  ****    0 ROOT
