@<TRIPOS>MOLECULE
2PM
   41    42     1     0     0
SMALL
bcc


@<TRIPOS>ATOM
      1 C1          0.1260    0.3920   -0.0050 ca        1 2PM     -0.125250
      2 C2          1.5020    0.1750    0.0640 ca        1 2PM     -0.107500
      3 C3          2.1020   -0.1060    1.2920 ca        1 2PM     -0.125250
      4 C4          1.3270   -0.1720    2.4490 ca        1 2PM     -0.113000
      5 C5         -0.0520    0.0450    2.3820 ca        1 2PM     -0.124800
      6 C6         -0.6520    0.3320    1.1500 ca        1 2PM     -0.113000
      7 C7         -0.9070   -0.0380    3.6140 c3        1 2PM      0.257700
      8 C8         -0.8590   -1.3860    4.2690 ca        1 2PM     -0.124800
      9 C9         -1.8130   -2.3470    3.9160 ca        1 2PM     -0.113000
     10 C10        -1.7750   -3.6160    4.4930 ca        1 2PM     -0.125250
     11 C11        -0.7880   -3.9320    5.4270 ca        1 2PM     -0.107500
     12 C12         0.1640   -2.9750    5.7830 ca        1 2PM     -0.125250
     13 C13         0.1300   -1.7080    5.2050 ca        1 2PM     -0.113000
     14 O1         -0.4120    0.9980    4.4950 os        1 2PM     -0.464600
     15 C14        -1.2570    1.2420    5.6100 c3        1 2PM      0.104400
     16 C15        -0.5140    2.2360    6.5090 c3        1 2PM      0.104800
     17 N1         -0.0170    3.4410    5.7620 nx        1 2PM     -0.678400
     18 C16        -1.1190    4.3920    5.4700 c3        1 2PM      0.083600
     19 C17         1.0750    4.1130    6.5110 c3        1 2PM      0.083600
     20 H1         -0.3500    0.6060   -0.9750 ha        1 2PM      0.144750
     21 H2          2.1130    0.2190   -0.8510 ha        1 2PM      0.147500
     22 H3          3.1860   -0.2860    1.3470 ha        1 2PM      0.144750
     23 H4          1.7930   -0.4110    3.4170 ha        1 2PM      0.133000
     24 H6         -1.7380    0.4980    1.0870 ha        1 2PM      0.133000
     25 H7         -1.9790    0.2150    3.3580 h1        1 2PM      0.054700
     26 H9         -2.5900   -2.1070    3.1740 ha        1 2PM      0.133000
     27 H10        -2.5230   -4.3710    4.2060 ha        1 2PM      0.144750
     28 H11        -0.7570   -4.9350    5.8790 ha        1 2PM      0.147500
     29 H12         0.9470   -3.2250    6.5150 ha        1 2PM      0.144750
     30 H13         0.8860   -0.9560    5.4760 ha        1 2PM      0.133000
     31 H141       -2.2420    1.6530    5.2620 h1        1 2PM      0.074200
     32 H142       -1.4290    0.2950    6.1920 h1        1 2PM      0.074200
     33 H151        0.3850    1.7200    6.9540 hx        1 2PM      0.108200
     34 H152       -1.1960    2.5780    7.3360 hx        1 2PM      0.108200
     35 H161       -0.7220    5.2400    4.8480 hx        1 2PM      0.104033
     36 H162       -1.5370    4.7950    6.4300 hx        1 2PM      0.104033
     37 H163       -1.9260    3.8570    4.9010 hx        1 2PM      0.104033
     38 H171        1.9380    3.4030    6.6280 hx        1 2PM      0.104033
     39 H172        0.7020    4.4230    7.5230 hx        1 2PM      0.104033
     40 H173        1.4120    5.0200    5.9410 hx        1 2PM      0.104033
     41 H111        0.3620    3.0980    4.8610 hn        1 2PM      0.477800
@<TRIPOS>BOND
     1    1    2 ar  
     2    1    6 ar  
     3    1   20 1   
     4    2    3 ar  
     5    2   21 1   
     6    3    4 ar  
     7    3   22 1   
     8    4    5 ar  
     9    4   23 1   
    10    5    6 ar  
    11    5    7 1   
    12    6   24 1   
    13    7    8 1   
    14    7   14 1   
    15    7   25 1   
    16    8    9 ar  
    17    8   13 ar  
    18    9   10 ar  
    19    9   26 1   
    20   10   11 ar  
    21   10   27 1   
    22   11   12 ar  
    23   11   28 1   
    24   12   13 ar  
    25   12   29 1   
    26   13   30 1   
    27   14   15 1   
    28   15   16 1   
    29   15   31 1   
    30   15   32 1   
    31   16   17 1   
    32   16   33 1   
    33   16   34 1   
    34   17   18 1   
    35   17   19 1   
    36   17   41 1   
    37   18   35 1   
    38   18   36 1   
    39   18   37 1   
    40   19   38 1   
    41   19   39 1   
    42   19   40 1   
@<TRIPOS>SUBSTRUCTURE
     1 2PM         1 TEMP              0 ****  ****    0 ROOT
