@<TRIPOS>MOLECULE
2PM
   41    42     1     0     0
SMALL
bcc


@<TRIPOS>ATOM
      1 C1          0.1140    0.3750   -0.0070 ca        1 2PM     -0.125250
      2 C2          1.4930    0.1720    0.0620 ca        1 2PM     -0.107500
      3 C3          2.0980   -0.0920    1.2900 ca        1 2PM     -0.125250
      4 C4          1.3250   -0.1580    2.4490 ca        1 2PM     -0.112750
      5 C5         -0.0570    0.0450    2.3840 ca        1 2PM     -0.124800
      6 C6         -0.6610    0.3160    1.1510 ca        1 2PM     -0.112750
      7 C7         -0.9080   -0.0370    3.6180 c3        1 2PM      0.257700
      8 C8         -0.8600   -1.3850    4.2720 ca        1 2PM     -0.124800
      9 C9         -1.8190   -2.3440    3.9250 ca        1 2PM     -0.112750
     10 C10        -1.7810   -3.6130    4.5010 ca        1 2PM     -0.125250
     11 C11        -0.7890   -3.9310    5.4290 ca        1 2PM     -0.107500
     12 C12         0.1680   -2.9780    5.7800 ca        1 2PM     -0.125250
     13 C13         0.1340   -1.7100    5.2020 ca        1 2PM     -0.112750
     14 O1         -0.4100    0.9990    4.4980 os        1 2PM     -0.464600
     15 C14        -1.2510    1.2410    5.6150 c3        1 2PM      0.104400
     16 C15        -0.5060    2.2380    6.5110 c3        1 2PM      0.104800
     17 N1         -0.0140    3.4430    5.7610 n4        1 2PM     -0.678400
     18 C16        -1.1190    4.3920    5.4730 c3        1 2PM      0.083600
     19 C17         1.0800    4.1170    6.5050 c3        1 2PM      0.083600
     20 H1         -0.3660    0.5760   -0.9770 ha        1 2PM      0.144750
     21 H2          2.1010    0.2150   -0.8550 ha        1 2PM      0.147500
     22 H3          3.1840   -0.2610    1.3450 ha        1 2PM      0.144750
     23 H4          1.7950   -0.3840    3.4190 ha        1 2PM      0.132750
     24 H6         -1.7490    0.4710    1.0880 ha        1 2PM      0.132750
     25 H7         -1.9800    0.2170    3.3640 h1        1 2PM      0.054700
     26 H9         -2.6000   -2.1020    3.1880 ha        1 2PM      0.132750
     27 H10        -2.5330   -4.3650    4.2190 ha        1 2PM      0.144750
     28 H11        -0.7580   -4.9350    5.8810 ha        1 2PM      0.147500
     29 H12         0.9550   -3.2290    6.5060 ha        1 2PM      0.144750
     30 H13         0.8940   -0.9600    5.4680 ha        1 2PM      0.132750
     31 H141       -2.2380    1.6510    5.2710 h1        1 2PM      0.074200
     32 H142       -1.4190    0.2940    6.1990 h1        1 2PM      0.074200
     33 H151        0.3960    1.7240    6.9520 hx        1 2PM      0.108200
     34 H152       -1.1850    2.5790    7.3410 hx        1 2PM      0.108200
     35 H161       -0.7270    5.2400    4.8500 hx        1 2PM      0.104033
     36 H162       -1.5330    4.7950    6.4360 hx        1 2PM      0.104033
     37 H163       -1.9280    3.8550    4.9090 hx        1 2PM      0.104033
     38 H171        0.7110    4.4270    7.5190 hx        1 2PM      0.104033
     39 H172        1.4130    5.0250    5.9330 hx        1 2PM      0.104033
     40 H173        1.9450    3.4100    6.6190 hx        1 2PM      0.104033
     41 H111        0.3610    3.1000    4.8580 hn        1 2PM      0.477800
@<TRIPOS>BOND
     1    1    2 ar  
     2    1    6 ar  
     3    1   20 1   
     4    2    3 ar  
     5    2   21 1   
     6    3    4 ar  
     7    3   22 1   
     8    4    5 ar  
     9    4   23 1   
    10    5    6 ar  
    11    5    7 1   
    12    6   24 1   
    13    7    8 1   
    14    7   14 1   
    15    7   25 1   
    16    8    9 ar  
    17    8   13 ar  
    18    9   10 ar  
    19    9   26 1   
    20   10   11 ar  
    21   10   27 1   
    22   11   12 ar  
    23   11   28 1   
    24   12   13 ar  
    25   12   29 1   
    26   13   30 1   
    27   14   15 1   
    28   15   16 1   
    29   15   31 1   
    30   15   32 1   
    31   16   17 1   
    32   16   33 1   
    33   16   34 1   
    34   17   18 1   
    35   17   19 1   
    36   17   41 1   
    37   18   35 1   
    38   18   36 1   
    39   18   37 1   
    40   19   38 1   
    41   19   39 1   
    42   19   40 1   
@<TRIPOS>SUBSTRUCTURE
     1 2PM         1 TEMP              0 ****  ****    0 ROOT
