@<TRIPOS>MOLECULE
2PM
   41    42     1     0     0
SMALL
bcc


@<TRIPOS>ATOM
      1 C1          0.1250    0.3970   -0.0060 ca        1 2PM     -0.125250
      2 C2          1.5020    0.1820    0.0630 ca        1 2PM     -0.107500
      3 C3          2.1020   -0.0980    1.2910 ca        1 2PM     -0.125250
      4 C4          1.3270   -0.1660    2.4480 ca        1 2PM     -0.113000
      5 C5         -0.0530    0.0490    2.3810 ca        1 2PM     -0.124800
      6 C6         -0.6530    0.3350    1.1490 ca        1 2PM     -0.113000
      7 C7         -0.9080   -0.0350    3.6130 c3        1 2PM      0.257700
      8 C8         -0.8620   -1.3850    4.2650 ca        1 2PM     -0.124800
      9 C9         -1.8200   -2.3430    3.9100 ca        1 2PM     -0.113000
     10 C10        -1.7840   -3.6130    4.4840 ca        1 2PM     -0.125250
     11 C11        -0.7960   -3.9340    5.4160 ca        1 2PM     -0.107500
     12 C12         0.1580   -2.9810    5.7730 ca        1 2PM     -0.125250
     13 C13         0.1270   -1.7120    5.1990 ca        1 2PM     -0.113000
     14 O1         -0.4100    0.9980    4.4970 os        1 2PM     -0.464600
     15 C14        -1.2550    1.2400    5.6120 c3        1 2PM      0.104400
     16 C15        -0.5100    2.2320    6.5130 c3        1 2PM      0.104800
     17 N1         -0.0120    3.4380    5.7690 n4        1 2PM     -0.678400
     18 C16        -1.1130    4.3900    5.4790 c3        1 2PM      0.083600
     19 C17         1.0810    4.1060    6.5190 c3        1 2PM      0.083600
     20 H1         -0.3510    0.6110   -0.9760 ha        1 2PM      0.144750
     21 H2          2.1130    0.2270   -0.8510 ha        1 2PM      0.147500
     22 H3          3.1870   -0.2770    1.3460 ha        1 2PM      0.144750
     23 H4          1.7930   -0.4040    3.4160 ha        1 2PM      0.133000
     24 H6         -1.7390    0.5000    1.0850 ha        1 2PM      0.133000
     25 H7         -1.9790    0.2200    3.3570 h1        1 2PM      0.054700
     26 H9         -2.5970   -2.0990    3.1690 ha        1 2PM      0.133000
     27 H10        -2.5340   -4.3650    4.1960 ha        1 2PM      0.144750
     28 H11        -0.7680   -4.9380    5.8650 ha        1 2PM      0.147500
     29 H12         0.9420   -3.2340    6.5030 ha        1 2PM      0.144750
     30 H13         0.8850   -0.9620    5.4700 ha        1 2PM      0.133000
     31 H141       -2.2390    1.6530    5.2660 h1        1 2PM      0.074200
     32 H142       -1.4280    0.2910    6.1920 h1        1 2PM      0.074200
     33 H151        0.3890    1.7140    6.9560 hx        1 2PM      0.108200
     34 H152       -1.1910    2.5720    7.3420 hx        1 2PM      0.108200
     35 H161       -0.7160    5.2390    4.8600 hx        1 2PM      0.104033
     36 H162       -1.5300    4.7910    6.4410 hx        1 2PM      0.104033
     37 H163       -1.9210    3.8570    4.9100 hx        1 2PM      0.104033
     38 H171        1.9440    3.3960    6.6340 hx        1 2PM      0.104033
     39 H172        0.7090    4.4140    7.5320 hx        1 2PM      0.104033
     40 H173        1.4190    5.0140    5.9500 hx        1 2PM      0.104033
     41 H111        0.3650    3.0960    4.8660 hn        1 2PM      0.477800
@<TRIPOS>BOND
     1    1    2 ar  
     2    1    6 ar  
     3    1   20 1   
     4    2    3 ar  
     5    2   21 1   
     6    3    4 ar  
     7    3   22 1   
     8    4    5 ar  
     9    4   23 1   
    10    5    6 ar  
    11    5    7 1   
    12    6   24 1   
    13    7    8 1   
    14    7   14 1   
    15    7   25 1   
    16    8    9 ar  
    17    8   13 ar  
    18    9   10 ar  
    19    9   26 1   
    20   10   11 ar  
    21   10   27 1   
    22   11   12 ar  
    23   11   28 1   
    24   12   13 ar  
    25   12   29 1   
    26   13   30 1   
    27   14   15 1   
    28   15   16 1   
    29   15   31 1   
    30   15   32 1   
    31   16   17 1   
    32   16   33 1   
    33   16   34 1   
    34   17   18 1   
    35   17   19 1   
    36   17   41 1   
    37   18   35 1   
    38   18   36 1   
    39   18   37 1   
    40   19   38 1   
    41   19   39 1   
    42   19   40 1   
@<TRIPOS>SUBSTRUCTURE
     1 2PM         1 TEMP              0 ****  ****    0 ROOT
