@<TRIPOS>MOLECULE
2PN
   10     9     1     0     0
SMALL
bcc


@<TRIPOS>ATOM
      1 P1          1.6640    0.0800   -0.0300 p5        1 2PN      1.358800
      2 O1          2.0340   -0.4580    1.3570 o         1 2PN     -1.012833
      3 O2          2.1590    1.5280   -0.1770 o         1 2PN     -1.012833
      4 O3          2.3560   -0.7710   -1.1190 o         1 2PN     -1.012833
      5 N1         -0.0000   -0.0190   -0.3610 n3        1 2PN     -0.952400
      6 P2         -1.6640    0.0150   -0.0140 p5        1 2PN      1.358800
      7 O4         -2.1590   -1.3810    0.3970 o         1 2PN     -1.012833
      8 O5         -2.0310    1.0370    1.0680 o         1 2PN     -1.012833
      9 O6         -2.3580    0.3930   -1.3420 o         1 2PN     -1.012833
     10 HN1        -0.0010   -0.2110   -1.3390 hn        1 2PN      0.312800
@<TRIPOS>BOND
     1    1    2 1   
     2    1    3 1   
     3    1    4 1   
     4    1    5 1   
     5    5    6 1   
     6    5   10 1   
     7    6    7 1   
     8    6    8 1   
     9    6    9 1   
@<TRIPOS>SUBSTRUCTURE
     1 2PN         1 TEMP              0 ****  ****    0 ROOT
