@<TRIPOS>MOLECULE
2PN
   10     8     1     0     0
SMALL
bcc


@<TRIPOS>ATOM
      1 P1          1.0180    0.8880    0.4810 p4        1 2PN      1.727100
      2 O1          2.5280    0.8880    0.4810 o         1 2PN     -1.019000
      3 O2          0.5150    0.8880    1.9050 os        1 2PN     -1.320000
      4 O3          0.5150    2.1210   -0.2310 o         1 2PN     -1.067800
      5 N1          0.4680   -0.4600   -0.2980 n3        1 2PN     -0.952400
      6 P2         -1.1550   -0.7540   -0.3940 p5        1 2PN      1.358800
      7 O4         -1.8410    0.4210   -1.0490 o         1 2PN     -1.012833
      8 O5         -1.3940   -1.9980   -1.2160 o         1 2PN     -1.012833
      9 O6         -1.7140   -0.9530    0.9940 o         1 2PN     -1.012833
     10 HN1         1.0600   -1.0430   -0.6740 hn        1 2PN      0.312800
@<TRIPOS>BOND
     1    1    2 1   
     2    1    4 2   
     3    1    5 1   
     4    5    6 1   
     5    5   10 1   
     6    6    7 1   
     7    6    8 1   
     8    6    9 1   
@<TRIPOS>SUBSTRUCTURE
     1 2PN         1 TEMP              0 ****  ****    0 ROOT
