@<TRIPOS>MOLECULE
2PN
   10     9     1     0     0
SMALL
bcc


@<TRIPOS>ATOM
      1 P1         -0.0120    0.3140    0.0430 p5        1 2PN      1.358800
      2 O1          1.2160    0.8080   -0.7400 o         1 2PN     -1.012833
      3 O2          0.1200    0.7070    1.5180 o         1 2PN     -1.012833
      4 O3         -1.2640    0.9870   -0.5640 o         1 2PN     -1.012833
      5 N1         -0.2330   -1.3560   -0.1840 n3        1 2PN     -0.952400
      6 P2         -0.0340   -3.0130    0.1360 p5        1 2PN      1.358800
      7 O4          1.3650   -3.3610    0.6560 o         1 2PN     -1.012833
      8 O5         -1.0970   -3.5020    1.1330 o         1 2PN     -1.012833
      9 O6         -0.2800   -3.7300   -1.2100 o         1 2PN     -1.012833
     10 HN1        -0.8400   -1.3740   -0.9750 hn        1 2PN      0.312800
@<TRIPOS>BOND
     1    1    2 1   
     2    1    3 1   
     3    1    4 1   
     4    1    5 1   
     5    5    6 1   
     6    5   10 1   
     7    6    7 1   
     8    6    8 1   
     9    6    9 1   
@<TRIPOS>SUBSTRUCTURE
     1 2PN         1 TEMP              0 ****  ****    0 ROOT
