@<TRIPOS>MOLECULE
2PO
    5     3     1     0     0
SMALL
bcc


@<TRIPOS>ATOM
      1 P          -0.0130    0.0310   -0.0180 p4        1 2PO      1.630200
      2 O1P         1.4970    0.0310   -0.0180 os        1 2PO     -1.292000
      3 O2P        -0.5160    0.0310    1.4060 o         1 2PO     -0.972500
      4 O3P        -0.5160   -1.2020   -0.7300 o         1 2PO     -1.021300
      5 HP         -0.4520    1.1070   -0.6390 hp        1 2PO     -0.345400
@<TRIPOS>BOND
     1    1    3 1   
     2    1    4 2   
     3    1    5 1   
@<TRIPOS>SUBSTRUCTURE
     1 2PO         1 TEMP              0 ****  ****    0 ROOT
