@<TRIPOS>MOLECULE
2PO
    5     4     1     0     0
SMALL
bcc


@<TRIPOS>ATOM
      1 P          -0.9830    1.1290    0.2710 p5        1 2PO      1.261900
      2 O1P         0.0050    0.0130    0.0070 o         1 2PO     -0.972500
      3 O2P        -2.0550    0.8010    1.2870 o         1 2PO     -0.972500
      4 O3P        -1.4800    1.8430   -0.9690 o         1 2PO     -0.972500
      5 HP         -0.2060    2.1050    0.9190 hp        1 2PO     -0.345400
@<TRIPOS>BOND
     1    1    2 1   
     2    1    3 1   
     3    1    4 1   
     4    1    5 1   
@<TRIPOS>SUBSTRUCTURE
     1 2PO         1 TEMP              0 ****  ****    0 ROOT
