@<TRIPOS>MOLECULE
2PP
   25    24     1     0     0
SMALL
bcc


@<TRIPOS>ATOM
      1 C1         -0.1650   -0.1960    0.0700 c         1 2PP      0.911600
      2 C2          1.3820   -0.0810    0.0410 c3        1 2PP     -0.188700
      3 C3          1.9440    0.0040    1.4470 c3        1 2PP     -0.052400
      4 C4          1.5890    1.3210    2.1040 c3        1 2PP     -0.085400
      5 C5          2.0970    1.3940    3.5210 c3        1 2PP     -0.083600
      6 C1'         1.9600   -1.2820   -0.6890 c3        1 2PP     -0.052400
      7 C2'         1.6570   -1.2200   -2.1710 c3        1 2PP     -0.085400
      8 C3'         2.0190   -2.5030   -2.8720 c3        1 2PP     -0.083600
      9 O1         -0.7040   -0.9420    0.9360 o         1 2PP     -0.848300
     10 O2         -0.8130    0.4640   -0.7930 o         1 2PP     -0.848300
     11 H2          1.6480    0.8530   -0.5240 hc        1 2PP      0.033700
     12 H31         3.0610   -0.1140    1.4280 hc        1 2PP      0.022450
     13 H32         1.5170   -0.8400    2.0510 hc        1 2PP      0.022450
     14 H41         0.4700    1.4310    2.0900 hc        1 2PP      0.050200
     15 H42         2.0160    2.1700    1.5080 hc        1 2PP      0.050200
     16 H51         3.2090    1.2890    3.5500 hc        1 2PP      0.015200
     17 H52         1.8250    2.3720    3.9860 hc        1 2PP      0.015200
     18 H53         1.6530    0.5750    4.1370 hc        1 2PP      0.015200
     19 H1'1        3.0710   -1.3320   -0.5370 hc        1 2PP      0.022450
     20 H1'2        1.5180   -2.2160   -0.2500 hc        1 2PP      0.022450
     21 H2'1        2.2220   -0.3680   -2.6330 hc        1 2PP      0.050200
     22 H2'2        0.5610   -0.9970   -2.3010 hc        1 2PP      0.050200
     23 H3'1        3.1040   -2.7360   -2.7410 hc        1 2PP      0.015200
     24 H3'2        1.8060   -2.4260   -3.9660 hc        1 2PP      0.015200
     25 H3'3        1.4270   -3.3560   -2.4580 hc        1 2PP      0.015200
@<TRIPOS>BOND
     1    1    2 1   
     2    1    9 1   
     3    1   10 1   
     4    2    3 1   
     5    2    6 1   
     6    2   11 1   
     7    3    4 1   
     8    3   12 1   
     9    3   13 1   
    10    4    5 1   
    11    4   14 1   
    12    4   15 1   
    13    5   16 1   
    14    5   17 1   
    15    5   18 1   
    16    6    7 1   
    17    6   19 1   
    18    6   20 1   
    19    7    8 1   
    20    7   21 1   
    21    7   22 1   
    22    8   23 1   
    23    8   24 1   
    24    8   25 1   
@<TRIPOS>SUBSTRUCTURE
     1 2PP         1 TEMP              0 ****  ****    0 ROOT
