@<TRIPOS>MOLECULE
2PP
   25    24     1     0     0
SMALL
bcc


@<TRIPOS>ATOM
      1 C1          1.2330    0.2750   -0.0440 c         1 2PP      0.911600
      2 C2         -0.2240   -0.2560    0.0150 c3        1 2PP     -0.188700
      3 C3         -0.9080    0.1830    1.2960 c3        1 2PP     -0.052400
      4 C4         -0.3170   -0.5150    2.5030 c3        1 2PP     -0.085400
      5 C5         -0.9520   -0.0450    3.7860 c3        1 2PP     -0.083600
      6 C1'        -0.9920    0.2490   -1.1950 c3        1 2PP     -0.052400
      7 C2'        -0.5110   -0.4210   -2.4660 c3        1 2PP     -0.085400
      8 C3'        -1.0950    0.2250   -3.6950 c3        1 2PP     -0.083600
      9 O1          1.4650    1.4580    0.3350 o         1 2PP     -0.848300
     10 O2          2.1210   -0.5100   -0.4860 o         1 2PP     -0.848300
     11 H2         -0.1830   -1.3780   -0.0190 hc        1 2PP      0.033700
     12 H31        -2.0090   -0.0300    1.2430 hc        1 2PP      0.022700
     13 H32        -0.7740    1.2920    1.4060 hc        1 2PP      0.022700
     14 H41         0.7870   -0.3110    2.5230 hc        1 2PP      0.050200
     15 H42        -0.4510   -1.6240    2.4020 hc        1 2PP      0.050200
     16 H51        -0.5040   -0.5730    4.6620 hc        1 2PP      0.015367
     17 H52        -0.7970    1.0530    3.9190 hc        1 2PP      0.015367
     18 H53        -2.0520   -0.2440    3.7820 hc        1 2PP      0.015367
     19 H1'1       -2.0910    0.0590   -1.0660 hc        1 2PP      0.022700
     20 H1'2       -0.8490    1.3590   -1.2740 hc        1 2PP      0.022700
     21 H2'1        0.6130   -0.3690   -2.4920 hc        1 2PP      0.050200
     22 H2'2       -0.7900   -1.5070   -2.4440 hc        1 2PP      0.050200
     23 H3'1       -0.7440   -0.2970   -4.6170 hc        1 2PP      0.015367
     24 H3'2       -2.2120    0.1860   -3.6730 hc        1 2PP      0.015367
     25 H3'3       -0.7860    1.2970   -3.7590 hc        1 2PP      0.015367
@<TRIPOS>BOND
     1    1    2 1   
     2    1    9 1   
     3    1   10 1   
     4    2    3 1   
     5    2    6 1   
     6    2   11 1   
     7    3    4 1   
     8    3   12 1   
     9    3   13 1   
    10    4    5 1   
    11    4   14 1   
    12    4   15 1   
    13    5   16 1   
    14    5   17 1   
    15    5   18 1   
    16    6    7 1   
    17    6   19 1   
    18    6   20 1   
    19    7    8 1   
    20    7   21 1   
    21    7   22 1   
    22    8   23 1   
    23    8   24 1   
    24    8   25 1   
@<TRIPOS>SUBSTRUCTURE
     1 2PP         1 TEMP              0 ****  ****    0 ROOT
