@<TRIPOS>MOLECULE
2PP
   25    23     1     0     0
SMALL
bcc


@<TRIPOS>ATOM
      1 C1         -1.9590    0.1310   -0.1200 c1        1 2PP      0.331000
      2 C2         -0.4470    0.1910   -0.1280 c2        1 2PP     -0.178000
      3 C3          0.0650    0.2040    1.2950 c3        1 2PP     -0.131000
      4 C4          0.0700    1.6250    1.8160 c3        1 2PP     -0.164000
      5 C5          0.5770    1.6370    3.2410 c3        1 2PP     -0.201500
      6 C1'         0.1020   -1.0200   -0.8510 c3        1 2PP     -0.131000
      7 C2'         0.2350   -0.7100   -2.3250 c3        1 2PP     -0.164000
      8 C3'         0.8320   -1.9020   -3.0390 c3        1 2PP     -0.201500
      9 O1         -2.6290    1.0540   -0.6520 o         1 2PP     -0.583000
     10 O2         -2.5470   -0.8430    0.4200 o         1 2PP     -0.583000
     11 H2         -0.1570    1.0030   -0.5860 ha        1 2PP      0.073000
     12 H31        -0.5170   -0.3460    1.8560 hc        1 2PP      0.062000
     13 H32         0.9740   -0.1550    1.3180 hc        1 2PP      0.062000
     14 H41        -0.8390    1.9850    1.7900 hc        1 2PP      0.089500
     15 H42         0.6550    2.1750    1.2570 hc        1 2PP      0.089500
     16 H51        -0.0320    1.1210    3.8090 hc        1 2PP      0.054667
     17 H52         1.4710    1.2370    3.2740 hc        1 2PP      0.054667
     18 H53         0.6210    2.5620    3.5640 hc        1 2PP      0.054667
     19 H1'1       -0.5080   -1.7750   -0.7300 hc        1 2PP      0.062000
     20 H1'2        0.9800   -1.2470   -0.4850 hc        1 2PP      0.062000
     21 H2'1       -0.6480   -0.5140   -2.6990 hc        1 2PP      0.089500
     22 H2'2        0.8180    0.0670   -2.4440 hc        1 2PP      0.089500
     23 H3'1        1.7230   -2.0890   -2.6760 hc        1 2PP      0.054667
     24 H3'2        0.9040   -1.7070   -3.9970 hc        1 2PP      0.054667
     25 H3'3        0.2550   -2.6840   -2.9080 hc        1 2PP      0.054667
@<TRIPOS>BOND
     1    1    9 1   
     2    1   10 1   
     3    2    3 1   
     4    2    6 1   
     5    2   11 1   
     6    3    4 1   
     7    3   12 1   
     8    3   13 1   
     9    4    5 1   
    10    4   14 1   
    11    4   15 1   
    12    5   16 1   
    13    5   17 1   
    14    5   18 1   
    15    6    7 1   
    16    6   19 1   
    17    6   20 1   
    18    7    8 1   
    19    7   21 1   
    20    7   22 1   
    21    8   23 1   
    22    8   24 1   
    23    8   25 1   
@<TRIPOS>SUBSTRUCTURE
     1 2PP         1 TEMP              0 ****  ****    0 ROOT
