@<TRIPOS>MOLECULE
2PP
   25    24     1     0     0
SMALL
bcc


@<TRIPOS>ATOM
      1 C1         -0.1660   -0.2100    0.0730 c         1 2PP      0.911600
      2 C2          1.3800   -0.0820    0.0440 c3        1 2PP     -0.188700
      3 C3          1.9420   -0.0080    1.4510 c3        1 2PP     -0.052400
      4 C4          1.5750    1.2980    2.1240 c3        1 2PP     -0.085400
      5 C5          2.0830    1.3570    3.5420 c3        1 2PP     -0.083600
      6 C1'         1.9680   -1.2680   -0.7000 c3        1 2PP     -0.052400
      7 C2'         1.6630   -1.1900   -2.1820 c3        1 2PP     -0.085400
      8 C3'         2.0370   -2.4610   -2.8980 c3        1 2PP     -0.083600
      9 O1         -0.6980   -0.9760    0.9270 o         1 2PP     -0.848300
     10 O2         -0.8220    0.4570   -0.7790 o         1 2PP     -0.848300
     11 H2          1.6370    0.8620   -0.5090 hc        1 2PP      0.033700
     12 H31         3.0590   -0.1170    1.4300 hc        1 2PP      0.022700
     13 H32         1.5210   -0.8630    2.0460 hc        1 2PP      0.022700
     14 H41         0.4570    1.3990    2.1110 hc        1 2PP      0.050200
     15 H42         1.9960    2.1570    1.5380 hc        1 2PP      0.050200
     16 H51         3.1950    1.2600    3.5700 hc        1 2PP      0.015367
     17 H52         1.8030    2.3280    4.0180 hc        1 2PP      0.015367
     18 H53         1.6450    0.5280    4.1480 hc        1 2PP      0.015367
     19 H1'1        3.0800   -1.3100   -0.5500 hc        1 2PP      0.022700
     20 H1'2        1.5350   -2.2110   -0.2730 hc        1 2PP      0.022700
     21 H2'1        2.2190   -0.3270   -2.6330 hc        1 2PP      0.050200
     22 H2'2        0.5650   -0.9770   -2.3080 hc        1 2PP      0.050200
     23 H3'1        3.1240   -2.6850   -2.7710 hc        1 2PP      0.015367
     24 H3'2        1.8220   -2.3730   -3.9910 hc        1 2PP      0.015367
     25 H3'3        1.4540   -3.3240   -2.4950 hc        1 2PP      0.015367
@<TRIPOS>BOND
     1    1    2 1   
     2    1    9 1   
     3    1   10 1   
     4    2    3 1   
     5    2    6 1   
     6    2   11 1   
     7    3    4 1   
     8    3   12 1   
     9    3   13 1   
    10    4    5 1   
    11    4   14 1   
    12    4   15 1   
    13    5   16 1   
    14    5   17 1   
    15    5   18 1   
    16    6    7 1   
    17    6   19 1   
    18    6   20 1   
    19    7    8 1   
    20    7   21 1   
    21    7   22 1   
    22    8   23 1   
    23    8   24 1   
    24    8   25 1   
@<TRIPOS>SUBSTRUCTURE
     1 2PP         1 TEMP              0 ****  ****    0 ROOT
