@<TRIPOS>MOLECULE
2PQ
   84    88     1     0     0
SMALL
bcc


@<TRIPOS>ATOM
      1 CAB         0.1070   -0.3200    0.2630 ca        1 2PQ     -0.116000
      2 CAC         1.5000   -0.2910    0.2450 ca        1 2PQ     -0.132000
      3 CAD         2.2070    0.1720    1.3550 ca        1 2PQ     -0.127000
      4 CAE         1.5150    0.6050    2.4860 ca        1 2PQ     -0.132000
      5 CAF         0.1230    0.5750    2.5100 ca        1 2PQ     -0.116000
      6 CAA        -0.5950    0.1130    1.3970 cp        1 2PQ     -0.041000
      7 CAJ        -2.0560    0.0820    1.4190 cp        1 2PQ     -0.018000
      8 CAK        -2.7420   -0.3170    2.5760 ca        1 2PQ     -0.133500
      9 CAL        -4.1330   -0.3440    2.5960 ca        1 2PQ     -0.087500
     10 CAI        -2.7910    0.4520    0.2840 ca        1 2PQ     -0.133500
     11 CAH        -4.1830    0.4170    0.3010 ca        1 2PQ     -0.087500
     12 CAG        -4.8640    0.0130    1.4550 ca        1 2PQ     -0.160600
     13 CBP        -6.3450   -0.0070    1.5100 c         1 2PQ      0.595300
     14 OBQ        -6.9430    0.3130    2.5490 o         1 2PQ     -0.543100
     15 CAP        -7.0740   -0.4130    0.2940 ca        1 2PQ     -0.214600
     16 CAO        -6.5120   -1.2970   -0.6370 ca        1 2PQ     -0.063000
     17 CAN        -7.2130   -1.6910   -1.7740 ca        1 2PQ     -0.117300
     18 CBM        -6.6090   -2.6390   -2.7480 c3        1 2PQ     -0.027100
     19 CBN        -6.0360   -1.9190   -3.9550 c3        1 2PQ     -0.077400
     20 CBO        -5.4230   -2.8900   -4.9310 c3        1 2PQ     -0.093100
     21 CAQ        -8.3710    0.0720    0.0840 ca        1 2PQ     -0.042000
     22 CAR        -9.0900   -0.2970   -1.0480 ca        1 2PQ     -0.224000
     23 CAM        -8.5170   -1.1750   -1.9780 ca        1 2PQ      0.167100
     24 OBL        -9.1440   -1.6040   -3.1230 os        1 2PQ     -0.319900
     25 CBK       -10.4660   -1.0920   -3.3570 c3        1 2PQ      0.131400
     26 CBJ       -10.9120   -1.6930   -4.6760 c3        1 2PQ     -0.127400
     27 CBI       -12.3530   -1.2680   -4.9660 c3        1 2PQ      0.195800
     28 NAX       -12.9270   -1.7230   -6.2160 nh        1 2PQ     -0.626000
     29 CAY       -13.3960   -3.0980   -6.1500 c3        1 2PQ      0.190800
     30 CAZ       -13.9860   -3.5980   -7.4620 c3        1 2PQ     -0.078400
     31 CBA       -12.9640   -3.4820   -8.5690 c3        1 2PQ     -0.017100
     32 CAV       -12.2810   -2.1610   -8.5620 ca        1 2PQ     -0.176300
     33 CAW       -12.2470   -1.3420   -7.4100 ca        1 2PQ      0.145600
     34 CBH       -11.5900   -0.0940   -7.4840 ca        1 2PQ     -0.233000
     35 CAT       -11.0020    0.3230   -8.6740 ca        1 2PQ     -0.085000
     36 CAS       -11.0200   -0.4730   -9.8110 ca        1 2PQ     -0.214000
     37 CAU       -11.6540   -1.7220   -9.7560 ca        1 2PQ      0.200100
     38 OBE       -11.7540   -2.6120  -10.7920 os        1 2PQ     -0.332900
     39 CBD       -10.9560   -2.4390  -11.9920 c3        1 2PQ      0.024800
     40 CBF        -9.4810   -2.5750  -11.6610 c3        1 2PQ     -0.086100
     41 CBG       -11.4110   -3.6070  -12.8630 c3        1 2PQ     -0.086100
     42 CBB       -11.2710   -1.1100  -12.7590 c         1 2PQ      0.905600
     43 OBR       -12.4410   -0.9440  -13.1870 o         1 2PQ     -0.819300
     44 OBC       -10.3150   -0.3020  -12.9340 o         1 2PQ     -0.819300
     45 HAB        -0.4460   -0.6890   -0.6140 ha        1 2PQ      0.137000
     46 HAC         2.0420   -0.6340   -0.6480 ha        1 2PQ      0.131500
     47 HAD         3.3060    0.1960    1.3380 ha        1 2PQ      0.130000
     48 HAE         2.0690    0.9730    3.3620 ha        1 2PQ      0.131500
     49 HAF        -0.4200    0.9230    3.4020 ha        1 2PQ      0.137000
     50 HAK        -2.1760   -0.6120    3.4720 ha        1 2PQ      0.138500
     51 HAL        -4.6720   -0.6410    3.5090 ha        1 2PQ      0.148500
     52 HAI        -2.2650    0.7800   -0.6250 ha        1 2PQ      0.138500
     53 HAH        -4.7520    0.7120   -0.5950 ha        1 2PQ      0.148500
     54 HAO        -5.4990   -1.6960   -0.4650 ha        1 2PQ      0.142000
     55 HBM        -7.3970   -3.3620   -3.0950 hc        1 2PQ      0.051200
     56 HBMA       -5.8000   -3.2350   -2.2480 hc        1 2PQ      0.051200
     57 HBN        -6.8580   -1.3420   -4.4580 hc        1 2PQ      0.045700
     58 HBNA       -5.2630   -1.1800   -3.6190 hc        1 2PQ      0.045700
     59 HBO        -5.0110   -2.3420   -5.8130 hc        1 2PQ      0.033700
     60 HBOA       -4.5940   -3.4640   -4.4520 hc        1 2PQ      0.033700
     61 HBOB       -6.1890   -3.6170   -5.2950 hc        1 2PQ      0.033700
     62 HAQ        -8.8200    0.7490    0.8290 ha        1 2PQ      0.149000
     63 HAR       -10.1030    0.1030   -1.1980 ha        1 2PQ      0.144000
     64 HBK       -11.1380   -1.4080   -2.5160 h1        1 2PQ      0.038700
     65 HBKA      -10.4280    0.0270   -3.4140 h1        1 2PQ      0.038700
     66 HBJ       -10.2350   -1.3440   -5.5010 hc        1 2PQ      0.071200
     67 HBJA      -10.8320   -2.8100   -4.6280 hc        1 2PQ      0.071200
     68 HBI       -13.0110   -1.6430   -4.1300 h1        1 2PQ      0.044200
     69 HBIA      -12.4080   -0.1420   -4.9540 h1        1 2PQ      0.044200
     70 HAY       -12.5660   -3.8000   -5.8380 h1        1 2PQ      0.020200
     71 HAYA      -14.1900   -3.1370   -5.3500 h1        1 2PQ      0.020200
     72 HAZ       -14.8990   -3.0020   -7.7220 hc        1 2PQ      0.043200
     73 HAZA      -14.2990   -4.6650   -7.3300 hc        1 2PQ      0.043200
     74 HBA       -13.4660   -3.6380   -9.5630 hc        1 2PQ      0.055200
     75 HBAA      -12.1910   -4.2900   -8.4640 hc        1 2PQ      0.055200
     76 HBH       -11.5460    0.5760   -6.6150 ha        1 2PQ      0.111000
     77 HAT       -10.5140    1.3080   -8.7150 ha        1 2PQ      0.119000
     78 HAS       -10.5640   -0.1150  -10.7530 ha        1 2PQ      0.203000
     79 HBF        -8.8900   -2.4320  -12.5970 hc        1 2PQ      0.033200
     80 HBFA       -9.1700   -1.7920  -10.9310 hc        1 2PQ      0.033200
     81 HBFB       -9.2630   -3.5810  -11.2290 hc        1 2PQ      0.033200
     82 HBG       -10.7920   -3.6210  -13.7900 hc        1 2PQ      0.033200
     83 HBGA      -11.2970   -4.5760  -12.3220 hc        1 2PQ      0.033200
     84 HBGB      -12.4830   -3.4590  -13.1390 hc        1 2PQ      0.033200
@<TRIPOS>BOND
     1    1    2 ar  
     2    1    6 ar  
     3    1   45 1   
     4    2    3 ar  
     5    2   46 1   
     6    3    4 ar  
     7    3   47 1   
     8    4    5 ar  
     9    4   48 1   
    10    5    6 ar  
    11    5   49 1   
    12    6    7 1   
    13    7    8 ar  
    14    7   10 ar  
    15    8    9 ar  
    16    8   50 1   
    17    9   12 ar  
    18    9   51 1   
    19   10   11 ar  
    20   10   52 1   
    21   11   12 ar  
    22   11   53 1   
    23   12   13 1   
    24   13   14 2   
    25   13   15 1   
    26   15   16 ar  
    27   15   21 ar  
    28   16   17 ar  
    29   16   54 1   
    30   17   18 1   
    31   17   23 ar  
    32   18   19 1   
    33   18   55 1   
    34   18   56 1   
    35   19   20 1   
    36   19   57 1   
    37   19   58 1   
    38   20   59 1   
    39   20   60 1   
    40   20   61 1   
    41   21   22 ar  
    42   21   62 1   
    43   22   23 ar  
    44   22   63 1   
    45   23   24 1   
    46   24   25 1   
    47   25   26 1   
    48   25   64 1   
    49   25   65 1   
    50   26   27 1   
    51   26   66 1   
    52   26   67 1   
    53   27   28 1   
    54   27   68 1   
    55   27   69 1   
    56   28   29 1   
    57   28   33 1   
    58   29   30 1   
    59   29   70 1   
    60   29   71 1   
    61   30   31 1   
    62   30   72 1   
    63   30   73 1   
    64   31   32 1   
    65   31   74 1   
    66   31   75 1   
    67   32   33 ar  
    68   32   37 ar  
    69   33   34 ar  
    70   34   35 ar  
    71   34   76 1   
    72   35   36 ar  
    73   35   77 1   
    74   36   37 ar  
    75   36   78 1   
    76   37   38 1   
    77   38   39 1   
    78   39   40 1   
    79   39   41 1   
    80   39   42 1   
    81   40   79 1   
    82   40   80 1   
    83   40   81 1   
    84   41   82 1   
    85   41   83 1   
    86   41   84 1   
    87   42   43 1   
    88   42   44 1   
@<TRIPOS>SUBSTRUCTURE
     1 2PQ         1 TEMP              0 ****  ****    0 ROOT
