@<TRIPOS>MOLECULE
2PQ
   84    88     1     0     0
SMALL
bcc


@<TRIPOS>ATOM
      1 CAB        -8.6380    2.9920    0.2320 ca        1 2PQ     -0.116000
      2 CAC        -9.5400    4.0510    0.3090 ca        1 2PQ     -0.132000
      3 CAD       -10.8870    3.8490    0.0110 ca        1 2PQ     -0.127000
      4 CAE       -11.3310    2.5810   -0.3650 ca        1 2PQ     -0.132000
      5 CAF       -10.4340    1.5180   -0.4400 ca        1 2PQ     -0.116000
      6 CAA        -9.0770    1.7140   -0.1430 cp        1 2PQ     -0.041000
      7 CAJ        -8.1330    0.6010   -0.2230 cp        1 2PQ     -0.018000
      8 CAK        -8.4980   -0.6750    0.2300 ca        1 2PQ     -0.133500
      9 CAL        -7.5990   -1.7340    0.1510 ca        1 2PQ     -0.087500
     10 CAI        -6.8500    0.7940   -0.7560 ca        1 2PQ     -0.133500
     11 CAH        -5.9480   -0.2640   -0.8270 ca        1 2PQ     -0.087500
     12 CAG        -6.3140   -1.5340   -0.3690 ca        1 2PQ     -0.160600
     13 CBP        -5.3820   -2.6840   -0.4580 c         1 2PQ      0.595300
     14 OBQ        -5.8050   -3.8200   -0.7230 o         1 2PQ     -0.543100
     15 CAP        -3.9480   -2.4290   -0.2280 ca        1 2PQ     -0.214600
     16 CAO        -3.5130   -1.3880    0.6040 ca        1 2PQ     -0.063000
     17 CAN        -2.1580   -1.1640    0.8320 ca        1 2PQ     -0.117300
     18 CBM        -1.7090   -0.0630    1.7270 c3        1 2PQ     -0.027100
     19 CBN        -1.2730    1.1600    0.9410 c3        1 2PQ     -0.077400
     20 CBO        -0.8270    2.2680    1.8590 c3        1 2PQ     -0.093100
     21 CAQ        -3.0030   -3.2680   -0.8300 ca        1 2PQ     -0.042000
     22 CAR        -1.6420   -3.0610   -0.6280 ca        1 2PQ     -0.224000
     23 CAM        -1.2150   -2.0120    0.1990 ca        1 2PQ      0.167100
     24 OBL         0.1030   -1.7270    0.4670 os        1 2PQ     -0.319900
     25 CBK         1.0790   -2.5690   -0.1660 c3        1 2PQ      0.131400
     26 CBJ         2.4290   -2.0320    0.2690 c3        1 2PQ     -0.127400
     27 CBI         3.5360   -2.9260   -0.2930 c3        1 2PQ      0.195800
     28 NAX         4.9000   -2.5320   -0.0060 nh        1 2PQ     -0.626000
     29 CAY         5.3280   -2.9210    1.3290 c3        1 2PQ      0.190800
     30 CAZ         6.7540   -2.4970    1.6530 c3        1 2PQ     -0.078400
     31 CBA         6.8960   -1.0000    1.5110 c3        1 2PQ     -0.017100
     32 CAV         6.2810   -0.4970    0.2550 ca        1 2PQ     -0.176300
     33 CAW         5.2980   -1.2350   -0.4450 ca        1 2PQ      0.145600
     34 CBH         4.7690   -0.6980   -1.6400 ca        1 2PQ     -0.233000
     35 CAT         5.2210    0.5270   -2.1210 ca        1 2PQ     -0.085000
     36 CAS         6.1780    1.2670   -1.4420 ca        1 2PQ     -0.214000
     37 CAU         6.7070    0.7600   -0.2460 ca        1 2PQ      0.200100
     38 OBE         7.6540    1.3720    0.5300 os        1 2PQ     -0.332900
     39 CBD         8.0040    2.7620    0.3040 c3        1 2PQ      0.024800
     40 CBF         6.8090    3.6530    0.5870 c3        1 2PQ     -0.086100
     41 CBG         9.0960    2.9990    1.3450 c3        1 2PQ     -0.086100
     42 CBB         8.6190    3.0240   -1.1120 c         1 2PQ      0.905600
     43 OBR         9.6850    2.4260   -1.4080 o         1 2PQ     -0.819300
     44 OBC         8.0240    3.8550   -1.8560 o         1 2PQ     -0.819300
     45 HAB        -7.5760    3.1550    0.4730 ha        1 2PQ      0.137000
     46 HAC        -9.1860    5.0490    0.6070 ha        1 2PQ      0.131500
     47 HAD       -11.5970    4.6860    0.0700 ha        1 2PQ      0.130000
     48 HAE       -12.3920    2.4180   -0.6040 ha        1 2PQ      0.131500
     49 HAF       -10.7870    0.5200   -0.7430 ha        1 2PQ      0.137000
     50 HAK        -9.5010   -0.8390    0.6520 ha        1 2PQ      0.138500
     51 HAL        -7.8910   -2.7410    0.4910 ha        1 2PQ      0.148500
     52 HAI        -6.5580    1.7880   -1.1280 ha        1 2PQ      0.138500
     53 HAH        -4.9430   -0.1020   -1.2490 ha        1 2PQ      0.148500
     54 HAO        -4.2550   -0.7380    1.0950 ha        1 2PQ      0.142000
     55 HBM        -2.5390    0.2180    2.4290 hc        1 2PQ      0.051200
     56 HBMA       -0.8460   -0.4240    2.3500 hc        1 2PQ      0.051200
     57 HBN        -0.4310    0.8710    0.2570 hc        1 2PQ      0.045700
     58 HBNA       -2.1210    1.5170    0.3000 hc        1 2PQ      0.045700
     59 HBO         0.0360    1.9360    2.4860 hc        1 2PQ      0.033700
     60 HBOA       -0.5060    3.1570    1.2630 hc        1 2PQ      0.033700
     61 HBOB       -1.6570    2.5790    2.5390 hc        1 2PQ      0.033700
     62 HAQ        -3.3480   -4.0990   -1.4660 ha        1 2PQ      0.149000
     63 HAR        -0.9160   -3.7250   -1.1170 ha        1 2PQ      0.144000
     64 HBK         0.9310   -3.6280    0.1750 h1        1 2PQ      0.038700
     65 HBKA        0.9590   -2.5090   -1.2800 h1        1 2PQ      0.038700
     66 HBJ         2.5580   -0.9810   -0.1040 hc        1 2PQ      0.071200
     67 HBJA        2.4780   -1.9990    1.3880 hc        1 2PQ      0.071200
     68 HBI         3.3900   -3.9700    0.1080 h1        1 2PQ      0.044200
     69 HBIA        3.4240   -2.9820   -1.4130 h1        1 2PQ      0.044200
     70 HAY         4.6380   -2.5000    2.1190 h1        1 2PQ      0.020200
     71 HAYA        5.2560   -4.0460    1.3820 h1        1 2PQ      0.020200
     72 HAZ         6.9920   -2.8140    2.7000 hc        1 2PQ      0.043200
     73 HAZA        7.4720   -3.0150    0.9660 hc        1 2PQ      0.043200
     74 HBA         6.4110   -0.4830    2.3840 hc        1 2PQ      0.055200
     75 HBAA        7.9850   -0.7210    1.5320 hc        1 2PQ      0.055200
     76 HBH         4.0100   -1.2410   -2.2180 ha        1 2PQ      0.111000
     77 HAT         4.8100    0.9170   -3.0650 ha        1 2PQ      0.119000
     78 HAS         6.5380    2.2290   -1.8520 ha        1 2PQ      0.203000
     79 HBF         6.4680    3.5370    1.6430 hc        1 2PQ      0.033200
     80 HBFA        7.1020    4.7140    0.4000 hc        1 2PQ      0.033200
     81 HBFB        5.9650    3.4020   -0.0970 hc        1 2PQ      0.033200
     82 HBG         9.9860    2.3750    1.0890 hc        1 2PQ      0.033200
     83 HBGA        9.3840    4.0760    1.3190 hc        1 2PQ      0.033200
     84 HBGB        8.7380    2.7340    2.3670 hc        1 2PQ      0.033200
@<TRIPOS>BOND
     1    1    2 ar  
     2    1    6 ar  
     3    1   45 1   
     4    2    3 ar  
     5    2   46 1   
     6    3    4 ar  
     7    3   47 1   
     8    4    5 ar  
     9    4   48 1   
    10    5    6 ar  
    11    5   49 1   
    12    6    7 1   
    13    7    8 ar  
    14    7   10 ar  
    15    8    9 ar  
    16    8   50 1   
    17    9   12 ar  
    18    9   51 1   
    19   10   11 ar  
    20   10   52 1   
    21   11   12 ar  
    22   11   53 1   
    23   12   13 1   
    24   13   14 2   
    25   13   15 1   
    26   15   16 ar  
    27   15   21 ar  
    28   16   17 ar  
    29   16   54 1   
    30   17   18 1   
    31   17   23 ar  
    32   18   19 1   
    33   18   55 1   
    34   18   56 1   
    35   19   20 1   
    36   19   57 1   
    37   19   58 1   
    38   20   59 1   
    39   20   60 1   
    40   20   61 1   
    41   21   22 ar  
    42   21   62 1   
    43   22   23 ar  
    44   22   63 1   
    45   23   24 1   
    46   24   25 1   
    47   25   26 1   
    48   25   64 1   
    49   25   65 1   
    50   26   27 1   
    51   26   66 1   
    52   26   67 1   
    53   27   28 1   
    54   27   68 1   
    55   27   69 1   
    56   28   29 1   
    57   28   33 1   
    58   29   30 1   
    59   29   70 1   
    60   29   71 1   
    61   30   31 1   
    62   30   72 1   
    63   30   73 1   
    64   31   32 1   
    65   31   74 1   
    66   31   75 1   
    67   32   33 ar  
    68   32   37 ar  
    69   33   34 ar  
    70   34   35 ar  
    71   34   76 1   
    72   35   36 ar  
    73   35   77 1   
    74   36   37 ar  
    75   36   78 1   
    76   37   38 1   
    77   38   39 1   
    78   39   40 1   
    79   39   41 1   
    80   39   42 1   
    81   40   79 1   
    82   40   80 1   
    83   40   81 1   
    84   41   82 1   
    85   41   83 1   
    86   41   84 1   
    87   42   43 1   
    88   42   44 1   
@<TRIPOS>SUBSTRUCTURE
     1 2PQ         1 TEMP              0 ****  ****    0 ROOT
