@<TRIPOS>MOLECULE
2PQ
   84    88     1     0     0
SMALL
bcc


@<TRIPOS>ATOM
      1 CAB         0.0980   -0.3060    0.2460 ca        1 2PQ     -0.116000
      2 CAC         1.4900   -0.2710    0.2230 ca        1 2PQ     -0.132000
      3 CAD         2.1990    0.1940    1.3310 ca        1 2PQ     -0.127000
      4 CAE         1.5090    0.6230    2.4650 ca        1 2PQ     -0.132000
      5 CAF         0.1170    0.5870    2.4940 ca        1 2PQ     -0.116000
      6 CAA        -0.6030    0.1220    1.3830 cp        1 2PQ     -0.041000
      7 CAJ        -2.0630    0.0840    1.4100 cp        1 2PQ     -0.018000
      8 CAK        -2.7440   -0.3180    2.5690 ca        1 2PQ     -0.133500
      9 CAL        -4.1350   -0.3520    2.5930 ca        1 2PQ     -0.087500
     10 CAI        -2.8040    0.4520    0.2780 ca        1 2PQ     -0.133500
     11 CAH        -4.1960    0.4100    0.3000 ca        1 2PQ     -0.087500
     12 CAG        -4.8710    0.0030    1.4560 ca        1 2PQ     -0.160600
     13 CBP        -6.3520   -0.0240    1.5150 c         1 2PQ      0.595300
     14 OBQ        -6.9480    0.2910    2.5560 o         1 2PQ     -0.543100
     15 CAP        -7.0830   -0.4320    0.3010 ca        1 2PQ     -0.214600
     16 CAO        -6.5200   -1.3130   -0.6330 ca        1 2PQ     -0.063000
     17 CAN        -7.2220   -1.7080   -1.7680 ca        1 2PQ     -0.117300
     18 CBM        -6.6170   -2.6540   -2.7450 c3        1 2PQ     -0.027100
     19 CBN        -6.0480   -1.9310   -3.9520 c3        1 2PQ     -0.077400
     20 CBO        -5.4350   -2.8990   -4.9300 c3        1 2PQ     -0.093100
     21 CAQ        -8.3810    0.0490    0.0940 ca        1 2PQ     -0.042000
     22 CAR        -9.1020   -0.3210   -1.0370 ca        1 2PQ     -0.224000
     23 CAM        -8.5280   -1.1960   -1.9700 ca        1 2PQ      0.167100
     24 OBL        -9.1560   -1.6250   -3.1140 os        1 2PQ     -0.319900
     25 CBK       -10.4770   -1.1120   -3.3480 c3        1 2PQ      0.131400
     26 CBJ       -10.9210   -1.7080   -4.6700 c3        1 2PQ     -0.127400
     27 CBI       -12.3590   -1.2760   -4.9640 c3        1 2PQ      0.195800
     28 NAX       -12.9300   -1.7240   -6.2180 nh        1 2PQ     -0.625000
     29 CAY       -13.4050   -3.0980   -6.1590 c3        1 2PQ      0.190800
     30 CAZ       -13.9890   -3.5910   -7.4760 c3        1 2PQ     -0.078400
     31 CBA       -12.9600   -3.4750   -8.5770 c3        1 2PQ     -0.017100
     32 CAV       -12.2730   -2.1570   -8.5620 ca        1 2PQ     -0.176300
     33 CAW       -12.2430   -1.3410   -7.4070 ca        1 2PQ      0.145600
     34 CBH       -11.5820   -0.0950   -7.4740 ca        1 2PQ     -0.233000
     35 CAT       -10.9860    0.3230   -8.6590 ca        1 2PQ     -0.085000
     36 CAS       -11.0000   -0.4680   -9.7990 ca        1 2PQ     -0.213000
     37 CAU       -11.6380   -1.7160   -9.7520 ca        1 2PQ      0.200100
     38 OBE       -11.7350   -2.6020  -10.7900 os        1 2PQ     -0.332900
     39 CBD       -10.9280   -2.4280  -11.9850 c3        1 2PQ      0.024800
     40 CBF        -9.4560   -2.5710  -11.6440 c3        1 2PQ     -0.086100
     41 CBG       -11.3820   -3.5920  -12.8620 c3        1 2PQ     -0.086100
     42 CBB       -11.2330   -1.0970  -12.7510 c         1 2PQ      0.905600
     43 OBR       -12.4000   -0.9260  -13.1860 o         1 2PQ     -0.819300
     44 OBC       -10.2740   -0.2920  -12.9170 o         1 2PQ     -0.819300
     45 HAB        -0.4570   -0.6780   -0.6280 ha        1 2PQ      0.137000
     46 HAC         2.0310   -0.6110   -0.6720 ha        1 2PQ      0.131500
     47 HAD         3.2980    0.2230    1.3100 ha        1 2PQ      0.130000
     48 HAE         2.0640    0.9930    3.3390 ha        1 2PQ      0.131500
     49 HAF        -0.4240    0.9320    3.3880 ha        1 2PQ      0.137000
     50 HAK        -2.1730   -0.6110    3.4630 ha        1 2PQ      0.138500
     51 HAL        -4.6700   -0.6510    3.5090 ha        1 2PQ      0.148500
     52 HAI        -2.2820    0.7830   -0.6330 ha        1 2PQ      0.138500
     53 HAH        -4.7690    0.7030   -0.5950 ha        1 2PQ      0.148500
     54 HAO        -5.5050   -1.7100   -0.4630 ha        1 2PQ      0.142000
     55 HBM        -5.8050   -3.2480   -2.2470 hc        1 2PQ      0.051200
     56 HBMA       -7.4040   -3.3780   -3.0910 hc        1 2PQ      0.051200
     57 HBN        -5.2770   -1.1890   -3.6170 hc        1 2PQ      0.045700
     58 HBNA       -6.8720   -1.3560   -4.4530 hc        1 2PQ      0.045700
     59 HBO        -4.6030   -3.4710   -4.4530 hc        1 2PQ      0.033700
     60 HBOA       -6.1990   -3.6280   -5.2940 hc        1 2PQ      0.033700
     61 HBOB       -5.0260   -2.3490   -5.8120 hc        1 2PQ      0.033700
     62 HAQ        -8.8310    0.7240    0.8410 ha        1 2PQ      0.149000
     63 HAR       -10.1160    0.0760   -1.1840 ha        1 2PQ      0.144000
     64 HBK       -10.4390    0.0080   -3.4010 h1        1 2PQ      0.038700
     65 HBKA      -11.1510   -1.4300   -2.5100 h1        1 2PQ      0.038700
     66 HBJ       -10.8460   -2.8250   -4.6240 hc        1 2PQ      0.071200
     67 HBJA      -10.2400   -1.3590   -5.4920 hc        1 2PQ      0.071200
     68 HBI       -12.4110   -0.1510   -4.9470 h1        1 2PQ      0.044200
     69 HBIA      -13.0220   -1.6530   -4.1320 h1        1 2PQ      0.044200
     70 HAY       -14.2040   -3.1360   -5.3640 h1        1 2PQ      0.020200
     71 HAYA      -12.5790   -3.8030   -5.8450 h1        1 2PQ      0.020200
     72 HAZ       -14.8980   -2.9910   -7.7400 hc        1 2PQ      0.043200
     73 HAZA      -14.3060   -4.6570   -7.3500 hc        1 2PQ      0.043200
     74 HBA       -13.4570   -3.6270   -9.5750 hc        1 2PQ      0.055200
     75 HBAA      -12.1900   -4.2870   -8.4700 hc        1 2PQ      0.055200
     76 HBH       -11.5410    0.5720   -6.6030 ha        1 2PQ      0.111000
     77 HAT       -10.4940    1.3070   -8.6950 ha        1 2PQ      0.119000
     78 HAS       -10.5380   -0.1090  -10.7370 ha        1 2PQ      0.203000
     79 HBF        -8.8580   -2.4280  -12.5750 hc        1 2PQ      0.033200
     80 HBFA       -9.1470   -1.7900  -10.9100 hc        1 2PQ      0.033200
     81 HBFB       -9.2450   -3.5790  -11.2130 hc        1 2PQ      0.033200
     82 HBG       -10.7570   -3.6070  -13.7850 hc        1 2PQ      0.033200
     83 HBGA      -12.4510   -3.4410  -13.1450 hc        1 2PQ      0.033200
     84 HBGB      -11.2740   -4.5630  -12.3230 hc        1 2PQ      0.033200
@<TRIPOS>BOND
     1    1    2 ar  
     2    1    6 ar  
     3    1   45 1   
     4    2    3 ar  
     5    2   46 1   
     6    3    4 ar  
     7    3   47 1   
     8    4    5 ar  
     9    4   48 1   
    10    5    6 ar  
    11    5   49 1   
    12    6    7 1   
    13    7    8 ar  
    14    7   10 ar  
    15    8    9 ar  
    16    8   50 1   
    17    9   12 ar  
    18    9   51 1   
    19   10   11 ar  
    20   10   52 1   
    21   11   12 ar  
    22   11   53 1   
    23   12   13 1   
    24   13   14 2   
    25   13   15 1   
    26   15   16 ar  
    27   15   21 ar  
    28   16   17 ar  
    29   16   54 1   
    30   17   18 1   
    31   17   23 ar  
    32   18   19 1   
    33   18   55 1   
    34   18   56 1   
    35   19   20 1   
    36   19   57 1   
    37   19   58 1   
    38   20   59 1   
    39   20   60 1   
    40   20   61 1   
    41   21   22 ar  
    42   21   62 1   
    43   22   23 ar  
    44   22   63 1   
    45   23   24 1   
    46   24   25 1   
    47   25   26 1   
    48   25   64 1   
    49   25   65 1   
    50   26   27 1   
    51   26   66 1   
    52   26   67 1   
    53   27   28 1   
    54   27   68 1   
    55   27   69 1   
    56   28   29 1   
    57   28   33 1   
    58   29   30 1   
    59   29   70 1   
    60   29   71 1   
    61   30   31 1   
    62   30   72 1   
    63   30   73 1   
    64   31   32 1   
    65   31   74 1   
    66   31   75 1   
    67   32   33 ar  
    68   32   37 ar  
    69   33   34 ar  
    70   34   35 ar  
    71   34   76 1   
    72   35   36 ar  
    73   35   77 1   
    74   36   37 ar  
    75   36   78 1   
    76   37   38 1   
    77   38   39 1   
    78   39   40 1   
    79   39   41 1   
    80   39   42 1   
    81   40   79 1   
    82   40   80 1   
    83   40   81 1   
    84   41   82 1   
    85   41   83 1   
    86   41   84 1   
    87   42   43 1   
    88   42   44 1   
@<TRIPOS>SUBSTRUCTURE
     1 2PQ         1 TEMP              0 ****  ****    0 ROOT
