@<TRIPOS>MOLECULE
2PQ
   84    88     1     0     0
SMALL
bcc


@<TRIPOS>ATOM
      1 CAB         0.1060   -0.3240    0.2610 ca        1 2PQ     -0.116000
      2 CAC         1.4990   -0.2950    0.2420 ca        1 2PQ     -0.132000
      3 CAD         2.2060    0.1690    1.3510 ca        1 2PQ     -0.127000
      4 CAE         1.5150    0.6040    2.4820 ca        1 2PQ     -0.132000
      5 CAF         0.1220    0.5730    2.5070 ca        1 2PQ     -0.116000
      6 CAA        -0.5960    0.1090    1.3950 cp        1 2PQ     -0.041000
      7 CAJ        -2.0570    0.0780    1.4180 cp        1 2PQ     -0.018000
      8 CAK        -2.7420   -0.3190    2.5750 ca        1 2PQ     -0.133500
      9 CAL        -4.1330   -0.3470    2.5950 ca        1 2PQ     -0.087500
     10 CAI        -2.7930    0.4480    0.2820 ca        1 2PQ     -0.133500
     11 CAH        -4.1850    0.4120    0.3000 ca        1 2PQ     -0.087500
     12 CAG        -4.8650    0.0090    1.4550 ca        1 2PQ     -0.160600
     13 CBP        -6.3460   -0.0100    1.5100 c         1 2PQ      0.595300
     14 OBQ        -6.9430    0.3090    2.5490 o         1 2PQ     -0.543100
     15 CAP        -7.0760   -0.4170    0.2950 ca        1 2PQ     -0.214600
     16 CAO        -6.5140   -1.3020   -0.6360 ca        1 2PQ     -0.063000
     17 CAN        -7.2160   -1.6960   -1.7720 ca        1 2PQ     -0.117300
     18 CBM        -6.6130   -2.6450   -2.7470 c3        1 2PQ     -0.027100
     19 CBN        -6.0390   -1.9250   -3.9540 c3        1 2PQ     -0.077400
     20 CBO        -5.4280   -2.8970   -4.9300 c3        1 2PQ     -0.093100
     21 CAQ        -8.3720    0.0690    0.0850 ca        1 2PQ     -0.042000
     22 CAR        -9.0920   -0.3000   -1.0470 ca        1 2PQ     -0.224000
     23 CAM        -8.5200   -1.1790   -1.9770 ca        1 2PQ      0.167100
     24 OBL        -9.1470   -1.6080   -3.1220 os        1 2PQ     -0.319900
     25 CBK       -10.4690   -1.0940   -3.3560 c3        1 2PQ      0.131400
     26 CBJ       -10.9140   -1.6950   -4.6760 c3        1 2PQ     -0.127400
     27 CBI       -12.3540   -1.2660   -4.9670 c3        1 2PQ      0.195800
     28 NAX       -12.9280   -1.7200   -6.2170 nh        1 2PQ     -0.626000
     29 CAY       -13.4000   -3.0950   -6.1520 c3        1 2PQ      0.190800
     30 CAZ       -13.9880   -3.5920   -7.4650 c3        1 2PQ     -0.078400
     31 CBA       -12.9650   -3.4780   -8.5700 c3        1 2PQ     -0.017100
     32 CAV       -12.2800   -2.1590   -8.5630 ca        1 2PQ     -0.176300
     33 CAW       -12.2460   -1.3400   -7.4100 ca        1 2PQ      0.145600
     34 CBH       -11.5870   -0.0930   -7.4830 ca        1 2PQ     -0.233000
     35 CAT       -10.9960    0.3230   -8.6730 ca        1 2PQ     -0.085000
     36 CAS       -11.0140   -0.4720   -9.8100 ca        1 2PQ     -0.214000
     37 CAU       -11.6500   -1.7210   -9.7560 ca        1 2PQ      0.200100
     38 OBE       -11.7500   -2.6110  -10.7920 os        1 2PQ     -0.332900
     39 CBD       -10.9490   -2.4390  -11.9900 c3        1 2PQ      0.024800
     40 CBF        -9.4760   -2.5790  -11.6560 c3        1 2PQ     -0.086100
     41 CBG       -11.4060   -3.6060  -12.8620 c3        1 2PQ     -0.086100
     42 CBB       -11.2600   -1.1090  -12.7580 c         1 2PQ      0.905600
     43 OBR       -12.4300   -0.9410  -13.1880 o         1 2PQ     -0.819300
     44 OBC       -10.3020   -0.3040  -12.9310 o         1 2PQ     -0.819300
     45 HAB        -0.4480   -0.6950   -0.6150 ha        1 2PQ      0.137000
     46 HAC         2.0410   -0.6390   -0.6510 ha        1 2PQ      0.131500
     47 HAD         3.3050    0.1930    1.3340 ha        1 2PQ      0.130000
     48 HAE         2.0690    0.9730    3.3580 ha        1 2PQ      0.131500
     49 HAF        -0.4200    0.9220    3.3990 ha        1 2PQ      0.137000
     50 HAK        -2.1760   -0.6130    3.4710 ha        1 2PQ      0.138500
     51 HAL        -4.6730   -0.6420    3.5100 ha        1 2PQ      0.148500
     52 HAI        -2.2660    0.7750   -0.6270 ha        1 2PQ      0.138500
     53 HAH        -4.7540    0.7070   -0.5960 ha        1 2PQ      0.148500
     54 HAO        -5.5020   -1.7020   -0.4640 ha        1 2PQ      0.142000
     55 HBM        -7.4020   -3.3670   -3.0930 hc        1 2PQ      0.051200
     56 HBMA       -5.8040   -3.2410   -2.2470 hc        1 2PQ      0.051200
     57 HBN        -6.8600   -1.3480   -4.4570 hc        1 2PQ      0.045700
     58 HBNA       -5.2640   -1.1870   -3.6190 hc        1 2PQ      0.045700
     59 HBO        -5.0160   -2.3500   -5.8120 hc        1 2PQ      0.033700
     60 HBOA       -4.6000   -3.4730   -4.4510 hc        1 2PQ      0.033700
     61 HBOB       -6.1950   -3.6230   -5.2940 hc        1 2PQ      0.033700
     62 HAQ        -8.8200    0.7470    0.8300 ha        1 2PQ      0.149000
     63 HAR       -10.1040    0.1000   -1.1970 ha        1 2PQ      0.144000
     64 HBK       -10.4290    0.0250   -3.4130 h1        1 2PQ      0.038700
     65 HBKA      -11.1410   -1.4090   -2.5160 h1        1 2PQ      0.038700
     66 HBJ       -10.2360   -1.3460   -5.5000 hc        1 2PQ      0.071200
     67 HBJA      -10.8370   -2.8110   -4.6270 hc        1 2PQ      0.071200
     68 HBI       -13.0140   -1.6410   -4.1320 h1        1 2PQ      0.044200
     69 HBIA      -12.4080   -0.1410   -4.9540 h1        1 2PQ      0.044200
     70 HAY       -12.5720   -3.7970   -5.8390 h1        1 2PQ      0.020200
     71 HAYA      -14.1950   -3.1310   -5.3540 h1        1 2PQ      0.020200
     72 HAZ       -14.9000   -2.9950   -7.7270 hc        1 2PQ      0.043200
     73 HAZA      -14.3030   -4.6590   -7.3340 hc        1 2PQ      0.043200
     74 HBA       -12.1930   -4.2880   -8.4650 hc        1 2PQ      0.055200
     75 HBAA      -13.4660   -3.6330   -9.5660 hc        1 2PQ      0.055200
     76 HBH       -11.5430    0.5770   -6.6150 ha        1 2PQ      0.111000
     77 HAT       -10.5060    1.3070   -8.7130 ha        1 2PQ      0.119000
     78 HAS       -10.5560   -0.1160  -10.7510 ha        1 2PQ      0.203000
     79 HBF        -8.8830   -2.4370  -12.5910 hc        1 2PQ      0.033200
     80 HBFA       -9.1640   -1.7950  -10.9260 hc        1 2PQ      0.033200
     81 HBFB       -9.2610   -3.5850  -11.2240 hc        1 2PQ      0.033200
     82 HBG       -12.4770   -3.4560  -13.1410 hc        1 2PQ      0.033200
     83 HBGA      -11.2950   -4.5750  -12.3220 hc        1 2PQ      0.033200
     84 HBGB      -10.7850   -3.6220  -13.7880 hc        1 2PQ      0.033200
@<TRIPOS>BOND
     1    1    2 ar  
     2    1    6 ar  
     3    1   45 1   
     4    2    3 ar  
     5    2   46 1   
     6    3    4 ar  
     7    3   47 1   
     8    4    5 ar  
     9    4   48 1   
    10    5    6 ar  
    11    5   49 1   
    12    6    7 1   
    13    7    8 ar  
    14    7   10 ar  
    15    8    9 ar  
    16    8   50 1   
    17    9   12 ar  
    18    9   51 1   
    19   10   11 ar  
    20   10   52 1   
    21   11   12 ar  
    22   11   53 1   
    23   12   13 1   
    24   13   14 2   
    25   13   15 1   
    26   15   16 ar  
    27   15   21 ar  
    28   16   17 ar  
    29   16   54 1   
    30   17   18 1   
    31   17   23 ar  
    32   18   19 1   
    33   18   55 1   
    34   18   56 1   
    35   19   20 1   
    36   19   57 1   
    37   19   58 1   
    38   20   59 1   
    39   20   60 1   
    40   20   61 1   
    41   21   22 ar  
    42   21   62 1   
    43   22   23 ar  
    44   22   63 1   
    45   23   24 1   
    46   24   25 1   
    47   25   26 1   
    48   25   64 1   
    49   25   65 1   
    50   26   27 1   
    51   26   66 1   
    52   26   67 1   
    53   27   28 1   
    54   27   68 1   
    55   27   69 1   
    56   28   29 1   
    57   28   33 1   
    58   29   30 1   
    59   29   70 1   
    60   29   71 1   
    61   30   31 1   
    62   30   72 1   
    63   30   73 1   
    64   31   32 1   
    65   31   74 1   
    66   31   75 1   
    67   32   33 ar  
    68   32   37 ar  
    69   33   34 ar  
    70   34   35 ar  
    71   34   76 1   
    72   35   36 ar  
    73   35   77 1   
    74   36   37 ar  
    75   36   78 1   
    76   37   38 1   
    77   38   39 1   
    78   39   40 1   
    79   39   41 1   
    80   39   42 1   
    81   40   79 1   
    82   40   80 1   
    83   40   81 1   
    84   41   82 1   
    85   41   83 1   
    86   41   84 1   
    87   42   43 1   
    88   42   44 1   
@<TRIPOS>SUBSTRUCTURE
     1 2PQ         1 TEMP              0 ****  ****    0 ROOT
