@<TRIPOS>MOLECULE
2PQ
   84    77     1     0     0
SMALL
bcc


@<TRIPOS>ATOM
      1 CAB         1.2920   -1.4330    6.9750 c1        1 2PQ     -0.124000
      2 CAC         1.8760   -2.3740    7.8080 c1        1 2PQ     -0.127125
      3 CAD         2.6000   -1.9650    8.9080 c1        1 2PQ     -0.127125
      4 CAE         2.7420   -0.6140    9.1790 c1        1 2PQ     -0.127125
      5 CAF         2.1590    0.3250    8.3470 c1        1 2PQ     -0.127125
      6 CAA         1.4360   -0.0820    7.2480 c1        1 2PQ     -0.029500
      7 CAJ         0.8760    0.8930    6.3560 c1        1 2PQ     -0.029500
      8 CAK        -0.3510    1.4900    6.6560 c1        1 2PQ     -0.127125
      9 CAL        -0.8680    2.4800    5.8210 c1        1 2PQ     -0.127125
     10 CAI         1.5840    1.2850    5.2280 c1        1 2PQ     -0.124000
     11 CAH         1.0660    2.2820    4.3850 c1        1 2PQ     -0.095000
     12 CAG        -0.1550    2.8780    4.6800 c1        1 2PQ     -0.140000
     13 CBP        -0.6650    4.0270    3.8270 c2        1 2PQ      0.315000
     14 OBQ        -0.6910    5.1350    4.2730 o         1 2PQ     -0.303000
     15 CAP        -1.1110    3.7720    2.3850 c2        1 2PQ     -0.194000
     16 CAO        -2.3640    3.2160    2.1300 c2        1 2PQ     -0.048000
     17 CAN        -2.8090    3.0720    0.8140 c1        1 2PQ     -0.113000
     18 CBM        -4.2140    2.5050    0.5320 c2        1 2PQ     -0.116000
     19 CBN        -4.3530    1.1430    1.1900 c3        1 2PQ     -0.155000
     20 CBO        -5.4680    0.3440    0.4910 c3        1 2PQ     -0.211000
     21 CAQ        -0.2930    4.1880    1.3150 c1        1 2PQ     -0.055000
     22 CAR        -0.7360    4.0440   -0.0050 c1        1 2PQ     -0.223000
     23 CAM        -1.9840    3.4910   -0.2620 c2        1 2PQ      0.124000
     24 OBL        -2.4770    3.4210   -1.6130 os        1 2PQ     -0.209000
     25 CBK        -1.6590    2.6290   -2.5020 c3        1 2PQ     -0.025000
     26 CBJ        -2.5280    1.5760   -3.1870 c3        1 2PQ     -0.168000
     27 CBI        -1.6810    0.8070   -4.2280 c3        1 2PQ     -0.060000
     28 NAX        -1.3050   -0.5110   -3.6780 n3        1 2PQ     -0.214000
     29 CAY        -0.8520   -0.3530   -2.4210 c3        1 2PQ     -0.064000
     30 CAZ         0.5770   -0.0750   -2.2620 c3        1 2PQ     -0.185000
     31 CBA         1.4560   -0.9560   -2.8880 c3        1 2PQ     -0.104000
     32 CAV         0.9910   -1.5380   -4.2370 c2        1 2PQ     -0.157000
     33 CAW        -0.3840   -1.2350   -4.6730 c2        1 2PQ      0.033000
     34 CBH        -0.8660   -1.7680   -5.8520 c1        1 2PQ     -0.202000
     35 CAT        -0.0450   -2.6000   -6.6390 c1        1 2PQ     -0.127125
     36 CAS         1.2970   -2.8980   -6.2180 c1        1 2PQ     -0.127125
     37 CAU         1.7970   -2.3550   -5.0100 c1        1 2PQ      0.148000
     38 OBE         3.1930   -2.4980   -4.6820 os        1 2PQ     -0.216000
     39 CBD         3.6800   -3.8450   -4.7720 c3        1 2PQ      0.001000
     40 CBF         2.6660   -4.8220   -4.0580 c3        1 2PQ     -0.204500
     41 CBG         5.0370   -3.9340   -4.1030 c3        1 2PQ     -0.204500
     42 CBB         3.8060   -4.2220   -6.1710 c2        1 2PQ      0.325000
     43 OBR         4.2950   -3.4170   -6.9900 o         1 2PQ     -0.554000
     44 OBC         3.5570   -5.3850   -6.5200 o         1 2PQ     -0.554000
     45 HAB         0.7720   -1.7240    6.1890 ha        1 2PQ      0.137500
     46 HAC         1.7010   -3.3160    7.6690 ha        1 2PQ      0.142000
     47 HAD         2.9210   -2.6260    9.5510 ha        1 2PQ      0.142000
     48 HAE         3.2410   -0.3190    9.9900 ha        1 2PQ      0.142000
     49 HAF         2.2510    1.2600    8.5410 ha        1 2PQ      0.142000
     50 HAK        -0.8500    1.2110    7.4580 ha        1 2PQ      0.142000
     51 HAL        -1.7490    2.9080    6.0360 ha        1 2PQ      0.142000
     52 HAI         2.4410    0.8680    5.0220 ha        1 2PQ      0.137500
     53 HAH         1.5640    2.5570    3.5930 ha        1 2PQ      0.146000
     54 HAO        -2.9710    2.9830    2.8910 ha        1 2PQ      0.151000
     55 HBM        -4.3400    2.4140   -0.4330 ha        1 2PQ      0.097000
     56 HBMA       -4.8930    3.1150    0.8960 ha        1 2PQ      0.097000
     57 HBN        -3.5130    0.6600    1.1160 hc        1 2PQ      0.080500
     58 HBNA       -4.5820    1.2610    2.1440 hc        1 2PQ      0.080500
     59 HBO        -5.0870   -0.4920    0.1050 hc        1 2PQ      0.071333
     60 HBOA       -5.8670    0.8960   -0.2380 hc        1 2PQ      0.071333
     61 HBOB       -6.1560    0.1170    1.1370 hc        1 2PQ      0.071333
     62 HAQ         0.5910    4.5800    1.4980 ha        1 2PQ      0.142000
     63 HAR        -0.1910    4.4150   -0.7540 ha        1 2PQ      0.147000
     64 HBK        -0.9640    2.1970   -2.0020 h1        1 2PQ      0.082500
     65 HBKA       -1.2620    3.2070   -3.1750 h1        1 2PQ      0.082500
     66 HBJ        -3.2720    2.0120   -3.6330 hc        1 2PQ      0.100500
     67 HBJA       -2.8730    0.9470   -2.5140 hc        1 2PQ      0.100500
     68 HBI        -0.8640    1.3240   -4.4330 h1        1 2PQ      0.079000
     69 HBIA       -2.2000    0.6840   -5.0420 h1        1 2PQ      0.079000
     70 HAY        -1.0570   -1.1770   -1.9200 h1        1 2PQ      0.083000
     71 HAYA       -1.3460    0.3730   -2.0150 h1        1 2PQ      0.083000
     72 HAZ         0.7720   -0.0920   -1.3210 hc        1 2PQ      0.075000
     73 HAZA        0.7450    0.8120   -2.6310 hc        1 2PQ      0.075000
     74 HBA         1.6030   -1.7230   -2.2670 hc        1 2PQ      0.097000
     75 HBAA        2.3010   -0.4690   -3.0500 hc        1 2PQ      0.097000
     76 HBH        -1.7960   -1.5630   -6.1470 ha        1 2PQ      0.117000
     77 HAT        -0.3980   -3.0030   -7.4400 ha        1 2PQ      0.142000
     78 HAS         1.8740   -3.4860   -6.7740 ha        1 2PQ      0.142000
     79 HBF         3.1170   -5.6840   -3.8620 hc        1 2PQ      0.072667
     80 HBFA        2.3510   -4.4150   -3.2100 hc        1 2PQ      0.072667
     81 HBFB        1.8770   -4.9860   -4.6650 hc        1 2PQ      0.072667
     82 HBG         5.6380   -3.2710   -4.5000 hc        1 2PQ      0.072667
     83 HBGA        5.4030   -4.8180   -4.2330 hc        1 2PQ      0.072667
     84 HBGB        4.9440   -3.7590   -3.1530 hc        1 2PQ      0.072667
@<TRIPOS>BOND
     1    1    6 1   
     2    1   45 1   
     3    2    3 1   
     4    2   46 1   
     5    3   47 1   
     6    4    5 1   
     7    4   48 1   
     8    5   49 1   
     9    7   10 1   
    10    8    9 1   
    11    8   50 1   
    12    9   51 1   
    13   10   52 1   
    14   11   12 1   
    15   11   53 1   
    16   12   13 1   
    17   13   14 1   
    18   13   15 1   
    19   15   16 1   
    20   15   21 1   
    21   16   17 1   
    22   16   54 1   
    23   17   23 1   
    24   18   19 1   
    25   18   55 1   
    26   18   56 1   
    27   19   20 1   
    28   19   57 1   
    29   19   58 1   
    30   20   59 1   
    31   20   60 1   
    32   20   61 1   
    33   21   62 1   
    34   22   23 1   
    35   22   63 1   
    36   23   24 1   
    37   24   25 1   
    38   25   26 1   
    39   25   64 1   
    40   25   65 1   
    41   26   27 1   
    42   26   66 1   
    43   26   67 1   
    44   27   28 1   
    45   27   68 1   
    46   27   69 1   
    47   28   29 1   
    48   28   33 1   
    49   29   30 1   
    50   29   70 1   
    51   29   71 1   
    52   30   31 1   
    53   30   72 1   
    54   30   73 1   
    55   31   32 1   
    56   31   74 1   
    57   31   75 1   
    58   32   33 1   
    59   32   37 1   
    60   33   34 1   
    61   34   76 1   
    62   35   36 1   
    63   35   77 1   
    64   36   78 1   
    65   37   38 1   
    66   38   39 1   
    67   39   40 1   
    68   39   41 1   
    69   39   42 1   
    70   40   79 1   
    71   40   80 1   
    72   40   81 1   
    73   41   82 1   
    74   41   83 1   
    75   41   84 1   
    76   42   43 1   
    77   42   44 1   
@<TRIPOS>SUBSTRUCTURE
     1 2PQ         1 TEMP              0 ****  ****    0 ROOT
