@<TRIPOS>MOLECULE
2PR
   34    36     1     0     0
SMALL
bcc


@<TRIPOS>ATOM
      1 OP3         5.7410   -0.0220    0.6230 o         1 2PR     -0.930167
      2 P           4.3080    0.0420    1.0520 p5        1 2PR      1.330900
      3 OP1         3.8070   -0.9780    2.0330 o         1 2PR     -0.930167
      4 OP2         3.7030    1.4200    1.2340 o         1 2PR     -0.930167
      5 O5'         3.4250   -0.4130   -0.3880 os        1 2PR     -0.553200
      6 C5'         2.0750   -0.4890   -0.1980 c3        1 2PR      0.227400
      7 C4'         1.3710    0.7640   -0.7740 c3        1 2PR      0.051100
      8 O4'         0.1010    0.3850   -1.3700 os        1 2PR     -0.435600
      9 C3'         1.0910    1.8590    0.2740 c3        1 2PR      0.156100
     10 O3'         1.8330    3.0260    0.0050 oh        1 2PR     -0.671800
     11 C2'        -0.4040    2.1850    0.1320 c3        1 2PR     -0.130400
     12 C1'        -0.9800    1.0460   -0.7360 c3        1 2PR      0.253800
     13 N9         -1.7730    0.0720    0.0180 na        1 2PR     -0.268000
     14 C8         -1.2910   -1.0050    0.7970 cc        1 2PR      0.471700
     15 N7         -2.2600   -1.7870    1.3090 nd        1 2PR     -0.583100
     16 C5         -3.4600   -1.2270    0.8500 ca        1 2PR     -0.177200
     17 C6         -4.8160   -1.5550    0.9960 ca        1 2PR      0.487200
     18 N1         -5.7870   -0.8380    0.4180 nb        1 2PR     -0.772000
     19 C2         -5.4120    0.2770   -0.3350 ca        1 2PR      0.810900
     20 N2         -6.4690    1.0850   -0.8460 nh        1 2PR     -0.898500
     21 N3         -4.1260    0.7070   -0.5850 nb        1 2PR     -0.733000
     22 C4         -3.1670   -0.0450    0.0170 ca        1 2PR      0.440800
     23 H5'         1.6590   -1.3820   -0.7540 h1        1 2PR     -0.004800
     24 H5''        1.8270   -0.5960    0.8980 h1        1 2PR     -0.004800
     25 H4'         1.9800    1.1770   -1.6230 h1        1 2PR      0.081700
     26 H3'         1.3350    1.4910    1.3100 h1        1 2PR      0.103700
     27 HO3'        2.7450    2.8290    0.3240 ho        1 2PR      0.501000
     28 H2'        -0.8940    2.2650    1.1290 hc        1 2PR      0.054700
     29 H2''       -0.5400    3.1540   -0.4080 hc        1 2PR      0.054700
     30 H1'        -1.6510    1.4340   -1.5580 h2        1 2PR      0.070700
     31 H8         -0.1990   -1.1460    0.9310 h5        1 2PR      0.128800
     32 H6         -5.1390   -2.4270    1.5910 h4        1 2PR      0.022100
     33 HN21       -7.2970    0.5630   -1.0400 hn        1 2PR      0.387300
     34 HN22       -6.1890    1.6530   -1.6170 hn        1 2PR      0.387300
@<TRIPOS>BOND
     1    1    2 1   
     2    2    3 1   
     3    2    4 1   
     4    2    5 1   
     5    5    6 1   
     6    6    7 1   
     7    6   23 1   
     8    6   24 1   
     9    7    8 1   
    10    7    9 1   
    11    7   25 1   
    12    8   12 1   
    13    9   10 1   
    14    9   11 1   
    15    9   26 1   
    16   10   27 1   
    17   11   12 1   
    18   11   28 1   
    19   11   29 1   
    20   12   13 1   
    21   12   30 1   
    22   13   14 1   
    23   13   22 1   
    24   14   15 2   
    25   14   31 1   
    26   15   16 1   
    27   16   17 ar  
    28   16   22 ar  
    29   17   18 ar  
    30   17   32 1   
    31   18   19 ar  
    32   19   20 1   
    33   19   21 ar  
    34   20   33 1   
    35   20   34 1   
    36   21   22 ar  
@<TRIPOS>SUBSTRUCTURE
     1 2PR         1 TEMP              0 ****  ****    0 ROOT
