@<TRIPOS>MOLECULE
2PR
   34    32     1     0     0
SMALL
bcc


@<TRIPOS>ATOM
      1 OP3        -3.6770   -5.2930   -0.4770 o         1 2PR     -0.930167
      2 P          -2.2600   -5.0260   -0.1450 p5        1 2PR      1.330900
      3 OP1        -2.0220   -5.3190    1.3460 o         1 2PR     -0.930167
      4 OP2        -1.3560   -5.9280   -0.9950 o         1 2PR     -0.930167
      5 O5'        -1.9200   -3.4840   -0.4520 os        1 2PR     -0.553200
      6 C5'        -0.6110   -3.0160   -0.1860 c3        1 2PR      0.227400
      7 C4'        -0.3740   -1.7180   -0.9380 c3        1 2PR      0.051100
      8 O4'        -0.8020   -0.7250   -0.2450 os        1 2PR     -0.435600
      9 C3'         1.2250   -1.4730   -1.1450 c3        1 2PR      0.156100
     10 O3'         1.7070   -2.2150   -2.3630 oh        1 2PR     -0.671800
     11 C2'         1.3660   -0.2670   -1.3090 c3        1 2PR     -0.130400
     12 C1'         0.1490    0.3980   -0.5590 c3        1 2PR      0.253800
     13 N9          0.5600    0.9740    0.5450 n3        1 2PR     -0.111400
     14 C8          1.1100    0.4740    1.6860 c1        1 2PR      0.236400
     15 N7          1.2240    1.4930    2.5750 ne        1 2PR     -0.428400
     16 C5          0.7420    2.6290    1.9810 cg        1 2PR     -0.134000
     17 C6          0.6160    3.9390    2.4340 c1        1 2PR      0.405300
     18 N1          0.0880    4.8820    1.6270 n1        1 2PR     -0.571800
     19 C2         -0.3230    4.5520    0.3640 c1        1 2PR      0.473600
     20 N2         -1.1210    5.6170   -0.2700 n3        1 2PR     -0.761400
     21 N3         -0.2000    3.2670   -0.0820 n1        1 2PR     -0.532800
     22 C4          0.3350    2.3060    0.7320 c1        1 2PR     -0.005300
     23 H5'        -0.5070   -2.8510    0.8140 h1        1 2PR     -0.004800
     24 H5''        0.0300   -3.6760   -0.4720 h1        1 2PR     -0.004800
     25 H4'        -0.8480   -1.7450   -1.8520 h1        1 2PR      0.081700
     26 H3'         1.7280   -1.7720   -0.3360 h1        1 2PR      0.103700
     27 HO3'        2.4330   -2.6750   -2.1600 ho        1 2PR      0.501000
     28 H2'         1.3360   -0.0390   -2.3000 hc        1 2PR      0.054700
     29 H2''        2.2180    0.0330   -0.9130 hc        1 2PR      0.054700
     30 H1'        -0.2960    1.0710   -1.1550 h2        1 2PR      0.070700
     31 H8          1.2770   -0.4990    1.8800 DU        1 2PR      0.258000
     32 H6          0.9100    4.1760    3.3380 ha        1 2PR      0.101500
     33 HN21       -1.5310    5.4660   -1.1100 hn        1 2PR      0.387300
     34 HN22       -1.2050    6.4420    0.1450 hn        1 2PR      0.387300
@<TRIPOS>BOND
     1    1    2 1   
     2    2    3 1   
     3    2    4 1   
     4    2    5 1   
     5    5    6 1   
     6    6    7 1   
     7    6   23 1   
     8    6   24 1   
     9    7    8 1   
    10    7    9 1   
    11    7   25 1   
    12    8   12 1   
    13    9   10 1   
    14    9   11 1   
    15    9   26 1   
    16   10   27 1   
    17   11   12 1   
    18   11   28 1   
    19   11   29 1   
    20   12   13 1   
    21   12   30 1   
    22   13   14 2   
    23   13   22 1   
    24   14   15 2   
    25   15   16 1   
    26   16   22 3   
    27   17   18 3   
    28   17   32 1   
    29   19   20 1   
    30   19   21 3   
    31   20   33 1   
    32   20   34 1   
@<TRIPOS>SUBSTRUCTURE
     1 2PR         1 TEMP              0 ****  ****    0 ROOT
