@<TRIPOS>MOLECULE
2PS
   43    44     1     0     0
SMALL
bcc


@<TRIPOS>ATOM
      1 C1          2.4700   -0.3730    0.2800 c3        1 2PS     -0.070400
      2 C9          1.1000   -0.3140    0.9750 c3        1 2PS      0.172500
      3 C32         0.1380   -1.2190    0.1800 c3        1 2PS     -0.099400
      4 C33        -1.2790   -1.1610    0.7030 c3        1 2PS     -0.366600
      5 S34        -2.4050   -1.8010   -0.3850 s6        1 2PS      1.585500
      6 O37        -2.2130   -1.3290   -1.6670 o         1 2PS     -0.637800
      7 O36        -2.6410   -3.1340   -0.1340 o         1 2PS     -0.637800
      8 O35        -3.8250   -1.0690    0.1670 os        1 2PS     -0.474800
      9 N10         1.1880   -0.6000    2.3920 n3        1 2PS     -0.904800
     10 C2          3.4200    0.6800    0.8150 c3        1 2PS     -0.034100
     11 C3          4.7120    0.6670    0.0740 ca        1 2PS     -0.081300
     12 C4          4.9840    1.6340   -0.9000 ca        1 2PS     -0.128000
     13 C5          6.1980    1.6210   -1.5850 ca        1 2PS     -0.128000
     14 C6          7.1510    0.6440   -1.3020 ca        1 2PS     -0.132000
     15 C7          6.8870   -0.3220   -0.3310 ca        1 2PS     -0.128000
     16 C8          5.6740   -0.3110    0.3540 ca        1 2PS     -0.128000
     17 C36        -4.0650    0.2790    0.1090 ca        1 2PS      0.131100
     18 C37        -4.0840    0.9580   -1.1200 ca        1 2PS     -0.154500
     19 C38        -4.4140    2.3110   -1.1350 ca        1 2PS     -0.111500
     20 C39        -4.7260    2.9770    0.0510 ca        1 2PS     -0.139000
     21 C40        -4.7110    2.2900    1.2660 ca        1 2PS     -0.111500
     22 C41        -4.3790    0.9380    1.3080 ca        1 2PS     -0.154500
     23 H11         2.9230   -1.3900    0.4050 hc        1 2PS      0.047700
     24 H12         2.3120   -0.2070   -0.8190 hc        1 2PS      0.047700
     25 H91         0.7120    0.7470    0.8920 h1        1 2PS      0.061700
     26 H321        0.1510   -0.8800   -0.8920 hc        1 2PS      0.064200
     27 H322        0.5110   -2.2760    0.2110 hc        1 2PS      0.064200
     28 H331       -1.3300   -1.7090    1.6840 h1        1 2PS      0.125700
     29 H332       -1.5190   -0.0900    0.9570 h1        1 2PS      0.125700
     30 H10         0.2760   -0.6110    2.8040 hn        1 2PS      0.349300
     31 H21A        2.9390    1.6920    0.7320 hc        1 2PS      0.057700
     32 H22         3.6150    0.4970    1.9060 hc        1 2PS      0.057700
     33 H41         4.2360    2.4090   -1.1250 ha        1 2PS      0.130000
     34 H51         6.4040    2.3850   -2.3490 ha        1 2PS      0.130500
     35 H61         8.1090    0.6340   -1.8420 ha        1 2PS      0.131000
     36 H71         7.6370   -1.0940   -0.1040 ha        1 2PS      0.130500
     37 H81         5.4680   -1.0710    1.1220 ha        1 2PS      0.130000
     38 H371       -3.8340    0.4240   -2.0510 ha        1 2PS      0.157500
     39 H381       -4.4310    2.8540   -2.0920 ha        1 2PS      0.138500
     40 H391       -4.9890    4.0450    0.0290 ha        1 2PS      0.137000
     41 H401       -4.9660    2.8160    2.1990 ha        1 2PS      0.138500
     42 H411       -4.3830    0.3800    2.2540 ha        1 2PS      0.157500
     43 H2          1.6340   -1.4810    2.5550 hn        1 2PS      0.349300
@<TRIPOS>BOND
     1    1    2 1   
     2    1   10 1   
     3    1   23 1   
     4    1   24 1   
     5    2    3 1   
     6    2    9 1   
     7    2   25 1   
     8    3    4 1   
     9    3   26 1   
    10    3   27 1   
    11    4    5 1   
    12    4   28 1   
    13    4   29 1   
    14    5    6 2   
    15    5    7 2   
    16    5    8 1   
    17    8   17 1   
    18    9   30 1   
    19    9   43 1   
    20   10   11 1   
    21   10   31 1   
    22   10   32 1   
    23   11   12 ar  
    24   11   16 ar  
    25   12   13 ar  
    26   12   33 1   
    27   13   14 ar  
    28   13   34 1   
    29   14   15 ar  
    30   14   35 1   
    31   15   16 ar  
    32   15   36 1   
    33   16   37 1   
    34   17   18 ar  
    35   17   22 ar  
    36   18   19 ar  
    37   18   38 1   
    38   19   20 ar  
    39   19   39 1   
    40   20   21 ar  
    41   20   40 1   
    42   21   22 ar  
    43   21   41 1   
    44   22   42 1   
@<TRIPOS>SUBSTRUCTURE
     1 2PS         1 TEMP              0 ****  ****    0 ROOT
