@<TRIPOS>MOLECULE
2PS
   43    39     1     0     0
SMALL
bcc


@<TRIPOS>ATOM
      1 C1         -1.6550    0.7970   -1.2830 c3        1 2PS     -0.198000
      2 C9         -0.1440    0.7660   -1.3040 c3        1 2PS     -0.027000
      3 C32         0.3790    0.6790    0.1130 c3        1 2PS     -0.121000
      4 C33         1.8930    0.6520    0.0910 c3        1 2PS     -0.887000
      5 S34         2.4960    0.0640    1.6530 s4        1 2PS      2.024800
      6 O37         2.9580    1.2060    2.5270 o         1 2PS     -0.542400
      7 O36         1.3790   -0.5130    2.4900 o         1 2PS     -0.542400
      8 O35         3.5970   -0.9430    1.4410 o         1 2PS     -0.651000
      9 N10         0.2960   -0.3680   -2.0420 n3        1 2PS     -0.341000
     10 C2         -2.1680    1.3070   -2.6130 c3        1 2PS     -0.123000
     11 C3         -3.6820    1.3130   -2.6010 c2        1 2PS     -0.076000
     12 C4         -4.3670    2.4920   -2.3510 c2        1 2PS     -0.126000
     13 C5         -5.7520    2.5130   -2.4050 c1        1 2PS     -0.127000
     14 C6         -6.4510    1.3560   -2.7080 c1        1 2PS     -0.126500
     15 C7         -5.7660    0.1780   -2.9580 c1        1 2PS     -0.126500
     16 C8         -4.3810    0.1560   -2.9040 c1        1 2PS     -0.127000
     17 C36         4.0930   -1.5670    2.5990 c2        1 2PS      0.096000
     18 C37         5.3680   -1.2690    3.0530 c2        1 2PS     -0.134000
     19 C38         5.9000   -1.9610    4.1300 c1        1 2PS     -0.115000
     20 C39         5.1580   -2.9520    4.7520 c1        1 2PS     -0.126500
     21 C40         3.8830   -3.2500    4.2990 c1        1 2PS     -0.126500
     22 C41         3.3500   -2.5580    3.2220 c1        1 2PS     -0.167000
     23 H11        -1.9580    1.3910   -0.5670 hc        1 2PS      0.092000
     24 H12        -1.9980   -0.1060   -1.1250 hc        1 2PS      0.092000
     25 H91         0.1930    1.5800   -1.7270 h1        1 2PS      0.100000
     26 H321        0.0440   -0.1370    0.5350 hc        1 2PS      0.098000
     27 H322        0.0740    1.4580    0.6210 hc        1 2PS      0.098000
     28 H331        2.1980    0.0550   -0.6220 h1        1 2PS      0.185500
     29 H332        2.2330    1.5540   -0.0710 h1        1 2PS      0.185500
     30 H10        -0.3940   -0.9640   -2.1260 hn        1 2PS      0.147500
     31 H21A       -1.8500    0.7230   -3.3310 hc        1 2PS      0.086000
     32 H22        -1.8390    2.2160   -2.7630 hc        1 2PS      0.086000
     33 H41        -3.8740    3.3070   -2.1380 ha        1 2PS      0.131000
     34 H51        -6.2340    3.3440   -2.2290 ha        1 2PS      0.132000
     35 H61        -7.4270    1.3710   -2.7460 ha        1 2PS      0.133500
     36 H71        -6.2590   -0.6380   -3.1720 ha        1 2PS      0.133500
     37 H81        -3.8990   -0.6740   -3.0800 ha        1 2PS      0.130000
     38 H371        5.8920   -0.5710    2.6150 ha        1 2PS      0.148000
     39 H381        6.7980   -1.7510    4.4490 ha        1 2PS      0.135000
     40 H391        5.5330   -3.4390    5.5100 ha        1 2PS      0.133500
     41 H401        3.3590   -3.9480    4.7370 ha        1 2PS      0.133500
     42 H411        2.4520   -2.7680    2.9030 ha        1 2PS      0.162000
     43 H2          0.5730   -0.1020   -2.8730 hn        1 2PS      0.147500
@<TRIPOS>BOND
     1    1    2 1   
     2    1   10 1   
     3    1   23 1   
     4    1   24 1   
     5    2    3 1   
     6    2    9 1   
     7    2   25 1   
     8    3    4 1   
     9    3   26 1   
    10    3   27 1   
    11    4    5 1   
    12    4   28 1   
    13    4   29 1   
    14    5    6 1   
    15    5    7 1   
    16    8   17 1   
    17    9   30 1   
    18    9   43 1   
    19   10   11 1   
    20   10   31 1   
    21   10   32 1   
    22   11   12 1   
    23   11   16 1   
    24   12   13 1   
    25   12   33 1   
    26   13   34 1   
    27   14   15 1   
    28   14   35 1   
    29   15   36 1   
    30   16   37 1   
    31   17   18 1   
    32   17   22 1   
    33   18   19 1   
    34   18   38 1   
    35   19   39 1   
    36   20   21 1   
    37   20   40 1   
    38   21   41 1   
    39   22   42 1   
@<TRIPOS>SUBSTRUCTURE
     1 2PS         1 TEMP              0 ****  ****    0 ROOT
