@<TRIPOS>MOLECULE
2PU
   49    53     1     0     0
SMALL
bcc


@<TRIPOS>ATOM
      1 C1         -0.3480   -0.3000   -3.4710 ca        1 2PU     -0.138300
      2 C2          1.0610   -0.4760   -3.9860 c3        1 2PU      0.089000
      3 C3         -1.1940    0.0290   -4.5570 ca        1 2PU     -0.139600
      4 C4         -0.8670   -0.4640   -2.1810 ca        1 2PU      0.079600
      5 N5          0.9840   -0.2580   -5.4600 n         1 2PU     -0.392800
      6 C6          2.0920    0.5110   -3.4090 c3        1 2PU     -0.095400
      7 C7         -0.3530    0.1600   -5.7850 c         1 2PU      0.682100
      8 C8         -2.5530    0.2080   -4.3900 ca        1 2PU     -0.077000
      9 C9         -2.2660   -0.2810   -2.0170 ca        1 2PU     -0.112000
     10 N10        -0.0110   -0.8580   -1.1370 n         1 2PU     -0.463100
     11 C11         2.0930    0.5930   -5.8680 c3        1 2PU      0.051000
     12 C12         2.7520    1.1860   -4.6080 c3        1 2PU     -0.100400
     13 O13        -0.7160    0.5260   -6.9070 o         1 2PU     -0.575500
     14 C14        -3.0750    0.0480   -3.0980 ca        1 2PU     -0.123000
     15 C15        -0.2280   -0.5140    0.2180 c         1 2PU      0.765100
     16 N16         0.8560   -0.7310    1.1060 n         1 2PU     -0.501400
     17 O17        -1.3050   -0.0150    0.6060 o         1 2PU     -0.603100
     18 C18         0.6230   -0.7640    2.4910 cc        1 2PU      0.394200
     19 C19        -0.3200    0.0550    3.2310 cc        1 2PU     -0.277300
     20 N20         1.3430   -1.5610    3.3700 nd        1 2PU     -0.560800
     21 C21        -0.1090   -0.2950    4.5770 cd        1 2PU     -0.090600
     22 N22         0.9060   -1.2540    4.5850 na        1 2PU      0.020400
     23 C23        -0.8150    0.2360    5.7830 c3        1 2PU      0.229800
     24 C24        -0.4340    1.7210    6.0190 c3        1 2PU     -0.092400
     25 N25        -0.5150   -0.5270    7.0030 n3        1 2PU     -0.820200
     26 C26         0.0980    1.8030    7.4420 c3        1 2PU     -0.101400
     27 C27         0.1350    0.3580    7.9640 c3        1 2PU      0.149800
     28 H2          1.4000   -1.5370   -3.8220 h1        1 2PU      0.082700
     29 H61         2.8460   -0.0380   -2.7940 hc        1 2PU      0.054700
     30 H62         1.5930    1.2650   -2.7520 hc        1 2PU      0.054700
     31 H8         -3.2010    0.4670   -5.2400 ha        1 2PU      0.156000
     32 H9         -2.7180   -0.3920   -1.0170 ha        1 2PU      0.176000
     33 H10         0.9290   -1.0320   -1.4270 hn        1 2PU      0.311500
     34 H111        2.8260   -0.0570   -6.4210 h1        1 2PU      0.066200
     35 H112        1.7450    1.4000   -6.5690 h1        1 2PU      0.066200
     36 H121        3.8520    0.9920   -4.6220 hc        1 2PU      0.054700
     37 H122        2.6000    2.2920   -4.5730 hc        1 2PU      0.054700
     38 H14        -4.1550    0.1830   -2.9340 ha        1 2PU      0.142000
     39 H16         1.5920   -1.3320    0.7960 hn        1 2PU      0.312500
     40 H19        -1.0360    0.7520    2.8110 ha        1 2PU      0.190000
     41 H22         1.2670   -1.7280    5.3820 hn        1 2PU      0.336700
     42 H23        -1.9200    0.1740    5.5450 h1        1 2PU      0.061700
     43 H241        0.3350    2.0530    5.2800 hc        1 2PU      0.059700
     44 H242       -1.3360    2.3680    5.8870 hc        1 2PU      0.059700
     45 H25        -1.3580   -0.9130    7.3810 hn        1 2PU      0.364800
     46 H261        1.1200    2.2530    7.4660 hc        1 2PU      0.051200
     47 H262       -0.5660    2.4340    8.0820 hc        1 2PU      0.051200
     48 H271        1.2010    0.0130    8.0670 h1        1 2PU      0.047200
     49 H272       -0.3450    0.2880    8.9770 h1        1 2PU      0.047200
@<TRIPOS>BOND
     1    1    2 1   
     2    1    3 ar  
     3    1    4 ar  
     4    2    5 1   
     5    2    6 1   
     6    2   28 1   
     7    3    7 1   
     8    3    8 ar  
     9    4    9 ar  
    10    4   10 1   
    11    5    7 1   
    12    5   11 1   
    13    6   12 1   
    14    6   29 1   
    15    6   30 1   
    16    7   13 2   
    17    8   14 ar  
    18    8   31 1   
    19    9   14 ar  
    20    9   32 1   
    21   10   15 1   
    22   10   33 1   
    23   11   12 1   
    24   11   34 1   
    25   11   35 1   
    26   12   36 1   
    27   12   37 1   
    28   14   38 1   
    29   15   16 1   
    30   15   17 2   
    31   16   18 1   
    32   16   39 1   
    33   18   19 1   
    34   18   20 2   
    35   19   21 2   
    36   19   40 1   
    37   20   22 1   
    38   21   22 1   
    39   21   23 1   
    40   22   41 1   
    41   23   24 1   
    42   23   25 1   
    43   23   42 1   
    44   24   26 1   
    45   24   43 1   
    46   24   44 1   
    47   25   27 1   
    48   25   45 1   
    49   26   27 1   
    50   26   46 1   
    51   26   47 1   
    52   27   48 1   
    53   27   49 1   
@<TRIPOS>SUBSTRUCTURE
     1 2PU         1 TEMP              0 ****  ****    0 ROOT
