@<TRIPOS>MOLECULE
2PU
   49    53     1     0     0
SMALL
bcc


@<TRIPOS>ATOM
      1 C1          0.0740    0.0600    0.1150 ca        1 2PU     -0.138300
      2 C2          1.5320    0.0620   -0.2810 c3        1 2PU      0.089000
      3 C3         -0.0270    0.3670    1.4920 ca        1 2PU     -0.139600
      4 C4         -1.0740   -0.1380   -0.6630 ca        1 2PU      0.079600
      5 N5          2.2860    0.4230    0.9550 n         1 2PU     -0.392800
      6 C6          2.0690   -1.2860   -0.7950 c3        1 2PU     -0.095400
      7 C7          1.3550    0.4920    2.0480 c         1 2PU      0.682100
      8 C8         -1.2500    0.4750    2.1240 ca        1 2PU     -0.077000
      9 C9         -2.3290   -0.0210   -0.0070 ca        1 2PU     -0.112000
     10 N10        -0.9420   -0.3720   -2.0440 ns        1 2PU     -0.463100
     11 C11         3.4350   -0.4620    1.0800 c3        1 2PU      0.051000
     12 C12         3.2840   -1.6150    0.0690 c3        1 2PU     -0.100400
     13 O13         1.6750    0.6600    3.2290 o         1 2PU     -0.575500
     14 C14        -2.4020    0.2750    1.3480 ca        1 2PU     -0.123000
     15 C15        -1.8740   -1.1230   -2.7970 c         1 2PU      0.765100
     16 N16        -1.4660   -1.5140   -4.0970 ns        1 2PU     -0.501400
     17 O17        -2.9860   -1.4510   -2.3310 o         1 2PU     -0.603100
     18 C18        -2.4280   -1.9330   -5.0310 cc        1 2PU      0.394200
     19 C19        -3.6230   -2.7090   -4.7560 cc        1 2PU     -0.277300
     20 N20        -2.3180   -1.7110   -6.3970 nd        1 2PU     -0.560800
     21 C21        -4.1960   -2.9360   -6.0200 cd        1 2PU     -0.090600
     22 N22        -3.3560   -2.3240   -6.9530 na        1 2PU      0.020400
     23 C23        -5.4510   -3.6830   -6.3370 c3        1 2PU      0.229800
     24 C24        -5.2590   -5.1980   -6.0710 c3        1 2PU     -0.092400
     25 N25        -5.8880   -3.5000   -7.7290 n7        1 2PU     -0.820200
     26 C26        -5.6190   -5.9070   -7.3690 c3        1 2PU     -0.101400
     27 C27        -5.8880   -4.7970   -8.3970 c3        1 2PU      0.149800
     28 H2          1.7230    0.8750   -1.0380 h1        1 2PU      0.082700
     29 H61         1.2890   -2.0810   -0.7060 hc        1 2PU      0.054700
     30 H62         2.3540   -1.1990   -1.8710 hc        1 2PU      0.054700
     31 H8         -1.3170    0.7100    3.1960 ha        1 2PU      0.156000
     32 H9         -3.2600   -0.1760   -0.5780 ha        1 2PU      0.176000
     33 H10         0.0010   -0.3390   -2.3720 hn        1 2PU      0.311500
     34 H111        3.5340   -0.8470    2.1310 h1        1 2PU      0.066200
     35 H112        4.3510    0.1450    0.8420 h1        1 2PU      0.066200
     36 H121        3.1380   -2.5850    0.6040 hc        1 2PU      0.054700
     37 H122        4.2070   -1.7030   -0.5550 hc        1 2PU      0.054700
     38 H14        -3.3910    0.3560    1.8240 ha        1 2PU      0.142000
     39 H16        -0.6820   -1.0400   -4.4960 hn        1 2PU      0.312500
     40 H19        -3.9860   -3.0100   -3.7780 ha        1 2PU      0.190000
     41 H22        -3.4990   -2.2740   -7.9360 hn        1 2PU      0.336700
     42 H23        -6.2350   -3.2810   -5.6250 h1        1 2PU      0.061700
     43 H241       -5.9250   -5.5230   -5.2350 hc        1 2PU      0.060200
     44 H242       -4.2050   -5.4150   -5.7710 hc        1 2PU      0.060200
     45 H25        -6.7990   -3.0840   -7.7500 hn        1 2PU      0.364800
     46 H261       -4.7850   -6.5660   -7.7140 hc        1 2PU      0.051200
     47 H262       -6.5260   -6.5470   -7.2370 hc        1 2PU      0.051200
     48 H271       -6.8540   -4.9810   -8.9380 h1        1 2PU      0.047200
     49 H272       -5.0650   -4.7760   -9.1640 h1        1 2PU      0.047200
@<TRIPOS>BOND
     1    1    2 1   
     2    1    3 ar  
     3    1    4 ar  
     4    2    5 1   
     5    2    6 1   
     6    2   28 1   
     7    3    7 1   
     8    3    8 ar  
     9    4    9 ar  
    10    4   10 1   
    11    5    7 1   
    12    5   11 1   
    13    6   12 1   
    14    6   29 1   
    15    6   30 1   
    16    7   13 2   
    17    8   14 ar  
    18    8   31 1   
    19    9   14 ar  
    20    9   32 1   
    21   10   15 1   
    22   10   33 1   
    23   11   12 1   
    24   11   34 1   
    25   11   35 1   
    26   12   36 1   
    27   12   37 1   
    28   14   38 1   
    29   15   16 1   
    30   15   17 2   
    31   16   18 1   
    32   16   39 1   
    33   18   19 1   
    34   18   20 2   
    35   19   21 2   
    36   19   40 1   
    37   20   22 1   
    38   21   22 1   
    39   21   23 1   
    40   22   41 1   
    41   23   24 1   
    42   23   25 1   
    43   23   42 1   
    44   24   26 1   
    45   24   43 1   
    46   24   44 1   
    47   25   27 1   
    48   25   45 1   
    49   26   27 1   
    50   26   46 1   
    51   26   47 1   
    52   27   48 1   
    53   27   49 1   
@<TRIPOS>SUBSTRUCTURE
     1 2PU         1 TEMP              0 ****  ****    0 ROOT
