@<TRIPOS>MOLECULE
2PU
   49    47     1     0     0
SMALL
bcc


@<TRIPOS>ATOM
      1 C1          1.1490    0.9780    3.7230 c1        1 2PU     -0.129000
      2 C2          0.7460    2.4750    3.6690 c2        1 2PU      0.005000
      3 C3          1.1730    0.6120    5.0030 c2        1 2PU     -0.120000
      4 C4          1.3480    0.0180    2.7150 c1        1 2PU      0.085000
      5 N5          0.5880    2.9180    4.9140 n         1 2PU     -0.251000
      6 C6          1.9080    3.3470    3.0600 c3        1 2PU     -0.176000
      7 C7          0.8480    1.8120    5.8240 c2        1 2PU      0.319000
      8 C8          1.3940   -0.7190    5.3440 c1        1 2PU     -0.076000
      9 C9          1.5640   -1.2850    3.0500 c1        1 2PU     -0.117000
     10 N10         1.3170    0.3900    1.3140 n         1 2PU     -0.316000
     11 C11         1.0680    4.4370    4.9060 c3        1 2PU     -0.065000
     12 C12         2.1270    4.4970    4.0610 c3        1 2PU     -0.179000
     13 O13         0.7370    1.8390    7.0030 o         1 2PU     -0.300000
     14 C14         1.5880   -1.6570    4.3600 c1        1 2PU     -0.117000
     15 C15         0.6600   -0.4430    0.3730 c2        1 2PU      0.391000
     16 N16         0.6520   -0.0930   -0.9970 n         1 2PU     -0.268000
     17 O17         0.1340   -1.4490    0.7330 o         1 2PU     -0.363000
     18 C18        -0.0050   -0.9730   -1.9740 c2        1 2PU     -0.014000
     19 C19        -0.4780   -0.6000   -3.2190 c1        1 2PU     -0.211000
     20 N20        -0.2080   -2.2980   -1.8330 n2        1 2PU     -0.129000
     21 C21        -0.9710   -1.7160   -3.8340 c1        1 2PU     -0.059000
     22 N22        -0.8090   -2.7670   -2.9870 n2        1 2PU     -0.124000
     23 C23        -1.5690   -1.7810   -5.2620 c2        1 2PU      0.025000
     24 C24        -3.1850   -1.8160   -5.1890 c3        1 2PU     -0.172000
     25 N25        -1.2140   -2.8560   -5.8340 n3        1 2PU     -0.298000
     26 C26        -3.5790   -2.3390   -6.2830 c3        1 2PU     -0.180000
     27 C27        -2.4150   -3.2430   -6.7330 c3        1 2PU     -0.087000
     28 H2         -0.0570    2.5900    3.1690 h4        1 2PU      0.124000
     29 H61         1.6390    3.7090    2.1680 hc        1 2PU      0.093500
     30 H62         2.6970    2.8280    2.9790 hc        1 2PU      0.093500
     31 H8          1.4120   -0.9880    6.2920 ha        1 2PU      0.156000
     32 H9          1.7070   -1.9750    2.3260 ha        1 2PU      0.158500
     33 H10         1.7540    1.1450    1.0310 hn        1 2PU      0.224000
     34 H111        1.3400    4.7040    5.8020 h1        1 2PU      0.106000
     35 H112        0.3570    5.0080    4.5900 h1        1 2PU      0.106000
     36 H121        2.9970    4.3590    4.5720 hc        1 2PU      0.094000
     37 H122        2.1390    5.3470    3.5990 hc        1 2PU      0.094000
     38 H14         1.7460   -2.6190    4.6060 ha        1 2PU      0.158500
     39 H16         0.9920    0.6970   -1.2610 hn        1 2PU      0.226000
     40 H19        -0.4620    0.2810   -3.5830 DU        1 2PU      0.238500
     41 H22        -1.0530   -3.6260   -3.1490 DU        1 2PU      0.238500
     42 H23        -1.2720   -1.0050   -5.7870 h4        1 2PU      0.100000
     43 H241       -3.4710   -2.3490   -4.4510 hc        1 2PU      0.100500
     44 H242       -3.5410   -0.8940   -5.1030 hc        1 2PU      0.100500
     45 H25        -0.5110   -2.7030   -6.3350 hn        1 2PU      0.159000
     46 H261       -4.3890   -2.8730   -6.1340 hc        1 2PU      0.091000
     47 H262       -3.7440   -1.6530   -6.9430 hc        1 2PU      0.091000
     48 H271       -2.1960   -3.0720   -7.6950 h1        1 2PU      0.086500
     49 H272       -2.6500   -4.1970   -6.6010 h1        1 2PU      0.086500
@<TRIPOS>BOND
     1    1    3 1   
     2    1    4 1   
     3    2    5 1   
     4    2    6 1   
     5    2   28 1   
     6    3    7 1   
     7    3    8 1   
     8    4   10 1   
     9    5    7 1   
    10    5   11 1   
    11    6   12 1   
    12    6   29 1   
    13    6   30 1   
    14    7   13 1   
    15    8   31 1   
    16    9   14 1   
    17    9   32 1   
    18   10   15 1   
    19   10   33 1   
    20   11   12 1   
    21   11   34 1   
    22   11   35 1   
    23   12   36 1   
    24   12   37 1   
    25   14   38 1   
    26   15   16 1   
    27   15   17 1   
    28   16   18 1   
    29   16   39 1   
    30   18   19 1   
    31   18   20 1   
    32   19   21 1   
    33   20   22 1   
    34   21   22 1   
    35   23   24 1   
    36   23   25 1   
    37   23   42 1   
    38   24   26 1   
    39   24   43 1   
    40   24   44 1   
    41   25   27 1   
    42   25   45 1   
    43   26   27 1   
    44   26   46 1   
    45   26   47 1   
    46   27   48 1   
    47   27   49 1   
@<TRIPOS>SUBSTRUCTURE
     1 2PU         1 TEMP              0 ****  ****    0 ROOT
