@<TRIPOS>MOLECULE
2PU
   51    55     1     0     0
SMALL
bcc


@<TRIPOS>ATOM
      1 C1         -0.5220    0.0610   -0.1180 ca        1 2PU     -0.049300
      2 C2          0.2400    0.0850   -1.4260 c3        1 2PU      0.064000
      3 C3          0.3080    0.5850    0.9030 ca        1 2PU     -0.133600
      4 C4         -1.8340   -0.2890    0.1970 ca        1 2PU     -0.109400
      5 N5          1.5380    0.7460   -1.1230 n         1 2PU     -0.366800
      6 C6          0.5430   -1.3020   -2.0270 c3        1 2PU     -0.103400
      7 C7          1.6470    0.9200    0.2970 c         1 2PU      0.672100
      8 C8         -0.1330    0.7320    2.2070 ca        1 2PU      0.026000
      9 C9         -2.3000   -0.1540    1.5310 ca        1 2PU     -0.085000
     10 N10        -2.7610   -0.7110   -0.8610 n4        1 2PU     -0.479200
     11 C11         2.6010    0.0400   -1.8310 c3        1 2PU      0.043000
     12 C12         2.0340   -1.2860   -2.3720 c3        1 2PU     -0.100400
     13 O13         2.6350    1.3190    0.9040 o         1 2PU     -0.480500
     14 C14        -1.4540    0.3470    2.5090 ca        1 2PU     -0.093000
     15 C15        -3.1170   -2.1580   -0.7190 c         1 2PU      0.501100
     16 N16        -2.4570   -3.1470   -1.6370 n4        1 2PU     -0.571500
     17 O17        -3.9210   -2.5430    0.1120 o         1 2PU     -0.301100
     18 C18        -2.9990   -3.0470   -2.9770 cc        1 2PU      0.256200
     19 C19        -3.4570   -4.1410   -3.7940 cc        1 2PU     -0.223300
     20 N20        -3.1310   -1.8340   -3.6540 nd        1 2PU     -0.553800
     21 C21        -3.8560   -3.5140   -5.0000 cd        1 2PU     -0.001600
     22 N22        -3.6290   -2.1410   -4.8270 na        1 2PU      0.103400
     23 C23        -4.4360   -4.1430   -6.2380 c3        1 2PU      0.211800
     24 C24        -3.3880   -5.0740   -6.9020 c3        1 2PU     -0.090400
     25 N25        -4.8540   -3.1280   -7.2070 n3        1 2PU     -0.841200
     26 C26        -3.1830   -4.5350   -8.3120 c3        1 2PU     -0.103400
     27 C27        -4.0550   -3.2750   -8.4210 c3        1 2PU      0.145800
     28 H2         -0.2930    0.7370   -2.1770 h1        1 2PU      0.102700
     29 H61        -0.0760   -1.4770   -2.9400 hc        1 2PU      0.029700
     30 H62         0.3340   -2.1090   -1.2810 hc        1 2PU      0.029700
     31 H8          0.5330    1.1480    2.9880 ha        1 2PU      0.212000
     32 H9         -3.3330   -0.4390    1.8000 ha        1 2PU      0.173000
     33 H10        -2.3440   -0.4890   -1.7820 hn        1 2PU      0.510300
     34 H111        2.9290    0.7050   -2.6790 h1        1 2PU      0.101200
     35 H112        3.4880   -0.1300   -1.1600 h1        1 2PU      0.101200
     36 H121        2.1870   -1.3450   -3.4780 hc        1 2PU      0.082200
     37 H122        2.5590   -2.1560   -1.9060 hc        1 2PU      0.082200
     38 H14        -1.8270    0.4560    3.5450 ha        1 2PU      0.199000
     39 H16        -1.4290   -3.0020   -1.6620 hn        1 2PU      0.508300
     40 H19        -3.4880   -5.2020   -3.5570 ha        1 2PU      0.213000
     41 H22        -3.8200   -1.4210   -5.5100 hn        1 2PU      0.390700
     42 H23        -5.3180   -4.7560   -5.8780 h1        1 2PU      0.091700
     43 H241       -2.4310   -5.0840   -6.3280 hc        1 2PU      0.065700
     44 H242       -3.7840   -6.1200   -6.9270 hc        1 2PU      0.065700
     45 H25        -5.8350   -3.2040   -7.3980 hn        1 2PU      0.395800
     46 H261       -3.4900   -5.2920   -9.0750 hc        1 2PU      0.076200
     47 H262       -2.1090   -4.2860   -8.4970 hc        1 2PU      0.076200
     48 H271       -4.7080   -3.3210   -9.3350 h1        1 2PU      0.069700
     49 H272       -3.4090   -2.3580   -8.5110 h1        1 2PU      0.069700
     50 H102       -3.6460   -0.1740   -0.7550 hn        1 2PU      0.510300
     51 H162       -2.6620   -4.1040   -1.2810 hn        1 2PU      0.508300
@<TRIPOS>BOND
     1    1    2 1   
     2    1    3 ar  
     3    1    4 ar  
     4    2    5 1   
     5    2    6 1   
     6    2   28 1   
     7    3    7 1   
     8    3    8 ar  
     9    4    9 ar  
    10    4   10 1   
    11    5    7 1   
    12    5   11 1   
    13    6   12 1   
    14    6   29 1   
    15    6   30 1   
    16    7   13 2   
    17    8   14 ar  
    18    8   31 1   
    19    9   14 ar  
    20    9   32 1   
    21   10   15 1   
    22   10   33 1   
    23   10   50 1   
    24   11   12 1   
    25   11   34 1   
    26   11   35 1   
    27   12   36 1   
    28   12   37 1   
    29   14   38 1   
    30   15   16 1   
    31   15   17 2   
    32   16   18 1   
    33   16   39 1   
    34   16   51 1   
    35   18   19 1   
    36   18   20 2   
    37   19   21 2   
    38   19   40 1   
    39   20   22 1   
    40   21   22 1   
    41   21   23 1   
    42   22   41 1   
    43   23   24 1   
    44   23   25 1   
    45   23   42 1   
    46   24   26 1   
    47   24   43 1   
    48   24   44 1   
    49   25   27 1   
    50   25   45 1   
    51   26   27 1   
    52   26   46 1   
    53   26   47 1   
    54   27   48 1   
    55   27   49 1   
@<TRIPOS>SUBSTRUCTURE
     1 2PU         1 TEMP              0 ****  ****    0 ROOT
