@<TRIPOS>MOLECULE
2PU
   49    53     1     0     0
SMALL
bcc


@<TRIPOS>ATOM
      1 C1          0.0750    0.0590    0.1140 ca        1 2PU     -0.138300
      2 C2          1.5340    0.0540   -0.2780 c3        1 2PU      0.089000
      3 C3         -0.0290    0.3690    1.4910 ca        1 2PU     -0.139600
      4 C4         -1.0720   -0.1360   -0.6660 ca        1 2PU      0.079600
      5 N5          2.2860    0.4150    0.9600 n         1 2PU     -0.392800
      6 C6          2.0670   -1.2980   -0.7850 c3        1 2PU     -0.095400
      7 C7          1.3520    0.4900    2.0500 c         1 2PU      0.682100
      8 C8         -1.2530    0.4840    2.1190 ca        1 2PU     -0.077000
      9 C9         -2.3280   -0.0130   -0.0130 ca        1 2PU     -0.112000
     10 N10        -0.9370   -0.3750   -2.0450 n         1 2PU     -0.463100
     11 C11         3.4310   -0.4750    1.0900 c3        1 2PU      0.051000
     12 C12         3.2780   -1.6300    0.0820 c3        1 2PU     -0.100400
     13 O13         1.6700    0.6600    3.2310 o         1 2PU     -0.575500
     14 C14        -2.4030    0.2870    1.3400 ca        1 2PU     -0.123000
     15 C15        -1.8710   -1.1230   -2.8000 c         1 2PU      0.765100
     16 N16        -1.4610   -1.5200   -4.0980 n         1 2PU     -0.501400
     17 O17        -2.9850   -1.4440   -2.3360 o         1 2PU     -0.603100
     18 C18        -2.4220   -1.9350   -5.0330 cc        1 2PU      0.394200
     19 C19        -3.6220   -2.7050   -4.7600 cc        1 2PU     -0.277300
     20 N20        -2.3070   -1.7170   -6.4000 nd        1 2PU     -0.560800
     21 C21        -4.1920   -2.9320   -6.0260 cd        1 2PU     -0.090600
     22 N22        -3.3460   -2.3260   -6.9570 na        1 2PU      0.020400
     23 C23        -5.4510   -3.6720   -6.3440 c3        1 2PU      0.229800
     24 C24        -5.2680   -5.1880   -6.0710 c3        1 2PU     -0.092400
     25 N25        -5.8810   -3.4940   -7.7390 n3        1 2PU     -0.820200
     26 C26        -5.6250   -5.9010   -7.3670 c3        1 2PU     -0.101400
     27 C27        -5.8840   -4.7930   -8.4010 c3        1 2PU      0.149800
     28 H2          1.7310    0.8630   -1.0360 h1        1 2PU      0.082700
     29 H61         1.2830   -2.0900   -0.6970 hc        1 2PU      0.054700
     30 H62         2.3550   -1.2160   -1.8620 hc        1 2PU      0.054700
     31 H8         -1.3220    0.7230    3.1900 ha        1 2PU      0.156000
     32 H9         -3.2580   -0.1650   -0.5870 ha        1 2PU      0.176000
     33 H10         0.0070   -0.3470   -2.3710 hn        1 2PU      0.311500
     34 H111        3.5260   -0.8580    2.1420 h1        1 2PU      0.066200
     35 H112        4.3510    0.1280    0.8530 h1        1 2PU      0.066200
     36 H121        3.1270   -2.5980    0.6190 hc        1 2PU      0.054700
     37 H122        4.2020   -1.7240   -0.5390 hc        1 2PU      0.054700
     38 H14        -3.3930    0.3740    1.8140 ha        1 2PU      0.142000
     39 H16        -0.6730   -1.0500   -4.4950 hn        1 2PU      0.312500
     40 H19        -3.9890   -3.0020   -3.7830 ha        1 2PU      0.190000
     41 H22        -3.4870   -2.2780   -7.9410 hn        1 2PU      0.336700
     42 H23        -6.2350   -3.2640   -5.6370 h1        1 2PU      0.061700
     43 H241       -5.9400   -5.5050   -5.2370 hc        1 2PU      0.060200
     44 H242       -4.2160   -5.4090   -5.7650 hc        1 2PU      0.060200
     45 H25        -6.7900   -3.0730   -7.7650 hn        1 2PU      0.364800
     46 H261       -6.5350   -6.5360   -7.2370 hc        1 2PU      0.051200
     47 H262       -4.7930   -6.5650   -7.7060 hc        1 2PU      0.051200
     48 H271       -6.8480   -4.9750   -8.9460 h1        1 2PU      0.047200
     49 H272       -5.0580   -4.7800   -9.1650 h1        1 2PU      0.047200
@<TRIPOS>BOND
     1    1    2 1   
     2    1    3 ar  
     3    1    4 ar  
     4    2    5 1   
     5    2    6 1   
     6    2   28 1   
     7    3    7 1   
     8    3    8 ar  
     9    4    9 ar  
    10    4   10 1   
    11    5    7 1   
    12    5   11 1   
    13    6   12 1   
    14    6   29 1   
    15    6   30 1   
    16    7   13 2   
    17    8   14 ar  
    18    8   31 1   
    19    9   14 ar  
    20    9   32 1   
    21   10   15 1   
    22   10   33 1   
    23   11   12 1   
    24   11   34 1   
    25   11   35 1   
    26   12   36 1   
    27   12   37 1   
    28   14   38 1   
    29   15   16 1   
    30   15   17 2   
    31   16   18 1   
    32   16   39 1   
    33   18   19 1   
    34   18   20 2   
    35   19   21 2   
    36   19   40 1   
    37   20   22 1   
    38   21   22 1   
    39   21   23 1   
    40   22   41 1   
    41   23   24 1   
    42   23   25 1   
    43   23   42 1   
    44   24   26 1   
    45   24   43 1   
    46   24   44 1   
    47   25   27 1   
    48   25   45 1   
    49   26   27 1   
    50   26   46 1   
    51   26   47 1   
    52   27   48 1   
    53   27   49 1   
@<TRIPOS>SUBSTRUCTURE
     1 2PU         1 TEMP              0 ****  ****    0 ROOT
