@<TRIPOS>MOLECULE
2PV
   27    28     1     0     0
SMALL
bcc


@<TRIPOS>ATOM
      1 OAC         0.4450    1.9030   -0.0500 o         1 2PV     -0.383100
      2 CAN         1.3380    1.0720    0.0030 c         1 2PV      0.703700
      3 NAI         2.5150    1.2720    0.8760 ne        1 2PV     -0.544100
      4 CAM         3.2540    0.2100    0.8990 cf        1 2PV      0.496500
      5 NAA         4.4700    0.1070    1.6970 n4        1 2PV     -0.767600
      6 SAJ         2.3740   -1.2430   -0.0610 sx        1 2PV      0.311400
      7 CAO         1.4290   -0.2130   -0.7490 ce        1 2PV     -0.662400
      8 CAD         0.7700   -0.2350   -2.0750 c3        1 2PV      0.041100
      9 CAL         0.8460   -1.5640   -2.7370 ca        1 2PV     -0.215300
     10 CAG        -0.1190   -2.5440   -2.4730 ca        1 2PV     -0.074000
     11 CAE        -0.0780   -3.7760   -3.1070 ca        1 2PV     -0.204000
     12 CAK         0.9440   -4.0670   -4.0480 ca        1 2PV      0.192600
     13 NAB         1.0480   -5.3240   -4.6170 nh        1 2PV     -0.834200
     14 CAF         1.8990   -3.0570   -4.3330 ca        1 2PV     -0.204000
     15 CAH         1.8390   -1.8320   -3.6860 ca        1 2PV     -0.074000
     16 H1          4.3590   -0.6670    2.3620 hn        1 2PV      0.465467
     17 H2          4.6810    0.9690    2.2220 hn        1 2PV      0.465467
     18 H3          1.2290    0.5540   -2.7360 hc        1 2PV      0.091200
     19 H4         -0.3080    0.0660   -1.9260 hc        1 2PV      0.091200
     20 H5         -0.9340   -2.3290   -1.7630 ha        1 2PV      0.133500
     21 H6         -0.8510   -4.5270   -2.8820 ha        1 2PV      0.146000
     22 H7          0.2350   -5.8940   -4.5910 hn        1 2PV      0.417300
     23 H8          1.5950   -5.3960   -5.4430 hn        1 2PV      0.417300
     24 H9          2.6870   -3.2380   -5.0790 ha        1 2PV      0.146000
     25 H10         2.5770   -1.0540   -3.9410 ha        1 2PV      0.133500
     26 H11         2.9520   -1.9200   -1.0040 hs        1 2PV      0.246000
     27 HAA3        5.2510   -0.0930    1.0620 hn        1 2PV      0.465467
@<TRIPOS>BOND
     1    1    2 2   
     2    2    3 1   
     3    2    7 1   
     4    3    4 2   
     5    4    5 1   
     6    4    6 1   
     7    5   16 1   
     8    5   17 1   
     9    5   27 1   
    10    6    7 2   
    11    6   26 1   
    12    7    8 1   
    13    8    9 1   
    14    8   18 1   
    15    8   19 1   
    16    9   10 ar  
    17    9   15 ar  
    18   10   11 ar  
    19   10   20 1   
    20   11   12 ar  
    21   11   21 1   
    22   12   13 1   
    23   12   14 ar  
    24   13   22 1   
    25   13   23 1   
    26   14   15 ar  
    27   14   24 1   
    28   15   25 1   
@<TRIPOS>SUBSTRUCTURE
     1 2PV         1 TEMP              0 ****  ****    0 ROOT
