@<TRIPOS>MOLECULE
2PV
   27    28     1     0     0
SMALL
bcc


@<TRIPOS>ATOM
      1 OAC         0.4440    1.8760    0.0060 o         1 2PV     -0.383100
      2 CAN         1.3420    1.0480    0.0400 c         1 2PV      0.703700
      3 NAI         2.5270    1.2440    0.9030 ne        1 2PV     -0.544100
      4 CAM         3.2720    0.1870    0.9070 cf        1 2PV      0.496500
      5 NAA         4.4960    0.0810    1.6910 nz        1 2PV     -0.767600
      6 SAJ         2.3890   -1.2600   -0.0600 sx        1 2PV      0.311400
      7 CAO         1.4330   -0.2270   -0.7270 ce        1 2PV     -0.662400
      8 CAD         0.7600   -0.2380   -2.0460 c3        1 2PV      0.041100
      9 CAL         0.8370   -1.5590   -2.7240 ca        1 2PV     -0.215300
     10 CAG        -0.1200   -2.5470   -2.4630 ca        1 2PV     -0.074000
     11 CAE        -0.0780   -3.7710   -3.1110 ca        1 2PV     -0.204000
     12 CAK         0.9350   -4.0460   -4.0660 ca        1 2PV      0.192600
     13 NAB         1.0420   -5.2960   -4.6500 nv        1 2PV     -0.834200
     14 CAF         1.8820   -3.0270   -4.3480 ca        1 2PV     -0.204000
     15 CAH         1.8230   -1.8100   -3.6870 ca        1 2PV     -0.074000
     16 H1          4.7080    0.9380    2.2240 hn        1 2PV      0.465467
     17 H2          5.2720   -0.1070    1.0460 hn        1 2PV      0.465467
     18 H3         -0.3190    0.0540   -1.8830 hc        1 2PV      0.091200
     19 H4          1.2080    0.5610   -2.7030 hc        1 2PV      0.091200
     20 H5         -0.9290   -2.3460   -1.7420 ha        1 2PV      0.133500
     21 H6         -0.8450   -4.5290   -2.8880 ha        1 2PV      0.146000
     22 H7          1.5800   -5.3550   -5.4830 hn        1 2PV      0.417300
     23 H8          0.2320   -5.8710   -4.6240 hn        1 2PV      0.417300
     24 H9          2.6640   -3.1950   -5.1040 ha        1 2PV      0.146000
     25 H10         2.5530   -1.0250   -3.9400 ha        1 2PV      0.133500
     26 H11         2.9620   -1.9230   -1.0170 hs        1 2PV      0.246000
     27 HAA3        4.3960   -0.7010    2.3480 hn        1 2PV      0.465467
@<TRIPOS>BOND
     1    1    2 2   
     2    2    3 1   
     3    2    7 1   
     4    3    4 2   
     5    4    5 1   
     6    4    6 1   
     7    5   16 1   
     8    5   17 1   
     9    5   27 1   
    10    6    7 2   
    11    6   26 1   
    12    7    8 1   
    13    8    9 1   
    14    8   18 1   
    15    8   19 1   
    16    9   10 ar  
    17    9   15 ar  
    18   10   11 ar  
    19   10   20 1   
    20   11   12 ar  
    21   11   21 1   
    22   12   13 1   
    23   12   14 ar  
    24   13   22 1   
    25   13   23 1   
    26   14   15 ar  
    27   14   24 1   
    28   15   25 1   
@<TRIPOS>SUBSTRUCTURE
     1 2PV         1 TEMP              0 ****  ****    0 ROOT
