@<TRIPOS>MOLECULE
2PV
   26    21     1     0     0
SMALL
bcc


@<TRIPOS>ATOM
      1 OAC        -0.4540    2.9820    1.5750 o         1 2PV     -0.270000
      2 CAN        -0.9960    1.9750    1.9850 c1        1 2PV      0.330000
      3 NAI        -1.2330    1.5910    3.5300 n2        1 2PV     -0.190000
      4 CAM        -1.3470    0.1500    3.7340 c1        1 2PV     -0.174000
      5 NAA        -0.9020   -0.4320    4.9480 n3        1 2PV     -0.302000
      6 SAJ        -1.2040   -0.6620    2.3490 sh        1 2PV      1.175000
      7 CAO        -0.9820    0.5530    1.2780 c1        1 2PV     -0.884000
      8 CAD        -1.4830    0.4100   -0.1430 c2        1 2PV      0.000000
      9 CAL        -0.3230    0.0820   -1.0560 c1        1 2PV     -0.127000
     10 CAG        -0.1540   -1.2120   -1.5230 c1        1 2PV     -0.102000
     11 CAE         0.8690   -1.5000   -2.4130 c1        1 2PV     -0.191000
     12 CAK         1.7230   -0.4940   -2.8360 c1        1 2PV      0.049000
     13 NAB         2.7380   -0.7780   -3.7870 n2        1 2PV     -0.325000
     14 CAF         1.5540    0.8000   -2.3690 c2        1 2PV     -0.191000
     15 CAH         0.5320    1.0880   -1.4790 c1        1 2PV     -0.083000
     16 H1         -1.0060   -1.3290    5.0900 hn        1 2PV      0.207000
     17 H2         -0.5400    0.0950    5.6010 hn        1 2PV      0.207000
     18 H3         -1.8960    1.2500   -0.4290 ha        1 2PV      0.094500
     19 H4         -2.1450   -0.3090   -0.1840 ha        1 2PV      0.094500
     20 H5         -0.7560   -1.9210   -1.2250 ha        1 2PV      0.129000
     21 H6          0.9870   -2.4110   -2.7420 ha        1 2PV      0.130000
     22 H7          2.5710   -1.3570   -4.4740 hn        1 2PV      0.181000
     23 H8          3.5510   -0.3650   -3.7240 hn        1 2PV      0.181000
     24 H9          2.1560    1.5090   -2.6670 ha        1 2PV      0.131000
     25 H10         0.4130    2.0000   -1.1500 ha        1 2PV      0.142000
     26 H11        -1.6740   -1.7160    2.1130 hs        1 2PV     -0.211000
@<TRIPOS>BOND
     1    1    2 1   
     2    2    3 1   
     3    3    4 1   
     4    4    5 1   
     5    5   16 1   
     6    5   17 1   
     7    6    7 1   
     8    6   26 1   
     9    8    9 1   
    10    8   18 1   
    11    8   19 1   
    12    9   10 1   
    13   10   20 1   
    14   11   12 1   
    15   11   21 1   
    16   12   14 1   
    17   13   22 1   
    18   13   23 1   
    19   14   15 1   
    20   14   24 1   
    21   15   25 1   
@<TRIPOS>SUBSTRUCTURE
     1 2PV         1 TEMP              0 ****  ****    0 ROOT
