@<TRIPOS>MOLECULE
2PV
   26    27     1     0     0
SMALL
bcc


@<TRIPOS>ATOM
      1 OAC        -1.5520   -2.5300   -0.7250 o         1 2PV     -0.511100
      2 CAN        -1.8140   -1.3750   -0.3860 c         1 2PV      0.729700
      3 NAI        -2.8170   -1.0980    0.6510 ne        1 2PV     -0.614100
      4 CAM        -2.9900    0.1860    0.7840 cf        1 2PV      0.707500
      5 NAA        -3.7470    0.8800    1.7100 nh        1 2PV     -0.863800
      6 SAJ        -1.9880    1.1680   -0.4390 sx        1 2PV      0.312400
      7 CAO        -1.2360   -0.1350   -0.9210 ce        1 2PV     -0.902400
      8 CAD         0.0020   -0.2250   -1.7170 c3        1 2PV      0.091100
      9 CAL         1.2430   -0.0240   -0.9120 ca        1 2PV     -0.134300
     10 CAG         1.6380   -0.9890    0.0220 ca        1 2PV     -0.091500
     11 CAE         2.7970   -0.8300    0.7680 ca        1 2PV     -0.190000
     12 CAK         3.6120    0.3130    0.5900 ca        1 2PV      0.131600
     13 NAB         4.8310    0.4370    1.2700 nh        1 2PV     -0.817200
     14 CAF         3.2080    1.2860   -0.3520 ca        1 2PV     -0.190000
     15 CAH         2.0430    1.1080   -1.0910 ca        1 2PV     -0.091500
     16 H1         -4.3350    0.3220    2.2970 hn        1 2PV      0.411300
     17 H2         -4.2050    1.6850    1.3410 hn        1 2PV      0.411300
     18 H3          0.0420   -1.2490   -2.1900 hc        1 2PV      0.055700
     19 H4         -0.0270    0.5220   -2.5570 hc        1 2PV      0.055700
     20 H5          1.0120   -1.8870    0.1590 ha        1 2PV      0.134500
     21 H6          3.0850   -1.6070    1.4920 ha        1 2PV      0.130000
     22 H7          5.1500    1.3750    1.3650 hn        1 2PV      0.385300
     23 H8          4.8750   -0.0790    2.1210 hn        1 2PV      0.385300
     24 H9          3.8210    2.1830   -0.5180 ha        1 2PV      0.130000
     25 H10         1.7570    1.8700   -1.8310 ha        1 2PV      0.134500
     26 H11        -1.1740    1.8540    0.3050 hs        1 2PV      0.201000
@<TRIPOS>BOND
     1    1    2 2   
     2    2    3 1   
     3    2    7 1   
     4    3    4 2   
     5    4    5 1   
     6    4    6 1   
     7    5   16 1   
     8    5   17 1   
     9    6    7 2   
    10    6   26 1   
    11    7    8 1   
    12    8    9 1   
    13    8   18 1   
    14    8   19 1   
    15    9   10 ar  
    16    9   15 ar  
    17   10   11 ar  
    18   10   20 1   
    19   11   12 ar  
    20   11   21 1   
    21   12   13 1   
    22   12   14 ar  
    23   13   22 1   
    24   13   23 1   
    25   14   15 ar  
    26   14   24 1   
    27   15   25 1   
@<TRIPOS>SUBSTRUCTURE
     1 2PV         1 TEMP              0 ****  ****    0 ROOT
