@<TRIPOS>MOLECULE
2PV
   28    29     1     0     0
SMALL
bcc


@<TRIPOS>ATOM
      1 OAC         0.0790   -0.5230    0.1820 o         1 2PV     -0.393100
      2 CAN         1.2780   -0.2900    0.1800 c         1 2PV      0.716700
      3 NAI         1.9300    0.3340    1.3630 ne        1 2PV     -0.482100
      4 CAM         3.2150    0.3580    1.2050 cf        1 2PV      0.492500
      5 NAA         4.1310    0.9080    2.1970 n4        1 2PV     -0.768600
      6 SAJ         3.7390   -0.5690   -0.3460 sx        1 2PV      0.408400
      7 CAO         2.2690   -0.5280   -0.8960 ce        1 2PV     -0.794400
      8 CAD         1.7850   -0.4430   -2.2910 c3        1 2PV      0.044100
      9 CAL         1.3240   -1.7440   -2.8660 ca        1 2PV     -0.027300
     10 CAG         0.1440   -2.3430   -2.4050 ca        1 2PV     -0.100500
     11 CAE        -0.3510   -3.4980   -3.0030 ca        1 2PV     -0.090000
     12 CAK         0.3460   -4.0620   -4.0860 ca        1 2PV     -0.066400
     13 NAB        -0.1920   -5.2490   -4.7530 n4        1 2PV     -0.703000
     14 CAF         1.5400   -3.4840   -4.5490 ca        1 2PV     -0.090000
     15 CAH         2.0190   -2.3300   -3.9330 ca        1 2PV     -0.100500
     16 H1          4.7830    0.1740    2.5030 hn        1 2PV      0.482467
     17 H2          4.6540    1.6850    1.7700 hn        1 2PV      0.482467
     18 H3          0.9140    0.2760   -2.3410 hc        1 2PV      0.083700
     19 H4          2.5980   -0.0130   -2.9420 hc        1 2PV      0.083700
     20 H5         -0.4120   -1.8880   -1.5640 ha        1 2PV      0.178000
     21 H6         -1.2880   -3.9420   -2.6230 ha        1 2PV      0.168000
     22 H7         -0.8440   -4.9590   -5.4940 hn        1 2PV      0.469800
     23 H8          0.5700   -5.7950   -5.1720 hn        1 2PV      0.469800
     24 H9          2.1030   -3.9160   -5.3940 ha        1 2PV      0.168000
     25 H10         2.9460   -1.8700   -4.3150 ha        1 2PV      0.178000
     26 H11         4.4460    0.1370   -1.1700 hs        1 2PV      0.238000
     27 HAA3        3.6290    1.2690    3.0280 hn        1 2PV      0.482467
     28 HAB3       -0.6950   -5.8350   -4.0760 hn        1 2PV      0.469800
@<TRIPOS>BOND
     1    1    2 2   
     2    2    3 1   
     3    2    7 1   
     4    3    4 2   
     5    4    5 1   
     6    4    6 1   
     7    5   16 1   
     8    5   17 1   
     9    5   27 1   
    10    6    7 2   
    11    6   26 1   
    12    7    8 1   
    13    8    9 1   
    14    8   18 1   
    15    8   19 1   
    16    9   10 ar  
    17    9   15 ar  
    18   10   11 ar  
    19   10   20 1   
    20   11   12 ar  
    21   11   21 1   
    22   12   13 1   
    23   12   14 ar  
    24   13   22 1   
    25   13   23 1   
    26   13   28 1   
    27   14   15 ar  
    28   14   24 1   
    29   15   25 1   
@<TRIPOS>SUBSTRUCTURE
     1 2PV         1 TEMP              0 ****  ****    0 ROOT
