@<TRIPOS>MOLECULE
2PW
   36    37     1     0     0
SMALL
bcc


@<TRIPOS>ATOM
      1 CAA         2.3290   -2.3100   -1.8060 c3        1 2PW     -0.090100
      2 CAK         3.2580   -1.9540   -0.6770 c3        1 2PW     -0.100400
      3 CAR         2.5040   -1.6170    0.6200 c3        1 2PW      0.101700
      4 CAB         3.4810   -1.7060    1.7950 c3        1 2PW     -0.098100
      5 NAS         1.7890   -0.3450    0.6040 n         1 2PW     -0.268000
      6 CAO         0.4090   -0.3430    0.3220 c         1 2PW      0.686700
      7 OAC        -0.3360   -1.3080    0.5650 o         1 2PW     -0.628500
      8 CAP         2.4120    0.8550    0.1510 c2        1 2PW     -0.697800
      9 SAE         4.0090    1.2180    0.2330 sh        1 2PW     -0.179400
     10 SAL         1.3820    1.9370   -0.4490 sx        1 2PW      0.441300
     11 CAQ        -0.0290    0.9750   -0.2400 ce        1 2PW     -0.124500
     12 CAF        -1.2640    1.4420   -0.4720 cf        1 2PW      0.101800
     13 CAN        -2.5640    0.8370   -0.2800 ca        1 2PW     -0.151800
     14 CAI        -3.6290    1.6790    0.1040 ca        1 2PW     -0.040000
     15 CAG        -4.9070    1.1760    0.2900 ca        1 2PW     -0.200000
     16 CAM        -5.1390   -0.1950    0.0710 ca        1 2PW      0.157100
     17 OAD        -6.4250   -0.6350    0.2640 oh        1 2PW     -0.491100
     18 CAH        -4.0980   -1.0420   -0.3310 ca        1 2PW     -0.200000
     19 CAJ        -2.8170   -0.5240   -0.4980 ca        1 2PW     -0.040000
     20 H1          2.9150   -2.5460   -2.7280 hc        1 2PW      0.030700
     21 H2          1.7090   -3.2020   -1.5440 hc        1 2PW      0.030700
     22 H3          1.6380   -1.4640   -2.0380 hc        1 2PW      0.030700
     23 H4          3.9340   -2.8240   -0.4650 hc        1 2PW      0.053700
     24 H5          3.9100   -1.0870   -0.9690 hc        1 2PW      0.053700
     25 H6          1.7110   -2.4150    0.7770 h1        1 2PW      0.074700
     26 H7          4.3240   -0.9840    1.6590 hc        1 2PW      0.043367
     27 H8          2.9660   -1.4800    2.7590 hc        1 2PW      0.043367
     28 H9          3.8900   -2.7430    1.8440 hc        1 2PW      0.043367
     29 H10        -1.3370    2.4850   -0.8600 ha        1 2PW      0.118000
     30 H11        -3.4420    2.7510    0.2710 ha        1 2PW      0.152500
     31 H12        -5.7380    1.8230    0.6030 ha        1 2PW      0.150000
     32 H13        -6.4430   -1.5920    0.1100 ho        1 2PW      0.426000
     33 H14        -4.2850   -2.1120   -0.5010 ha        1 2PW      0.150000
     34 H15        -1.9970   -1.1960   -0.8040 ha        1 2PW      0.152500
     35 H16         4.0560    1.9300    1.3500 hs        1 2PW      0.129800
     36 H17         1.4710    1.9830   -1.7430 hs        1 2PW      0.138000
@<TRIPOS>BOND
     1    1    2 1   
     2    1   20 1   
     3    1   21 1   
     4    1   22 1   
     5    2    3 1   
     6    2   23 1   
     7    2   24 1   
     8    3    4 1   
     9    3    5 1   
    10    3   25 1   
    11    4   26 1   
    12    4   27 1   
    13    4   28 1   
    14    5    6 1   
    15    5    8 1   
    16    6    7 2   
    17    6   11 1   
    18    8    9 1   
    19    8   10 2   
    20    9   35 1   
    21   10   11 1   
    22   10   36 1   
    23   11   12 2   
    24   12   13 1   
    25   12   29 1   
    26   13   14 ar  
    27   13   19 ar  
    28   14   15 ar  
    29   14   30 1   
    30   15   16 ar  
    31   15   31 1   
    32   16   17 1   
    33   16   18 ar  
    34   17   32 1   
    35   18   19 ar  
    36   18   33 1   
    37   19   34 1   
@<TRIPOS>SUBSTRUCTURE
     1 2PW         1 TEMP              0 ****  ****    0 ROOT
