@<TRIPOS>MOLECULE
2PW
   36    30     1     0     0
SMALL
bcc


@<TRIPOS>ATOM
      1 CAA         0.2680   -5.5760   -0.3040 c3        1 2PW     -0.209000
      2 CAK        -0.1270   -4.2350    0.3600 c3        1 2PW     -0.164000
      3 CAR        -0.5260   -3.2350   -0.7150 c3        1 2PW      0.014000
      4 CAB        -2.0080   -3.2560   -0.8910 c3        1 2PW     -0.237000
      5 NAS        -0.1040   -1.9070   -0.3200 n3        1 2PW     -0.151000
      6 CAO        -0.7690   -0.9980    0.9020 c1        1 2PW      0.316000
      7 OAC        -1.6860   -1.3490    1.6510 o         1 2PW     -0.345000
      8 CAP         0.6550   -0.9940   -1.1170 c2        1 2PW     -0.963000
      9 SAE         1.1070   -1.4220   -2.7720 sh        1 2PW      0.769000
     10 SAL         0.6400    0.5130   -0.6640 sh        1 2PW      0.769000
     11 CAQ        -0.2660    0.5550    0.6460 c1        1 2PW     -0.197667
     12 CAF        -0.5660    1.6580    1.4090 c1        1 2PW     -0.061000
     13 CAN        -0.0090    3.0340    1.0220 c1        1 2PW     -0.197667
     14 CAI        -0.7160    3.8440    0.1340 c1        1 2PW     -0.115000
     15 CAG        -0.2900    5.1640   -0.1060 c1        1 2PW     -0.115000
     16 CAM         0.8400    5.6620    0.5450 c1        1 2PW     -0.197667
     17 OAD         1.3170    6.9800    0.2440 o         1 2PW     -0.240000
     18 CAH         1.5480    4.8490    1.4360 c1        1 2PW     -0.061000
     19 CAJ         1.1250    3.5350    1.6750 c1        1 2PW     -0.061000
     20 H1          0.3100   -6.2770    0.3760 hc        1 2PW      0.070667
     21 H2          1.1500   -5.4830   -0.7340 hc        1 2PW      0.070667
     22 H3         -0.4030   -5.8160   -0.9800 hc        1 2PW      0.070667
     23 H4          0.6470   -3.8770    0.8740 hc        1 2PW      0.096500
     24 H5         -0.8890   -4.3810    0.9720 hc        1 2PW      0.096500
     25 H6         -0.0920   -3.4780   -1.5640 h1        1 2PW      0.121000
     26 H7         -2.2340   -3.6870   -1.7580 hc        1 2PW      0.081000
     27 H8         -2.4140   -3.7600   -0.1630 hc        1 2PW      0.081000
     28 H9         -2.3500   -2.3410   -0.8840 hc        1 2PW      0.081000
     29 H10        -1.1340    1.5670    2.1950 ha        1 2PW      0.152000
     30 H11        -1.5210    3.4900   -0.3300 ha        1 2PW      0.146000
     31 H12        -0.7900    5.7380   -0.7360 ha        1 2PW      0.146000
     32 H13         1.9200    6.9360   -0.4370 ho        1 2PW      0.227000
     33 H14         2.3410    5.1990    1.8930 ha        1 2PW      0.152000
     34 H15         1.6360    2.9500    2.3170 ha        1 2PW      0.152000
     35 H16         2.1970   -1.0270   -2.9960 hs        1 2PW     -0.149500
     36 H17         1.1940    1.4240   -1.1820 hs        1 2PW     -0.149500
@<TRIPOS>BOND
     1    1    2 1   
     2    1   20 1   
     3    1   21 1   
     4    1   22 1   
     5    2    3 1   
     6    2   23 1   
     7    2   24 1   
     8    3    4 1   
     9    3    5 1   
    10    3   25 1   
    11    4   26 1   
    12    4   27 1   
    13    4   28 1   
    14    5    6 1   
    15    5    8 1   
    16    6    7 1   
    17    8    9 1   
    18    8   10 1   
    19    9   35 1   
    20   10   36 1   
    21   11   12 1   
    22   12   29 1   
    23   13   19 1   
    24   14   15 1   
    25   14   30 1   
    26   15   31 1   
    27   16   18 1   
    28   17   32 1   
    29   18   33 1   
    30   19   34 1   
@<TRIPOS>SUBSTRUCTURE
     1 2PW         1 TEMP              0 ****  ****    0 ROOT
