@<TRIPOS>MOLECULE
2PW
   36    37     1     0     0
SMALL
bcc


@<TRIPOS>ATOM
      1 CAA         0.1350    0.2230   -0.2330 c3        1 2PW     -0.090100
      2 CAK         1.6370    0.3110   -0.2270 c3        1 2PW     -0.100400
      3 CAR         2.2360    0.0390    1.1620 c3        1 2PW      0.100700
      4 CAB         3.7220   -0.2910    1.0020 c3        1 2PW     -0.097100
      5 NAS         2.0180    1.0970    2.1440 n         1 2PW     -0.268000
      6 CAO         0.9550    0.9670    3.0580 c         1 2PW      0.685700
      7 OAC         0.5100   -0.1320    3.4340 o         1 2PW     -0.625500
      8 CAP         2.2680    2.4660    1.8320 c2        1 2PW     -0.695800
      9 SAE         3.3760    3.0400    0.7680 sh        1 2PW     -0.178400
     10 SAL         1.3700    3.5010    2.6780 sx        1 2PW      0.439300
     11 CAQ         0.4910    2.3060    3.5470 ce        1 2PW     -0.122500
     12 CAF        -0.3630    2.6080    4.5350 cf        1 2PW      0.099800
     13 CAN        -1.1240    1.7610    5.4290 ca        1 2PW     -0.149800
     14 CAI        -1.3220    2.2100    6.7480 ca        1 2PW     -0.040500
     15 CAG        -2.0600    1.4590    7.6520 ca        1 2PW     -0.199500
     16 CAM        -2.6320    0.2470    7.2320 ca        1 2PW      0.156100
     17 OAD        -3.3840   -0.5440    8.0640 oh        1 2PW     -0.489100
     18 CAH        -2.4610   -0.2080    5.9140 ca        1 2PW     -0.199500
     19 CAJ        -1.7040    0.5480    5.0260 ca        1 2PW     -0.040500
     20 H1         -0.2600    0.4270   -1.2580 hc        1 2PW      0.030700
     21 H2         -0.3130    0.9670    0.4690 hc        1 2PW      0.030700
     22 H3         -0.2040   -0.7960    0.0790 hc        1 2PW      0.030700
     23 H4          1.9690    1.3210   -0.5890 hc        1 2PW      0.053700
     24 H5          2.0550   -0.4520   -0.9360 hc        1 2PW      0.053700
     25 H6          1.7270   -0.8840    1.5850 h1        1 2PW      0.074700
     26 H7          3.8210   -1.1950    0.3550 hc        1 2PW      0.043367
     27 H8          4.2640    0.5630    0.5260 hc        1 2PW      0.043367
     28 H9          4.1910   -0.5080    1.9920 hc        1 2PW      0.043367
     29 H10        -0.5210    3.6910    4.7450 ha        1 2PW      0.117000
     30 H11        -0.8770    3.1630    7.0740 ha        1 2PW      0.152500
     31 H12        -2.1980    1.8080    8.6850 ha        1 2PW      0.149000
     32 H13        -3.4020   -0.1300    8.9400 ho        1 2PW      0.423000
     33 H14        -2.9150   -1.1600    5.6030 ha        1 2PW      0.149000
     34 H15        -1.5580    0.1830    3.9950 ha        1 2PW      0.152500
     35 H16         4.3910    3.3160    1.5740 hs        1 2PW      0.129800
     36 H17         0.4390    4.0130    1.9320 hs        1 2PW      0.138000
@<TRIPOS>BOND
     1    1    2 1   
     2    1   20 1   
     3    1   21 1   
     4    1   22 1   
     5    2    3 1   
     6    2   23 1   
     7    2   24 1   
     8    3    4 1   
     9    3    5 1   
    10    3   25 1   
    11    4   26 1   
    12    4   27 1   
    13    4   28 1   
    14    5    6 1   
    15    5    8 1   
    16    6    7 2   
    17    6   11 1   
    18    8    9 1   
    19    8   10 2   
    20    9   35 1   
    21   10   11 1   
    22   10   36 1   
    23   11   12 2   
    24   12   13 1   
    25   12   29 1   
    26   13   14 ar  
    27   13   19 ar  
    28   14   15 ar  
    29   14   30 1   
    30   15   16 ar  
    31   15   31 1   
    32   16   17 1   
    33   16   18 ar  
    34   17   32 1   
    35   18   19 ar  
    36   18   33 1   
    37   19   34 1   
@<TRIPOS>SUBSTRUCTURE
     1 2PW         1 TEMP              0 ****  ****    0 ROOT
