@<TRIPOS>MOLECULE
2PW
   36    37     1     0     0
SMALL
bcc


@<TRIPOS>ATOM
      1 CAA         0.1490    0.1730   -0.2230 c3        1 2PW     -0.090100
      2 CAK         1.6500    0.2850   -0.2170 c3        1 2PW     -0.100400
      3 CAR         2.2530    0.0410    1.1760 c3        1 2PW      0.100700
      4 CAB         3.7440   -0.2680    1.0220 c3        1 2PW     -0.097100
      5 NAS         2.0180    1.1090    2.1430 n         1 2PW     -0.268000
      6 CAO         0.9550    0.9740    3.0590 c         1 2PW      0.685700
      7 OAC         0.5280   -0.1270    3.4490 o         1 2PW     -0.625500
      8 CAP         2.2460    2.4770    1.8140 c2        1 2PW     -0.695800
      9 SAE         3.3450    3.0540    0.7430 sh        1 2PW     -0.178400
     10 SAL         1.3310    3.5090    2.6440 sx        1 2PW      0.439300
     11 CAQ         0.4700    2.3120    3.5290 ce        1 2PW     -0.122500
     12 CAF        -0.3900    2.6140    4.5130 cf        1 2PW      0.099800
     13 CAN        -1.1370    1.7670    5.4170 ca        1 2PW     -0.149800
     14 CAI        -1.3440    2.2310    6.7300 ca        1 2PW     -0.040500
     15 CAG        -2.0710    1.4810    7.6440 ca        1 2PW     -0.199500
     16 CAM        -2.6230    0.2540    7.2400 ca        1 2PW      0.156100
     17 OAD        -3.3620   -0.5380    8.0830 oh        1 2PW     -0.489100
     18 CAH        -2.4430   -0.2170    5.9290 ca        1 2PW     -0.199500
     19 CAJ        -1.6980    0.5390    5.0310 ca        1 2PW     -0.040500
     20 H1         -0.2470    0.3580   -1.2500 hc        1 2PW      0.030700
     21 H2         -0.3100    0.9200    0.4690 hc        1 2PW      0.030700
     22 H3         -0.1740   -0.8460    0.1030 hc        1 2PW      0.030700
     23 H4          2.0810   -0.4800   -0.9160 hc        1 2PW      0.053700
     24 H5          1.9670    1.2950   -0.5920 hc        1 2PW      0.053700
     25 H6          1.7580   -0.8840    1.6110 h1        1 2PW      0.074700
     26 H7          4.2150   -0.4640    2.0140 hc        1 2PW      0.043367
     27 H8          4.2720    0.5880    0.5340 hc        1 2PW      0.043367
     28 H9          3.8570   -1.1790    0.3870 hc        1 2PW      0.043367
     29 H10        -0.5640    3.6970    4.7070 ha        1 2PW      0.117000
     30 H11        -0.9140    3.1950    7.0430 ha        1 2PW      0.152500
     31 H12        -2.2150    1.8420    8.6720 ha        1 2PW      0.149000
     32 H13        -3.3880   -0.1120    8.9530 ho        1 2PW      0.423000
     33 H14        -2.8820   -1.1790    5.6310 ha        1 2PW      0.149000
     34 H15        -1.5450    0.1630    4.0050 ha        1 2PW      0.152500
     35 H16         4.3550    3.3570    1.5460 hs        1 2PW      0.129800
     36 H17         0.3920    3.9960    1.8910 hs        1 2PW      0.138000
@<TRIPOS>BOND
     1    1    2 1   
     2    1   20 1   
     3    1   21 1   
     4    1   22 1   
     5    2    3 1   
     6    2   23 1   
     7    2   24 1   
     8    3    4 1   
     9    3    5 1   
    10    3   25 1   
    11    4   26 1   
    12    4   27 1   
    13    4   28 1   
    14    5    6 1   
    15    5    8 1   
    16    6    7 2   
    17    6   11 1   
    18    8    9 1   
    19    8   10 2   
    20    9   35 1   
    21   10   11 1   
    22   10   36 1   
    23   11   12 2   
    24   12   13 1   
    25   12   29 1   
    26   13   14 ar  
    27   13   19 ar  
    28   14   15 ar  
    29   14   30 1   
    30   15   16 ar  
    31   15   31 1   
    32   16   17 1   
    33   16   18 ar  
    34   17   32 1   
    35   18   19 ar  
    36   18   33 1   
    37   19   34 1   
@<TRIPOS>SUBSTRUCTURE
     1 2PW         1 TEMP              0 ****  ****    0 ROOT
