@<TRIPOS>MOLECULE
2PW
   36    37     1     0     0
SMALL
bcc


@<TRIPOS>ATOM
      1 CAA         0.1600    0.1340   -0.2140 c3        1 2PW     -0.090100
      2 CAK         1.6590    0.2720   -0.2110 c3        1 2PW     -0.100400
      3 CAR         2.2670    0.0530    1.1840 c3        1 2PW      0.100700
      4 CAB         3.7630   -0.2310    1.0300 c3        1 2PW     -0.097100
      5 NAS         2.0140    1.1260    2.1400 n         1 2PW     -0.268000
      6 CAO         0.9550    0.9820    3.0580 c         1 2PW      0.685700
      7 OAC         0.5480   -0.1210    3.4600 o         1 2PW     -0.625500
      8 CAP         2.2180    2.4940    1.7960 c2        1 2PW     -0.695800
      9 SAE         3.3060    3.0790    0.7180 sh        1 2PW     -0.178400
     10 SAL         1.2860    3.5190    2.6170 sx        1 2PW      0.439300
     11 CAQ         0.4470    2.3160    3.5150 ce        1 2PW     -0.122500
     12 CAF        -0.4160    2.6140    4.4970 cf        1 2PW      0.099800
     13 CAN        -1.1480    1.7630    5.4120 ca        1 2PW     -0.149800
     14 CAI        -1.3600    2.2370    6.7200 ca        1 2PW     -0.040500
     15 CAG        -2.0730    1.4840    7.6430 ca        1 2PW     -0.199500
     16 CAM        -2.6040    0.2430    7.2520 ca        1 2PW      0.156100
     17 OAD        -3.3290   -0.5520    8.1040 oh        1 2PW     -0.489100
     18 CAH        -2.4180   -0.2370    5.9460 ca        1 2PW     -0.199500
     19 CAJ        -1.6880    0.5220    5.0390 ca        1 2PW     -0.040500
     20 H1         -0.3120    0.8790    0.4710 hc        1 2PW      0.030700
     21 H2         -0.1450   -0.8870    0.1220 hc        1 2PW      0.030700
     22 H3         -0.2410    0.3010   -1.2430 hc        1 2PW      0.030700
     23 H4          1.9570    1.2830   -0.5970 hc        1 2PW      0.053700
     24 H5          2.1020   -0.4930   -0.9030 hc        1 2PW      0.053700
     25 H6          1.7880   -0.8760    1.6290 h1        1 2PW      0.074700
     26 H7          4.2760    0.6280    0.5330 hc        1 2PW      0.043367
     27 H8          4.2380   -0.4090    2.0240 hc        1 2PW      0.043367
     28 H9          3.8920   -1.1470    0.4050 hc        1 2PW      0.043367
     29 H10        -0.6100    3.6960    4.6810 ha        1 2PW      0.117000
     30 H11        -0.9480    3.2120    7.0220 ha        1 2PW      0.152500
     31 H12        -2.2220    1.8530    8.6670 ha        1 2PW      0.149000
     32 H13        -3.3610   -0.1180    8.9700 ho        1 2PW      0.423000
     33 H14        -2.8410   -1.2110    5.6590 ha        1 2PW      0.149000
     34 H15        -1.5290    0.1380    4.0170 ha        1 2PW      0.152500
     35 H16         4.3110    3.4080    1.5160 hs        1 2PW      0.129800
     36 H17         0.3380    3.9820    1.8600 hs        1 2PW      0.138000
@<TRIPOS>BOND
     1    1    2 1   
     2    1   20 1   
     3    1   21 1   
     4    1   22 1   
     5    2    3 1   
     6    2   23 1   
     7    2   24 1   
     8    3    4 1   
     9    3    5 1   
    10    3   25 1   
    11    4   26 1   
    12    4   27 1   
    13    4   28 1   
    14    5    6 1   
    15    5    8 1   
    16    6    7 2   
    17    6   11 1   
    18    8    9 1   
    19    8   10 2   
    20    9   35 1   
    21   10   11 1   
    22   10   36 1   
    23   11   12 2   
    24   12   13 1   
    25   12   29 1   
    26   13   14 ar  
    27   13   19 ar  
    28   14   15 ar  
    29   14   30 1   
    30   15   16 ar  
    31   15   31 1   
    32   16   17 1   
    33   16   18 ar  
    34   17   32 1   
    35   18   19 ar  
    36   18   33 1   
    37   19   34 1   
@<TRIPOS>SUBSTRUCTURE
     1 2PW         1 TEMP              0 ****  ****    0 ROOT
