@<TRIPOS>MOLECULE
2PX
   65    69     1     0     0
SMALL
bcc


@<TRIPOS>ATOM
      1 O01        -0.1210    0.9030    0.3180 o         1 2PX     -0.391100
      2 C02         1.0940    0.8420    0.1790 c         1 2PX      0.510100
      3 C03         2.0910    0.8290    1.3430 c3        1 2PX      0.034500
      4 C04         2.9930   -0.4400    1.2720 c3        1 2PX      0.012800
      5 C05         3.5350   -0.7840    2.5800 cc        1 2PX     -0.325400
      6 C06         4.8570   -0.5910    3.0320 cd        1 2PX     -0.006100
      7 N07         5.0040   -1.1170    4.2960 na        1 2PX     -0.140400
      8 C08         3.7870   -1.7000    4.6900 ca        1 2PX     -0.053200
      9 C09         2.8370   -1.5150    3.6200 ca        1 2PX     -0.117800
     10 C10         1.5510   -2.0520    3.7470 ca        1 2PX     -0.177000
     11 C11         1.2180   -2.7220    4.9150 ca        1 2PX     -0.089000
     12 C12         2.1450   -2.8720    5.9650 ca        1 2PX     -0.097000
     13 C13         3.4360   -2.3750    5.8710 ca        1 2PX     -0.090000
     14 N14         1.3730    0.9090    2.6550 n4        1 2PX     -0.830600
     15 N15         1.6640    0.7950   -1.1910 n4        1 2PX     -0.670800
     16 C16         0.8660   -0.0970   -2.1520 c3        1 2PX      0.143500
     17 C17         1.0690   -1.5740   -1.8240 c3        1 2PX     -0.118400
     18 C18         2.4830   -2.0530   -2.1570 c3        1 2PX      0.164300
     19 C19         1.3140    0.1820   -3.5870 c3        1 2PX     -0.118400
     20 C20         2.7260   -0.3380   -3.8500 c3        1 2PX      0.164300
     21 N21         2.8760   -1.7390   -3.5140 n3        1 2PX     -0.743600
     22 C22         4.1720   -2.3240   -3.8720 c3        1 2PX      0.268000
     23 C23         4.6820   -1.9270   -5.1960 cc        1 2PX     -0.218400
     24 C24         4.3790   -2.5370   -6.4200 cd        1 2PX     -0.047100
     25 N25         5.0880   -1.9250   -7.4450 na        1 2PX     -0.171400
     26 C26         5.8880   -0.9170   -6.8920 ca        1 2PX     -0.055200
     27 C27         5.6500   -0.8860   -5.4670 ca        1 2PX     -0.084800
     28 C28         6.3400    0.0360   -4.6770 ca        1 2PX     -0.121000
     29 C29         7.2380    0.9110   -5.2780 ca        1 2PX     -0.082300
     30 C30         8.0020    1.8890   -4.4690 c3        1 2PX     -0.053800
     31 C31         7.4510    0.8740   -6.6760 ca        1 2PX     -0.110000
     32 C32         6.7920   -0.0270   -7.4940 ca        1 2PX     -0.113000
     33 H1          2.7460    1.7530    1.2710 hx        1 2PX      0.143700
     34 H2          2.3820   -1.2980    0.8740 hc        1 2PX      0.086700
     35 H3          3.8230   -0.2210    0.5460 hc        1 2PX      0.086700
     36 H4          5.6980   -0.1130    2.5170 h4        1 2PX      0.191000
     37 H5          5.8460   -1.1560    4.8190 hn        1 2PX      0.337700
     38 H6          0.8400   -2.0170    2.9100 ha        1 2PX      0.113000
     39 H7          0.2140   -3.1650    5.0270 ha        1 2PX      0.162000
     40 H8          1.8370   -3.4140    6.8770 ha        1 2PX      0.174000
     41 H9          4.1630   -2.5160    6.6860 ha        1 2PX      0.172000
     42 H10         0.7600    0.0860    2.7770 hn        1 2PX      0.488800
     43 H11         0.8150    1.7660    2.7220 hn        1 2PX      0.488800
     44 H13         1.6650    1.7480   -1.5850 hn        1 2PX      0.477300
     45 H14        -0.2180    0.1940   -2.0120 hx        1 2PX      0.124700
     46 H15         0.3240   -2.1460   -2.4470 hc        1 2PX      0.097700
     47 H16         0.8410   -1.7900   -0.7490 hc        1 2PX      0.097700
     48 H17         2.5130   -3.1760   -2.0420 h1        1 2PX      0.046700
     49 H18         3.1980   -1.6230   -1.3870 h1        1 2PX      0.046700
     50 H19         0.5820   -0.3490   -4.2590 hc        1 2PX      0.097700
     51 H20         1.2610    1.2730   -3.8380 hc        1 2PX      0.097700
     52 H21         2.9510   -0.2260   -4.9530 h1        1 2PX      0.046700
     53 H22         3.4670    0.3150   -3.2950 h1        1 2PX      0.046700
     54 H24         4.9500   -2.0580   -3.0940 h1        1 2PX      0.048200
     55 H25         4.0200   -3.4430   -3.8470 h1        1 2PX      0.048200
     56 H26         3.7010   -3.3700   -6.6250 h4        1 2PX      0.179000
     57 H27         5.1020   -2.2080   -8.3910 hn        1 2PX      0.316700
     58 H28         6.1850    0.0510   -3.5900 ha        1 2PX      0.106000
     59 H29         9.0940    1.6430   -4.5010 hc        1 2PX      0.045700
     60 H30         7.8690    2.9230   -4.8760 hc        1 2PX      0.045700
     61 H31         7.6730    1.8840   -3.4020 hc        1 2PX      0.045700
     62 H32         8.1720    1.5810   -7.1180 ha        1 2PX      0.149000
     63 H33         6.9760   -0.0500   -8.5770 ha        1 2PX      0.152000
     64 H143        2.0840    0.8750    3.4120 hn        1 2PX      0.488800
     65 H152        2.6330    0.4450   -1.1690 hn        1 2PX      0.477300
@<TRIPOS>BOND
     1    1    2 2   
     2    2    3 1   
     3    2   15 1   
     4    3    4 1   
     5    3   14 1   
     6    3   33 1   
     7    4    5 1   
     8    4   34 1   
     9    4   35 1   
    10    5    6 2   
    11    5    9 1   
    12    6    7 1   
    13    6   36 1   
    14    7    8 1   
    15    7   37 1   
    16    8    9 ar  
    17    8   13 ar  
    18    9   10 ar  
    19   10   11 ar  
    20   10   38 1   
    21   11   12 ar  
    22   11   39 1   
    23   12   13 ar  
    24   12   40 1   
    25   13   41 1   
    26   14   42 1   
    27   14   43 1   
    28   14   64 1   
    29   15   16 1   
    30   15   44 1   
    31   15   65 1   
    32   16   17 1   
    33   16   19 1   
    34   16   45 1   
    35   17   18 1   
    36   17   46 1   
    37   17   47 1   
    38   18   21 1   
    39   18   48 1   
    40   18   49 1   
    41   19   20 1   
    42   19   50 1   
    43   19   51 1   
    44   20   21 1   
    45   20   52 1   
    46   20   53 1   
    47   21   22 1   
    48   22   23 1   
    49   22   54 1   
    50   22   55 1   
    51   23   24 2   
    52   23   27 1   
    53   24   25 1   
    54   24   56 1   
    55   25   26 1   
    56   25   57 1   
    57   26   27 ar  
    58   26   32 ar  
    59   27   28 ar  
    60   28   29 ar  
    61   28   58 1   
    62   29   30 1   
    63   29   31 ar  
    64   30   59 1   
    65   30   60 1   
    66   30   61 1   
    67   31   32 ar  
    68   31   62 1   
    69   32   63 1   
@<TRIPOS>SUBSTRUCTURE
     1 2PX         1 TEMP              0 ****  ****    0 ROOT
