@<TRIPOS>MOLECULE
2PX
   65    69     1     0     0
SMALL
bcc


@<TRIPOS>ATOM
      1 O01        -0.1060    0.9380    0.3130 o         1 2PX     -0.391100
      2 C02         1.1090    0.8640    0.1730 c         1 2PX      0.510100
      3 C03         2.1050    0.8410    1.3370 c3        1 2PX      0.034500
      4 C04         2.9930   -0.4370    1.2670 c3        1 2PX      0.012800
      5 C05         3.5330   -0.7850    2.5750 cc        1 2PX     -0.325400
      6 C06         4.8570   -0.6070    3.0260 cd        1 2PX     -0.006100
      7 N07         4.9990   -1.1320    4.2900 na        1 2PX     -0.140400
      8 C08         3.7770   -1.7010    4.6860 ca        1 2PX     -0.053200
      9 C09         2.8280   -1.5080    3.6170 ca        1 2PX     -0.117800
     10 C10         1.5360   -2.0300    3.7460 ca        1 2PX     -0.177000
     11 C11         1.1970   -2.6940    4.9150 ca        1 2PX     -0.089000
     12 C12         2.1230   -2.8520    5.9650 ca        1 2PX     -0.097000
     13 C13         3.4190   -2.3710    5.8680 ca        1 2PX     -0.090000
     14 N14         1.3890    0.9300    2.6490 n4        1 2PX     -0.830600
     15 N15         1.6770    0.8100   -1.1970 n4        1 2PX     -0.670800
     16 C16         0.8700   -0.0740   -2.1570 c3        1 2PX      0.143500
     17 C17         1.0570   -1.5520   -1.8290 c3        1 2PX     -0.118400
     18 C18         2.4660   -2.0470   -2.1620 c3        1 2PX      0.164300
     19 C19         1.3210    0.2010   -3.5920 c3        1 2PX     -0.118400
     20 C20         2.7280   -0.3350   -3.8550 c3        1 2PX      0.164300
     21 N21         2.8630   -1.7370   -3.5190 n3        1 2PX     -0.743600
     22 C22         4.1530   -2.3350   -3.8750 c3        1 2PX      0.268000
     23 C23         4.6720   -1.9400   -5.1960 cc        1 2PX     -0.218400
     24 C24         4.3690   -2.5440   -6.4230 cd        1 2PX     -0.047100
     25 N25         5.0880   -1.9360   -7.4430 na        1 2PX     -0.171400
     26 C26         5.8930   -0.9360   -6.8840 ca        1 2PX     -0.055200
     27 C27         5.6500   -0.9060   -5.4600 ca        1 2PX     -0.084800
     28 C28         6.3450    0.0080   -4.6660 ca        1 2PX     -0.121000
     29 C29         7.2520    0.8770   -5.2600 ca        1 2PX     -0.082300
     30 C30         8.0210    1.8470   -4.4460 c3        1 2PX     -0.053800
     31 C31         7.4710    0.8410   -6.6570 ca        1 2PX     -0.110000
     32 C32         6.8080   -0.0520   -7.4800 ca        1 2PX     -0.113000
     33 H1          2.7710    1.7580    1.2640 hx        1 2PX      0.143700
     34 H2          2.3730   -1.2890    0.8710 hc        1 2PX      0.086700
     35 H3          3.8250   -0.2280    0.5400 hc        1 2PX      0.086700
     36 H4          5.7020   -0.1380    2.5080 h4        1 2PX      0.191000
     37 H5          5.8420   -1.1790    4.8120 hn        1 2PX      0.337700
     38 H6          0.8250   -1.9890    2.9090 ha        1 2PX      0.113000
     39 H7          0.1880   -3.1260    5.0290 ha        1 2PX      0.162000
     40 H8          1.8100   -3.3900    6.8770 ha        1 2PX      0.174000
     41 H9          4.1460   -2.5180    6.6830 ha        1 2PX      0.172000
     42 H10         0.7660    0.1150    2.7720 hn        1 2PX      0.488800
     43 H11         2.0990    0.8890    3.4050 hn        1 2PX      0.488800
     44 H13         2.6430    0.4500   -1.1750 hn        1 2PX      0.477300
     45 H14        -0.2110    0.2300   -2.0180 hx        1 2PX      0.124700
     46 H15         0.3060   -2.1170   -2.4520 hc        1 2PX      0.097700
     47 H16         0.8270   -1.7650   -0.7540 hc        1 2PX      0.097700
     48 H17         3.1860   -1.6250   -1.3910 h1        1 2PX      0.046950
     49 H18         2.4840   -3.1690   -2.0460 h1        1 2PX      0.046950
     50 H19         1.2790    1.2920   -3.8440 hc        1 2PX      0.097700
     51 H20         0.5830   -0.3230   -4.2650 hc        1 2PX      0.097700
     52 H21         3.4750    0.3110   -3.3010 h1        1 2PX      0.046950
     53 H22         2.9540   -0.2250   -4.9580 h1        1 2PX      0.046950
     54 H24         3.9870   -3.4530   -3.8550 h1        1 2PX      0.048200
     55 H25         4.9320   -2.0820   -3.0940 h1        1 2PX      0.048200
     56 H26         3.6850   -3.3710   -6.6320 h4        1 2PX      0.179000
     57 H27         5.1030   -2.2160   -8.3900 hn        1 2PX      0.316700
     58 H28         6.1850    0.0210   -3.5790 ha        1 2PX      0.106000
     59 H29         9.1110    1.5900   -4.4730 hc        1 2PX      0.045367
     60 H30         7.6870    1.8420   -3.3800 hc        1 2PX      0.045367
     61 H31         7.8990    2.8820   -4.8510 hc        1 2PX      0.045367
     62 H32         8.2000    1.5430   -7.0940 ha        1 2PX      0.149000
     63 H33         6.9960   -0.0740   -8.5630 ha        1 2PX      0.152000
     64 H143        0.8410    1.7940    2.7150 hn        1 2PX      0.488800
     65 H152        1.6890    1.7630   -1.5910 hn        1 2PX      0.477300
@<TRIPOS>BOND
     1    1    2 2   
     2    2    3 1   
     3    2   15 1   
     4    3    4 1   
     5    3   14 1   
     6    3   33 1   
     7    4    5 1   
     8    4   34 1   
     9    4   35 1   
    10    5    6 2   
    11    5    9 1   
    12    6    7 1   
    13    6   36 1   
    14    7    8 1   
    15    7   37 1   
    16    8    9 ar  
    17    8   13 ar  
    18    9   10 ar  
    19   10   11 ar  
    20   10   38 1   
    21   11   12 ar  
    22   11   39 1   
    23   12   13 ar  
    24   12   40 1   
    25   13   41 1   
    26   14   42 1   
    27   14   43 1   
    28   14   64 1   
    29   15   16 1   
    30   15   44 1   
    31   15   65 1   
    32   16   17 1   
    33   16   19 1   
    34   16   45 1   
    35   17   18 1   
    36   17   46 1   
    37   17   47 1   
    38   18   21 1   
    39   18   48 1   
    40   18   49 1   
    41   19   20 1   
    42   19   50 1   
    43   19   51 1   
    44   20   21 1   
    45   20   52 1   
    46   20   53 1   
    47   21   22 1   
    48   22   23 1   
    49   22   54 1   
    50   22   55 1   
    51   23   24 2   
    52   23   27 1   
    53   24   25 1   
    54   24   56 1   
    55   25   26 1   
    56   25   57 1   
    57   26   27 ar  
    58   26   32 ar  
    59   27   28 ar  
    60   28   29 ar  
    61   28   58 1   
    62   29   30 1   
    63   29   31 ar  
    64   30   59 1   
    65   30   60 1   
    66   30   61 1   
    67   31   32 ar  
    68   31   62 1   
    69   32   63 1   
@<TRIPOS>SUBSTRUCTURE
     1 2PX         1 TEMP              0 ****  ****    0 ROOT
