@<TRIPOS>MOLECULE
2PX
   65    69     1     0     0
SMALL
bcc


@<TRIPOS>ATOM
      1 O01        -0.1180    0.9110    0.3190 o         1 2PX     -0.391100
      2 C02         1.0970    0.8490    0.1770 c         1 2PX      0.510100
      3 C03         2.0960    0.8390    1.3390 c3        1 2PX      0.034500
      4 C04         2.9970   -0.4300    1.2700 c3        1 2PX      0.012800
      5 C05         3.5420   -0.7700    2.5790 cc        1 2PX     -0.325400
      6 C06         4.8640   -0.5770    3.0270 cd        1 2PX     -0.006100
      7 N07         5.0130   -1.0990    4.2930 na        1 2PX     -0.140400
      8 C08         3.7970   -1.6790    4.6910 ca        1 2PX     -0.053200
      9 C09         2.8450   -1.4970    3.6230 ca        1 2PX     -0.117800
     10 C10         1.5590   -2.0330    3.7540 ca        1 2PX     -0.177000
     11 C11         1.2280   -2.6980    4.9250 ca        1 2PX     -0.089000
     12 C12         2.1580   -2.8450    5.9740 ca        1 2PX     -0.097000
     13 C13         3.4480   -2.3500    5.8750 ca        1 2PX     -0.090000
     14 N14         1.3810    0.9240    2.6520 nz        1 2PX     -0.830600
     15 N15         1.6640    0.7970   -1.1940 ny        1 2PX     -0.670800
     16 C16         0.8640   -0.0980   -2.1500 c3        1 2PX      0.143500
     17 C17         1.0670   -1.5730   -1.8180 c3        1 2PX     -0.118400
     18 C18         2.4790   -2.0540   -2.1520 c3        1 2PX      0.164300
     19 C19         1.3090    0.1770   -3.5870 c3        1 2PX     -0.118400
     20 C20         2.7200   -0.3440   -3.8510 c3        1 2PX      0.164300
     21 N21         2.8700   -1.7440   -3.5110 n3        1 2PX     -0.743600
     22 C22         4.1650   -2.3310   -3.8690 c3        1 2PX      0.268000
     23 C23         4.6750   -1.9360   -5.1940 cc        1 2PX     -0.218400
     24 C24         4.3710   -2.5490   -6.4170 cd        1 2PX     -0.047100
     25 N25         5.0800   -1.9400   -7.4430 na        1 2PX     -0.171400
     26 C26         5.8800   -0.9300   -6.8930 ca        1 2PX     -0.055200
     27 C27         5.6430   -0.8960   -5.4680 ca        1 2PX     -0.084800
     28 C28         6.3340    0.0270   -4.6800 ca        1 2PX     -0.121000
     29 C29         7.2310    0.9010   -5.2830 ca        1 2PX     -0.082300
     30 C30         7.9960    1.8810   -4.4770 c3        1 2PX     -0.053800
     31 C31         7.4440    0.8610   -6.6810 ca        1 2PX     -0.110000
     32 C32         6.7840   -0.0420   -7.4970 ca        1 2PX     -0.113000
     33 H1          2.7520    1.7630    1.2630 hx        1 2PX      0.143700
     34 H2          3.8250   -0.2140    0.5420 hc        1 2PX      0.086700
     35 H3          2.3840   -1.2890    0.8770 hc        1 2PX      0.086700
     36 H4          5.7040   -0.1010    2.5080 h4        1 2PX      0.191000
     37 H5          5.8570   -1.1360    4.8140 hn        1 2PX      0.337700
     38 H6          0.8460   -2.0000    2.9180 ha        1 2PX      0.113000
     39 H7          0.2240   -3.1400    5.0410 ha        1 2PX      0.162000
     40 H8          1.8510   -3.3840    6.8880 ha        1 2PX      0.174000
     41 H9          4.1770   -2.4890    6.6890 ha        1 2PX      0.172000
     42 H10         0.8230    1.7820    2.7170 hn        1 2PX      0.488800
     43 H11         0.7670    0.1020    2.7780 hn        1 2PX      0.488800
     44 H13         2.6320    0.4480   -1.1730 hn        1 2PX      0.477300
     45 H14        -0.2210    0.1950   -2.0090 hx        1 2PX      0.124700
     46 H15         0.8410   -1.7850   -0.7420 hc        1 2PX      0.097700
     47 H16         0.3200   -2.1470   -2.4380 hc        1 2PX      0.097700
     48 H17         2.5090   -3.1760   -2.0330 h1        1 2PX      0.046950
     49 H18         3.1970   -1.6220   -1.3850 h1        1 2PX      0.046950
     50 H19         0.5750   -0.3560   -4.2560 hc        1 2PX      0.097700
     51 H20         1.2560    1.2680   -3.8410 hc        1 2PX      0.097700
     52 H21         2.9430   -0.2360   -4.9550 h1        1 2PX      0.046950
     53 H22         3.4620    0.3100   -3.3000 h1        1 2PX      0.046950
     54 H24         4.9450   -2.0640   -3.0920 h1        1 2PX      0.048200
     55 H25         4.0120   -3.4500   -3.8420 h1        1 2PX      0.048200
     56 H26         3.6930   -3.3830   -6.6190 h4        1 2PX      0.179000
     57 H27         5.0930   -2.2240   -8.3880 hn        1 2PX      0.316700
     58 H28         6.1790    0.0440   -3.5930 ha        1 2PX      0.106000
     59 H29         7.8630    2.9130   -4.8860 hc        1 2PX      0.045367
     60 H30         7.6670    1.8770   -3.4090 hc        1 2PX      0.045367
     61 H31         9.0880    1.6340   -4.5080 hc        1 2PX      0.045367
     62 H32         8.1640    1.5660   -7.1250 ha        1 2PX      0.149000
     63 H33         6.9670   -0.0670   -8.5810 ha        1 2PX      0.152000
     64 H143        2.0930    0.8920    3.4070 hn        1 2PX      0.488800
     65 H152        1.6640    1.7500   -1.5910 hn        1 2PX      0.477300
@<TRIPOS>BOND
     1    1    2 2   
     2    2    3 1   
     3    2   15 1   
     4    3    4 1   
     5    3   14 1   
     6    3   33 1   
     7    4    5 1   
     8    4   34 1   
     9    4   35 1   
    10    5    6 2   
    11    5    9 1   
    12    6    7 1   
    13    6   36 1   
    14    7    8 1   
    15    7   37 1   
    16    8    9 ar  
    17    8   13 ar  
    18    9   10 ar  
    19   10   11 ar  
    20   10   38 1   
    21   11   12 ar  
    22   11   39 1   
    23   12   13 ar  
    24   12   40 1   
    25   13   41 1   
    26   14   42 1   
    27   14   43 1   
    28   14   64 1   
    29   15   16 1   
    30   15   44 1   
    31   15   65 1   
    32   16   17 1   
    33   16   19 1   
    34   16   45 1   
    35   17   18 1   
    36   17   46 1   
    37   17   47 1   
    38   18   21 1   
    39   18   48 1   
    40   18   49 1   
    41   19   20 1   
    42   19   50 1   
    43   19   51 1   
    44   20   21 1   
    45   20   52 1   
    46   20   53 1   
    47   21   22 1   
    48   22   23 1   
    49   22   54 1   
    50   22   55 1   
    51   23   24 2   
    52   23   27 1   
    53   24   25 1   
    54   24   56 1   
    55   25   26 1   
    56   25   57 1   
    57   26   27 ar  
    58   26   32 ar  
    59   27   28 ar  
    60   28   29 ar  
    61   28   58 1   
    62   29   30 1   
    63   29   31 ar  
    64   30   59 1   
    65   30   60 1   
    66   30   61 1   
    67   31   32 ar  
    68   31   62 1   
    69   32   63 1   
@<TRIPOS>SUBSTRUCTURE
     1 2PX         1 TEMP              0 ****  ****    0 ROOT
