@<TRIPOS>MOLECULE
2PY
   51    55     1     0     0
SMALL
bcc


@<TRIPOS>ATOM
      1 N1         -0.7130   -1.3220    0.1840 nc        1 2PY     -0.488100
      2 N3          5.3440    0.8250    5.4660 nb        1 2PY     -0.621000
      3 C4          0.1580   -1.2220    2.2750 ca        1 2PY     -0.033200
      4 C5          0.3890   -1.2470    3.6590 ca        1 2PY     -0.131000
      5 C6          1.6620   -0.9310    4.0990 ca        1 2PY     -0.083000
      6 C8          0.5790   -0.9680    0.0410 cd        1 2PY      0.345800
      7 C10         9.0420    5.0340    2.7370 ce        1 2PY     -0.167000
      8 C13         9.3230    2.7050    1.2200 ce        1 2PY     -0.013200
      9 C15         7.9100    4.1630    2.4910 ce        1 2PY     -0.046000
     10 C17         9.9800    1.5340    0.9530 cf        1 2PY     -0.317800
     11 C20         4.0260   -0.2740    3.7350 cp        1 2PY     -0.087300
     12 C21         5.1940   -0.7060    3.0950 ca        1 2PY     -0.111000
     13 C22         6.4260   -0.3620    3.6710 ca        1 2PY     -0.026200
     14 C24         8.7690   -0.1650    3.3100 c3        1 2PY      0.104400
     15 C1          2.7080   -0.5970    3.2030 cp        1 2PY     -0.101000
     16 C2          2.4860   -0.5730    1.8250 ca        1 2PY     -0.038000
     17 C3          1.2170   -0.8810    1.3480 ca        1 2PY     -0.221900
     18 N5         -0.9710   -1.4810    1.4890 na        1 2PY     -0.015100
     19 C11        10.2190    4.8710    2.1000 c2        1 2PY     -0.092200
     20 C12        10.3380    3.8450    1.0280 c3        1 2PY      0.106900
     21 C14         8.0360    3.0310    1.7550 cf        1 2PY     -0.186000
     22 N2         11.6340    3.1840    0.7890 n2        1 2PY     -0.515900
     23 C16        11.4010    1.9010    0.6900 cf        1 2PY      0.422500
     24 C18         6.4660    0.4010    4.8540 ca        1 2PY      0.341200
     25 C19         4.1630    0.4940    4.9210 ca        1 2PY      0.393200
     26 O1          7.5570   -0.8710    3.0390 os        1 2PY     -0.377900
     27 C23         9.7800   -0.5660    2.2180 c3        1 2PY      0.115500
     28 C25         9.4710    0.1600    0.8950 c3        1 2PY     -0.017200
     29 N4          9.7970   -2.0600    2.0300 n4        1 2PY     -0.837600
     30 H5         -0.4100   -1.5080    4.3670 ha        1 2PY      0.152000
     31 H6          1.8750   -0.9470    5.1800 ha        1 2PY      0.141000
     32 H8          1.0310   -0.7820   -0.9340 h4        1 2PY      0.059800
     33 H21         5.1510   -1.3100    2.1780 ha        1 2PY      0.155000
     34 H241        9.1430   -0.4570    4.3280 h1        1 2PY      0.089700
     35 H242        8.6150    0.9480    3.2560 h1        1 2PY      0.089700
     36 H2          3.2910   -0.3050    1.1260 ha        1 2PY      0.134000
     37 HN5        -1.8840   -1.7130    1.8010 hn        1 2PY      0.336700
     38 H11        11.0920    5.5180    2.2760 ha        1 2PY      0.167000
     39 H12        10.0900    4.3770    0.0490 h1        1 2PY      0.142700
     40 H14         7.1950    2.3440    1.5810 ha        1 2PY      0.144000
     41 H16        12.1790    1.1720    0.4390 h4        1 2PY      0.039800
     42 H18         7.4150    0.6900    5.3370 h4        1 2PY      0.027100
     43 H19         3.2660    0.8660    5.4540 h4        1 2PY      0.046100
     44 H23        10.8140   -0.2690    2.5720 hx        1 2PY      0.119700
     45 H251        9.9540   -0.3720    0.0290 hc        1 2PY      0.076200
     46 H252        8.3580    0.1570    0.7300 hc        1 2PY      0.076200
     47 HN41       10.0480   -2.5170    2.9100 hn        1 2PY      0.463133
     48 HN42        8.8550   -2.3700    1.7570 hn        1 2PY      0.463133
     49 H10         8.9020    5.8390    3.4760 ha        1 2PY      0.157000
     50 H43        10.4650   -2.3170    1.3000 hn        1 2PY      0.463133
     51 H15         6.9450    4.4430    2.9460 ha        1 2PY      0.154000
@<TRIPOS>BOND
     1    1    6 2   
     2    1   18 1   
     3    2   24 ar  
     4    2   25 ar  
     5    3    4 ar  
     6    3   17 ar  
     7    3   18 1   
     8    4    5 ar  
     9    4   30 1   
    10    5   15 ar  
    11    5   31 1   
    12    6   17 1   
    13    6   32 1   
    14    7    9 1   
    15    7   19 2   
    16    7   49 1   
    17    8   10 2   
    18    8   20 1   
    19    8   21 1   
    20    9   21 2   
    21    9   51 1   
    22   10   23 1   
    23   10   28 1   
    24   11   12 ar  
    25   11   15 1   
    26   11   25 ar  
    27   12   13 ar  
    28   12   33 1   
    29   13   24 ar  
    30   13   26 1   
    31   14   26 1   
    32   14   27 1   
    33   14   34 1   
    34   14   35 1   
    35   15   16 ar  
    36   16   17 ar  
    37   16   36 1   
    38   18   37 1   
    39   19   20 1   
    40   19   38 1   
    41   20   22 1   
    42   20   39 1   
    43   21   40 1   
    44   22   23 2   
    45   23   41 1   
    46   24   42 1   
    47   25   43 1   
    48   27   28 1   
    49   27   29 1   
    50   27   44 1   
    51   28   45 1   
    52   28   46 1   
    53   29   47 1   
    54   29   48 1   
    55   29   50 1   
@<TRIPOS>SUBSTRUCTURE
     1 2PY         1 TEMP              0 ****  ****    0 ROOT
