@<TRIPOS>MOLECULE
2PY
   51    55     1     0     0
SMALL
bcc


@<TRIPOS>ATOM
      1 N1         -0.7160   -1.3070    0.1830 nc        1 2PY     -0.488100
      2 N3          5.3440    0.8020    5.4760 nb        1 2PY     -0.621000
      3 C4          0.1560   -1.2220    2.2740 ca        1 2PY     -0.033200
      4 C5          0.3890   -1.2560    3.6580 ca        1 2PY     -0.131000
      5 C6          1.6610   -0.9430    4.0990 ca        1 2PY     -0.083000
      6 C8          0.5760   -0.9520    0.0420 cd        1 2PY      0.345800
      7 C10         9.0430    5.0300    2.7720 ce        1 2PY     -0.167000
      8 C13         9.3220    2.7110    1.2400 ce        1 2PY     -0.013200
      9 C15         7.9100    4.1610    2.5220 ce        1 2PY     -0.046000
     10 C17         9.9780    1.5410    0.9650 cf        1 2PY     -0.317800
     11 C20         4.0250   -0.2840    3.7390 cp        1 2PY     -0.087300
     12 C21         5.1930   -0.7120    3.0950 ca        1 2PY     -0.111000
     13 C22         6.4260   -0.3730    3.6720 ca        1 2PY     -0.026200
     14 C24         8.7680   -0.1730    3.3120 c3        1 2PY      0.104400
     15 C1          2.7070   -0.6030    3.2050 cp        1 2PY     -0.101000
     16 C2          2.4840   -0.5700    1.8280 ca        1 2PY     -0.038000
     17 C3          1.2150   -0.8750    1.3490 ca        1 2PY     -0.221900
     18 N5         -0.9730   -1.4750    1.4860 na        1 2PY     -0.015100
     19 C11        10.2190    4.8710    2.1330 c2        1 2PY     -0.092200
     20 C12        10.3380    3.8520    1.0540 c3        1 2PY      0.106900
     21 C14         8.0360    3.0340    1.7780 cf        1 2PY     -0.186000
     22 N2         11.6330    3.1920    0.8100 n2        1 2PY     -0.515900
     23 C16        11.3990    1.9090    0.7020 cf        1 2PY      0.422500
     24 C18         6.4660    0.3820    4.8610 ca        1 2PY      0.341200
     25 C19         4.1630    0.4750    4.9300 ca        1 2PY      0.393200
     26 O1          7.5560   -0.8770    3.0370 os        1 2PY     -0.377900
     27 C23         9.7780   -0.5670    2.2160 c3        1 2PY      0.115500
     28 C25         9.4680    0.1680    0.8980 c3        1 2PY     -0.017200
     29 N4          9.7950   -2.0590    2.0180 nz        1 2PY     -0.837600
     30 H5         -0.4100   -1.5220    4.3640 ha        1 2PY      0.152000
     31 H6          1.8750   -0.9670    5.1800 ha        1 2PY      0.141000
     32 H8          1.0280   -0.7590   -0.9320 h4        1 2PY      0.059800
     33 H21         5.1490   -1.3100    2.1740 ha        1 2PY      0.155000
     34 H241        8.6140    0.9410    3.2650 h1        1 2PY      0.089700
     35 H242        9.1420   -0.4720    4.3270 h1        1 2PY      0.089700
     36 H2          3.2890   -0.2980    1.1300 ha        1 2PY      0.134000
     37 HN5        -1.8860   -1.7090    1.7980 hn        1 2PY      0.336700
     38 H11        11.0930    5.5160    2.3130 ha        1 2PY      0.167000
     39 H12        10.0890    4.3910    0.0800 h1        1 2PY      0.142700
     40 H14         7.1940    2.3490    1.6010 ha        1 2PY      0.144000
     41 H16        12.1760    1.1820    0.4450 h4        1 2PY      0.039800
     42 H18         7.4150    0.6680    5.3450 h4        1 2PY      0.027100
     43 H19         3.2670    0.8440    5.4650 h4        1 2PY      0.046100
     44 H23        10.8130   -0.2720    2.5710 hx        1 2PY      0.119700
     45 H251        8.3550    0.1670    0.7340 hc        1 2PY      0.076200
     46 H252        9.9490   -0.3580    0.0280 hc        1 2PY      0.076200
     47 HN41       10.0470   -2.5220    2.8950 hn        1 2PY      0.463133
     48 HN42        8.8530   -2.3680    1.7440 hn        1 2PY      0.463133
     49 H10         8.9050    5.8300    3.5180 ha        1 2PY      0.157000
     50 H43        10.4620   -2.3110    1.2860 hn        1 2PY      0.463133
     51 H15         6.9470    4.4390    2.9800 ha        1 2PY      0.154000
@<TRIPOS>BOND
     1    1    6 2   
     2    1   18 1   
     3    2   24 ar  
     4    2   25 ar  
     5    3    4 ar  
     6    3   17 ar  
     7    3   18 1   
     8    4    5 ar  
     9    4   30 1   
    10    5   15 ar  
    11    5   31 1   
    12    6   17 1   
    13    6   32 1   
    14    7    9 1   
    15    7   19 2   
    16    7   49 1   
    17    8   10 2   
    18    8   20 1   
    19    8   21 1   
    20    9   21 2   
    21    9   51 1   
    22   10   23 1   
    23   10   28 1   
    24   11   12 ar  
    25   11   15 1   
    26   11   25 ar  
    27   12   13 ar  
    28   12   33 1   
    29   13   24 ar  
    30   13   26 1   
    31   14   26 1   
    32   14   27 1   
    33   14   34 1   
    34   14   35 1   
    35   15   16 ar  
    36   16   17 ar  
    37   16   36 1   
    38   18   37 1   
    39   19   20 1   
    40   19   38 1   
    41   20   22 1   
    42   20   39 1   
    43   21   40 1   
    44   22   23 2   
    45   23   41 1   
    46   24   42 1   
    47   25   43 1   
    48   27   28 1   
    49   27   29 1   
    50   27   44 1   
    51   28   45 1   
    52   28   46 1   
    53   29   47 1   
    54   29   48 1   
    55   29   50 1   
@<TRIPOS>SUBSTRUCTURE
     1 2PY         1 TEMP              0 ****  ****    0 ROOT
