@<TRIPOS>MOLECULE
2PY
   50    54     1     0     0
SMALL
bcc


@<TRIPOS>ATOM
      1 N1         -0.9880   -1.6510    0.6300 nc        1 2PY     -0.506100
      2 N3          5.3400    0.9920    5.3370 nb        1 2PY     -0.633000
      3 C4          0.0590   -1.4700    2.6350 ca        1 2PY     -0.042200
      4 C5          0.4150   -1.4660    3.9910 ca        1 2PY     -0.142000
      5 C6          1.6960   -1.0520    4.3130 ca        1 2PY     -0.084000
      6 C8          0.2550   -1.2000    0.3730 cd        1 2PY      0.347800
      7 C10         9.0800    5.2320    2.2830 ce        1 2PY     -0.154000
      8 C13         9.6690    2.8190    1.0120 ce        1 2PY     -0.087200
      9 C15         8.0320    4.4440    1.6620 ce        1 2PY     -0.107000
     10 C17        10.2560    1.5860    1.0420 cf        1 2PY     -0.226800
     11 C20         3.9610   -0.2170    3.7390 cp        1 2PY     -0.110300
     12 C21         5.0930   -0.5670    2.9970 ca        1 2PY     -0.122000
     13 C22         6.3510   -0.1230    3.4460 ca        1 2PY      0.013800
     14 C24         8.7110   -0.0780    3.1470 c3        1 2PY      0.079400
     15 C1          2.6280   -0.6430    3.3280 cp        1 2PY     -0.075000
     16 C2          2.2800   -0.6460    1.9770 ca        1 2PY     -0.044000
     17 C3          1.0000   -1.0560    1.6170 ca        1 2PY     -0.217900
     18 N5         -1.1220   -1.7970    1.9550 na        1 2PY     -0.024100
     19 C11        10.3850    4.9450    2.1140 c2        1 2PY     -0.115200
     20 C12        10.7870    3.8650    1.1700 c3        1 2PY      0.119900
     21 C14         8.3100    3.2750    1.0400 cf        1 2PY     -0.122000
     22 N2         12.0140    3.0900    1.4380 n2        1 2PY     -0.551900
     23 C16        11.7070    1.8250    1.3050 cf        1 2PY      0.430500
     24 C18         6.4300    0.6540    4.6220 ca        1 2PY      0.324200
     25 C19         4.1430    0.5680    4.9040 ca        1 2PY      0.366200
     26 O1          7.4260   -0.4990    2.6710 os        1 2PY     -0.332900
     27 C23         9.7570   -0.5950    2.1330 c3        1 2PY      0.174500
     28 C25         9.6740    0.2520    0.8480 c3        1 2PY     -0.024200
     29 N4          9.6910   -2.0140    1.8500 n3        1 2PY     -0.894800
     30 H5         -0.2940   -1.7820    4.7680 ha        1 2PY      0.142000
     31 H6          2.0090   -1.0460    5.3700 ha        1 2PY      0.140000
     32 H8          0.6050   -0.9870   -0.6380 h4        1 2PY      0.056800
     33 H15         7.0010    4.8210    1.7400 ha        1 2PY      0.137000
     34 H21         5.0180   -1.1800    2.0880 ha        1 2PY      0.155000
     35 H241        8.7480    1.0410    3.1970 h1        1 2PY      0.052200
     36 H242        8.8900   -0.5170    4.1630 h1        1 2PY      0.052200
     37 H2          2.9990   -0.3230    1.2090 ha        1 2PY      0.143000
     38 HN5        -1.9450   -2.1940    2.3400 hn        1 2PY      0.326700
     39 H11        11.1910    5.5180    2.5930 ha        1 2PY      0.149000
     40 H12        10.9600    4.3620    0.1610 h1        1 2PY      0.114700
     41 H14         7.5290    2.6360    0.6030 ha        1 2PY      0.141000
     42 H16        12.4380    1.0130    1.3890 h4        1 2PY      0.044800
     43 H18         7.3930    1.0250    5.0130 h4        1 2PY      0.029100
     44 H19         3.2740    0.8760    5.5130 h4        1 2PY      0.027100
     45 H23        10.7650   -0.4080    2.6150 h1        1 2PY      0.068700
     46 H251        8.5970    0.3370    0.5380 hc        1 2PY      0.067700
     47 H252       10.2300   -0.2650    0.0180 hc        1 2PY      0.067700
     48 HN41        9.6490   -2.5310    2.7070 hn        1 2PY      0.354300
     49 HN42        8.8750   -2.2250    1.3080 hn        1 2PY      0.354300
     50 H10         8.7610    6.0740    2.9170 ha        1 2PY      0.136000
@<TRIPOS>BOND
     1    1    6 2   
     2    1   18 1   
     3    2   24 ar  
     4    2   25 ar  
     5    3    4 ar  
     6    3   17 ar  
     7    3   18 1   
     8    4    5 ar  
     9    4   30 1   
    10    5   15 ar  
    11    5   31 1   
    12    6   17 1   
    13    6   32 1   
    14    7    9 1   
    15    7   19 2   
    16    7   50 1   
    17    8   10 2   
    18    8   20 1   
    19    8   21 1   
    20    9   21 2   
    21    9   33 1   
    22   10   23 1   
    23   10   28 1   
    24   11   12 ar  
    25   11   15 1   
    26   11   25 ar  
    27   12   13 ar  
    28   12   34 1   
    29   13   24 ar  
    30   13   26 1   
    31   14   26 1   
    32   14   27 1   
    33   14   35 1   
    34   14   36 1   
    35   15   16 ar  
    36   16   17 ar  
    37   16   37 1   
    38   18   38 1   
    39   19   20 1   
    40   19   39 1   
    41   20   22 1   
    42   20   40 1   
    43   21   41 1   
    44   22   23 2   
    45   23   42 1   
    46   24   43 1   
    47   25   44 1   
    48   27   28 1   
    49   27   29 1   
    50   27   45 1   
    51   28   46 1   
    52   28   47 1   
    53   29   48 1   
    54   29   49 1   
@<TRIPOS>SUBSTRUCTURE
     1 2PY         1 TEMP              0 ****  ****    0 ROOT
