@<TRIPOS>MOLECULE
2PY
   50    40     1     0     0
SMALL
bcc


@<TRIPOS>ATOM
      1 N1         -5.4790   -5.1140   -3.0150 n2        1 2PY     -0.039000
      2 N3         -3.9000    0.1550    2.8100 n1        1 2PY     -0.120000
      3 C4         -3.7900   -4.3290   -1.7900 c1        1 2PY     -0.044333
      4 C5         -2.5730   -4.0530   -1.1430 c1        1 2PY     -0.100667
      5 C6         -2.4690   -2.9560   -0.2960 c1        1 2PY     -0.100667
      6 C8         -5.9220   -4.0090   -2.3510 c1        1 2PY     -0.152000
      7 C10         6.9940    0.3350    0.4220 c1        1 2PY     -0.132000
      8 C13         4.5570    2.1110    0.3490 c1        1 2PY     -0.085000
      9 C15         6.3210    0.7750    1.7290 c1        1 2PY     -0.109000
     10 C17         3.1640    1.8380    0.0780 c1        1 2PY     -0.114000
     11 C20        -3.3700   -1.0130    0.7800 c1        1 2PY     -0.044333
     12 C21        -2.4740   -0.0260    0.4400 c1        1 2PY     -0.100000
     13 C22        -2.2890    1.0470    1.2760 c1        1 2PY      0.000000
     14 C24        -0.3770    2.5160    1.2250 c3        1 2PY     -0.066000
     15 C1         -3.5660   -2.1330   -0.0900 c1        1 2PY     -0.044333
     16 C2         -4.7670   -2.4050   -0.7280 c1        1 2PY     -0.043000
     17 C3         -4.8720   -3.5180   -1.5870 c1        1 2PY     -0.134000
     18 N5         -4.1590   -5.3180   -2.6730 n1        1 2PY     -0.198000
     19 C11         6.4840    0.8860   -0.9120 c1        1 2PY     -0.132000
     20 C12         5.3790    1.8930   -0.9190 c1        1 2PY     -0.056500
     21 C14         5.1430    1.7290    1.6810 c2        1 2PY     -0.118000
     22 N2          4.2860    1.4470   -1.8920 n2        1 2PY     -0.142000
     23 C16         3.0160    1.4400   -1.2390 c1        1 2PY     -0.056500
     24 C18        -3.0130    1.1350    2.4750 c1        1 2PY     -0.100000
     25 C19        -4.0880   -0.9230    1.9720 c1        1 2PY     -0.100667
     26 O1         -1.6540    2.1750    0.6530 os        1 2PY     -0.220000
     27 C23         0.7230    2.3530    0.1610 c3        1 2PY     -0.059000
     28 C25         2.0550    2.6870    0.7640 c3        1 2PY     -0.100000
     29 N4          0.4630    3.2280   -0.9270 n3        1 2PY     -0.323000
     30 H5         -1.8000   -4.6330   -1.2880 ha        1 2PY      0.149667
     31 H6         -1.6080   -2.7140    0.0760 ha        1 2PY      0.149667
     32 H8         -6.8230   -3.6290   -2.4030 DU        1 2PY      0.231500
     33 H10         7.7630   -0.2870    0.4430 ha        1 2PY      0.140500
     34 H15         6.6350    0.4320    2.5780 ha        1 2PY      0.133000
     35 H21        -1.9650   -0.0900   -0.4050 ha        1 2PY      0.155000
     36 H241       -0.1880    1.9190    1.9890 h1        1 2PY      0.099000
     37 H242       -0.3960    3.4570    1.5380 h1        1 2PY      0.099000
     38 H2         -5.5270   -1.8340   -0.5860 ha        1 2PY      0.144000
     39 HN5        -3.6190   -5.9980   -2.9810 DU        1 2PY      0.231500
     40 H11         6.9090    0.6100   -1.7590 ha        1 2PY      0.140500
     41 H12         5.7320    2.7390   -1.2110 ha        1 2PY      0.162000
     42 H14         4.7090    2.0130    2.5060 ha        1 2PY      0.134000
     43 H16         2.3510    0.7630   -1.4730 ha        1 2PY      0.162000
     44 H18        -2.8790    1.9100    3.0800 ha        1 2PY      0.166000
     45 H19        -4.7270   -1.6270    2.2140 ha        1 2PY      0.149667
     46 H23         0.7320    1.4290   -0.1580 h1        1 2PY      0.107000
     47 H251        2.2450    3.6430    0.6290 hc        1 2PY      0.093500
     48 H252        2.0390    2.4890    1.7240 hc        1 2PY      0.093500
     49 HN41        1.0070    3.9690   -0.8620 hn        1 2PY      0.147000
     50 HN42       -0.4130    3.4910   -0.9050 hn        1 2PY      0.147000
@<TRIPOS>BOND
     1    1    6 1   
     2    1   18 1   
     3    2   24 1   
     4    3    4 1   
     5    4   30 1   
     6    5   15 1   
     7    5   31 1   
     8    6   17 1   
     9    7   19 1   
    10    7   33 1   
    11    8   10 1   
    12    8   21 1   
    13    9   21 1   
    14    9   34 1   
    15   10   28 1   
    16   11   25 1   
    17   12   13 1   
    18   12   35 1   
    19   13   26 1   
    20   14   26 1   
    21   14   27 1   
    22   14   36 1   
    23   14   37 1   
    24   16   17 1   
    25   16   38 1   
    26   19   40 1   
    27   20   22 1   
    28   20   41 1   
    29   21   42 1   
    30   22   23 1   
    31   23   43 1   
    32   24   44 1   
    33   25   45 1   
    34   27   28 1   
    35   27   29 1   
    36   27   46 1   
    37   28   47 1   
    38   28   48 1   
    39   29   49 1   
    40   29   50 1   
@<TRIPOS>SUBSTRUCTURE
     1 2PY         1 TEMP              0 ****  ****    0 ROOT
