@<TRIPOS>MOLECULE
2PY
   50    54     1     0     0
SMALL
bcc


@<TRIPOS>ATOM
      1 N1          5.6080   -8.3600   -8.7560 nc        1 2PY     -0.505100
      2 N3         -0.7100   -3.0310   -7.8190 nb        1 2PY     -0.633000
      3 C4          3.6120   -7.5060   -9.4160 ca        1 2PY     -0.042200
      4 C5          2.4370   -7.1560  -10.0980 ca        1 2PY     -0.142000
      5 C6          1.5600   -6.2970   -9.4590 ca        1 2PY     -0.084000
      6 C8          5.1730   -7.5790   -7.7480 cd        1 2PY      0.346800
      7 C10         0.5810    1.6040   -3.5570 ce        1 2PY     -0.154000
      8 C13         0.2680   -0.6670   -1.9660 ce        1 2PY     -0.087200
      9 C15         1.3950    0.4240   -3.7790 ce        1 2PY     -0.107000
     10 C17        -0.5450   -1.6180   -1.4200 cf        1 2PY     -0.226800
     11 C20         0.8480   -4.8810   -7.5500 cp        1 2PY     -0.109300
     12 C21         0.5440   -4.9650   -6.1880 ca        1 2PY     -0.122000
     13 C22        -0.3990   -4.0650   -5.6570 ca        1 2PY      0.013800
     14 C24        -1.6400   -3.3060   -3.7740 c3        1 2PY      0.079400
     15 C1          1.8160   -5.7820   -8.1650 cp        1 2PY     -0.075000
     16 C2          2.9810   -6.1300   -7.4790 ca        1 2PY     -0.043000
     17 C3          3.8870   -6.9880   -8.0930 ca        1 2PY     -0.217900
     18 N5          4.6940   -8.3360   -9.7360 na        1 2PY     -0.025100
     19 C11        -0.2120    1.7320   -2.4750 c2        1 2PY     -0.115200
     20 C12        -0.1740    0.6960   -1.4060 c3        1 2PY      0.119900
     21 C14         1.2520   -0.6800   -3.0090 cf        1 2PY     -0.122000
     22 N2         -1.3950    0.4200   -0.6230 n2        1 2PY     -0.551900
     23 C16        -1.5500   -0.8790   -0.5970 cf        1 2PY      0.430500
     24 C18        -1.0030   -3.1140   -6.5070 ca        1 2PY      0.324200
     25 C19         0.1900   -3.8900   -8.3210 ca        1 2PY      0.365200
     26 O1         -0.6530   -4.1970   -4.3090 os        1 2PY     -0.332900
     27 C23        -1.7580   -3.6210   -2.2650 c3        1 2PY      0.174500
     28 C25        -0.5110   -3.0810   -1.5390 c3        1 2PY     -0.024200
     29 N4         -2.0120   -5.0110   -1.9440 n3        1 2PY     -0.894800
     30 H5          2.2210   -7.5500  -11.1000 ha        1 2PY      0.142000
     31 H6          0.6260   -6.0080   -9.9670 ha        1 2PY      0.140000
     32 H8          5.7390   -7.4420   -6.8260 h4        1 2PY      0.056800
     33 H15         2.1120    0.4530   -4.6130 ha        1 2PY      0.137000
     34 H21         1.0150   -5.7150   -5.5390 ha        1 2PY      0.155000
     35 H241       -1.3100   -2.2440   -3.9180 h1        1 2PY      0.052200
     36 H242       -2.6170   -3.4810   -4.2950 h1        1 2PY      0.052200
     37 H2          3.1850   -5.7290   -6.4750 ha        1 2PY      0.143000
     38 HN5         4.8580   -8.8070  -10.5930 hn        1 2PY      0.326700
     39 H11        -0.8500    2.6100   -2.3020 ha        1 2PY      0.149000
     40 H12         0.5980    1.0400   -0.6460 h1        1 2PY      0.114700
     41 H14         1.8230   -1.6030   -3.1860 ha        1 2PY      0.141000
     42 H16        -2.3460   -1.3810   -0.0360 h4        1 2PY      0.044800
     43 H18        -1.7460   -2.3880   -6.1360 h4        1 2PY      0.029100
     44 H19         0.4090   -3.7820   -9.3990 h4        1 2PY      0.027100
     45 H23        -2.6590   -3.0360   -1.9030 h1        1 2PY      0.068700
     46 H251        0.4060   -3.4050   -2.1020 hc        1 2PY      0.067700
     47 H252       -0.4540   -3.5240   -0.5060 hc        1 2PY      0.067700
     48 HN41       -1.1970   -5.5650   -2.1250 hn        1 2PY      0.354300
     49 HN42       -2.7670   -5.3570   -2.5040 hn        1 2PY      0.354300
     50 H10         0.6270    2.3920   -4.3240 ha        1 2PY      0.136000
@<TRIPOS>BOND
     1    1    6 2   
     2    1   18 1   
     3    2   24 ar  
     4    2   25 ar  
     5    3    4 ar  
     6    3   17 ar  
     7    3   18 1   
     8    4    5 ar  
     9    4   30 1   
    10    5   15 ar  
    11    5   31 1   
    12    6   17 1   
    13    6   32 1   
    14    7    9 1   
    15    7   19 2   
    16    7   50 1   
    17    8   10 2   
    18    8   20 1   
    19    8   21 1   
    20    9   21 2   
    21    9   33 1   
    22   10   23 1   
    23   10   28 1   
    24   11   12 ar  
    25   11   15 1   
    26   11   25 ar  
    27   12   13 ar  
    28   12   34 1   
    29   13   24 ar  
    30   13   26 1   
    31   14   26 1   
    32   14   27 1   
    33   14   35 1   
    34   14   36 1   
    35   15   16 ar  
    36   16   17 ar  
    37   16   37 1   
    38   18   38 1   
    39   19   20 1   
    40   19   39 1   
    41   20   22 1   
    42   20   40 1   
    43   21   41 1   
    44   22   23 2   
    45   23   42 1   
    46   24   43 1   
    47   25   44 1   
    48   27   28 1   
    49   27   29 1   
    50   27   45 1   
    51   28   46 1   
    52   28   47 1   
    53   29   48 1   
    54   29   49 1   
@<TRIPOS>SUBSTRUCTURE
     1 2PY         1 TEMP              0 ****  ****    0 ROOT
