@<TRIPOS>MOLECULE
2PZ
   45    47     1     0     0
SMALL
bcc


@<TRIPOS>ATOM
      1 CAD         0.0050   -0.1430    0.1550 ca        1 2PZ     -0.124000
      2 CAC         1.1990    0.5580    0.0990 ca        1 2PZ     -0.106000
      3 CAB         1.8140    1.0630    1.2600 ca        1 2PZ     -0.143000
      4 CAA         1.2470    0.8840    2.5120 ca        1 2PZ     -0.105000
      5 CAF         0.0410    0.1870    2.6160 ca        1 2PZ     -0.082800
      6 CAE        -0.5780   -0.3350    1.4180 ca        1 2PZ     -0.052200
      7 NAG        -1.7580   -0.9910    1.7900 na        1 2PZ     -0.172400
      8 CAI        -1.8850   -0.9210    3.1710 cc        1 2PZ     -0.068100
      9 CAH        -0.8170   -0.1980    3.7160 cd        1 2PZ     -0.211400
     10 CAJ        -0.5780    0.0310    5.1520 c3        1 2PZ      0.271000
     11 NAK        -0.4570    1.4410    5.5300 n3        1 2PZ     -0.753600
     12 CAP        -1.4580    2.3240    4.9700 c3        1 2PZ      0.180300
     13 CAO        -1.0840    3.8010    5.1790 c3        1 2PZ     -0.114900
     14 CAL        -0.2940    1.6390    6.9550 c3        1 2PZ      0.180300
     15 CAM         0.1450    3.0830    7.2660 c3        1 2PZ     -0.114900
     16 CAN        -0.8760    4.0500    6.6750 c3        1 2PZ      0.142500
     17 NAQ        -0.4390    5.5140    6.8840 n4        1 2PZ     -0.671800
     18 C          -0.4710    5.9160    8.3070 c         1 2PZ      0.510100
     19 O          -1.5500    6.1320    8.8450 o         1 2PZ     -0.375100
     20 CA          0.8710    6.0340    9.0280 c3        1 2PZ      0.018800
     21 N           0.7170    6.4680   10.4430 n4        1 2PZ     -0.832600
     22 H1         -0.4650   -0.5430   -0.7540 ha        1 2PZ      0.150000
     23 H2          1.6870    0.7180   -0.8760 ha        1 2PZ      0.147000
     24 H3          2.7700    1.5980    1.1620 ha        1 2PZ      0.135000
     25 H4          1.7390    1.2650    3.4170 ha        1 2PZ      0.123000
     26 H5         -2.3300   -1.5200    1.1830 hn        1 2PZ      0.315700
     27 H6         -2.7280   -1.3970    3.6800 h4        1 2PZ      0.174000
     28 H7         -1.3980   -0.4690    5.7490 h1        1 2PZ      0.052700
     29 H8          0.4060   -0.4480    5.4390 h1        1 2PZ      0.052700
     30 H10        -2.4850    2.1530    5.4090 h1        1 2PZ      0.072950
     31 H11        -1.5120    2.1340    3.8570 h1        1 2PZ      0.072950
     32 H12        -1.9200    4.4330    4.7820 hc        1 2PZ      0.068950
     33 H13        -0.1500    4.0270    4.6010 hc        1 2PZ      0.068950
     34 H14        -1.2370    1.4250    7.5400 h1        1 2PZ      0.072950
     35 H15         0.5110    0.9430    7.3260 h1        1 2PZ      0.072950
     36 H16         1.1630    3.2530    6.8260 hc        1 2PZ      0.068950
     37 H17         0.2020    3.1990    8.3780 hc        1 2PZ      0.068950
     38 H18        -1.8660    3.9520    7.2180 hx        1 2PZ      0.121700
     39 H19        -1.1040    6.1030    6.3530 hn        1 2PZ      0.481800
     40 H20         1.3910    5.0240    9.0110 hx        1 2PZ      0.166200
     41 H21         1.5300    6.7880    8.4940 hx        1 2PZ      0.166200
     42 H22         1.6470    6.5100   10.8910 hn        1 2PZ      0.495467
     43 H23         0.2780    7.4000   10.4960 hn        1 2PZ      0.495467
     44 HAQ2        0.4990    5.6330    6.4830 hn        1 2PZ      0.481800
     45 HN3         0.1240    5.8060   10.9670 hn        1 2PZ      0.495467
@<TRIPOS>BOND
     1    1    2 ar  
     2    1    6 ar  
     3    1   22 1   
     4    2    3 ar  
     5    2   23 1   
     6    3    4 ar  
     7    3   24 1   
     8    4    5 ar  
     9    4   25 1   
    10    5    6 ar  
    11    5    9 1   
    12    6    7 1   
    13    7    8 1   
    14    7   26 1   
    15    8    9 2   
    16    8   27 1   
    17    9   10 1   
    18   10   11 1   
    19   10   28 1   
    20   10   29 1   
    21   11   12 1   
    22   11   14 1   
    23   12   13 1   
    24   12   30 1   
    25   12   31 1   
    26   13   16 1   
    27   13   32 1   
    28   13   33 1   
    29   14   15 1   
    30   14   34 1   
    31   14   35 1   
    32   15   16 1   
    33   15   36 1   
    34   15   37 1   
    35   16   17 1   
    36   16   38 1   
    37   17   18 1   
    38   17   39 1   
    39   17   44 1   
    40   18   19 2   
    41   18   20 1   
    42   20   21 1   
    43   20   40 1   
    44   20   41 1   
    45   21   42 1   
    46   21   43 1   
    47   21   45 1   
@<TRIPOS>SUBSTRUCTURE
     1 2PZ         1 TEMP              0 ****  ****    0 ROOT
