@<TRIPOS>MOLECULE
2PZ
   45    47     1     0     0
SMALL
bcc


@<TRIPOS>ATOM
      1 CAD        -0.0670   -0.0840    0.1240 ca        1 2PZ     -0.124000
      2 CAC         1.1290    0.6140    0.0610 ca        1 2PZ     -0.106000
      3 CAB         1.7590    1.1050    1.2200 ca        1 2PZ     -0.143000
      4 CAA         1.2080    0.9140    2.4770 ca        1 2PZ     -0.105000
      5 CAF         0.0010    0.2200    2.5880 ca        1 2PZ     -0.082800
      6 CAE        -0.6350   -0.2870    1.3930 ca        1 2PZ     -0.052200
      7 NAG        -1.8120   -0.9440    1.7720 na        1 2PZ     -0.172400
      8 CAI        -1.9220   -0.8880    3.1550 cc        1 2PZ     -0.068100
      9 CAH        -0.8440   -0.1740    3.6940 cd        1 2PZ     -0.211400
     10 CAJ        -0.5870    0.0380    5.1300 c3        1 2PZ      0.271000
     11 NAK        -0.4570    1.4430    5.5220 n3        1 2PZ     -0.753600
     12 CAP        -1.4620    2.3350    4.9840 c3        1 2PZ      0.180300
     13 CAO        -1.0810    3.8090    5.2050 c3        1 2PZ     -0.114900
     14 CAL        -0.2770    1.6250    6.9470 c3        1 2PZ      0.180300
     15 CAM         0.1710    3.0640    7.2690 c3        1 2PZ     -0.114900
     16 CAN        -0.8540    4.0410    6.7010 c3        1 2PZ      0.142500
     17 NAQ        -0.4090    5.5000    6.9200 n4        1 2PZ     -0.671800
     18 C          -0.4240    5.8880    8.3480 c         1 2PZ      0.510100
     19 O          -1.4960    6.1010    8.9010 o         1 2PZ     -0.375100
     20 CA          0.9260    5.9930    9.0560 c3        1 2PZ      0.018800
     21 N           0.7900    6.4120   10.4760 n4        1 2PZ     -0.832600
     22 H1         -0.5490   -0.4720   -0.7830 ha        1 2PZ      0.150000
     23 H2          1.6050    0.7830   -0.9180 ha        1 2PZ      0.147000
     24 H3          2.7160    1.6380    1.1160 ha        1 2PZ      0.135000
     25 H4          1.7120    1.2840    3.3800 ha        1 2PZ      0.123000
     26 H5         -2.3940   -1.4640    1.1660 hn        1 2PZ      0.315700
     27 H6         -2.7590   -1.3670    3.6700 h4        1 2PZ      0.174000
     28 H7          0.3990   -0.4470    5.3990 h1        1 2PZ      0.052700
     29 H8         -1.4010   -0.4660    5.7320 h1        1 2PZ      0.052700
     30 H10        -1.5300    2.1590    3.8700 h1        1 2PZ      0.072950
     31 H11        -2.4840    2.1630    5.4330 h1        1 2PZ      0.072950
     32 H12        -1.9190    4.4480    4.8240 hc        1 2PZ      0.068950
     33 H13        -0.1520    4.0380    4.6180 hc        1 2PZ      0.068950
     34 H14         0.5310    0.9220    7.3010 h1        1 2PZ      0.072950
     35 H15        -1.2140    1.4080    7.5410 h1        1 2PZ      0.072950
     36 H16         1.1840    3.2360    6.8190 hc        1 2PZ      0.068950
     37 H17         0.2410    3.1670    8.3820 hc        1 2PZ      0.068950
     38 H18        -1.8370    3.9400    7.2540 hx        1 2PZ      0.121700
     39 H19        -1.0790    6.0980    6.4040 hn        1 2PZ      0.481800
     40 H20         1.5810    6.7510    8.5220 hx        1 2PZ      0.166200
     41 H21         1.4430    4.9810    9.0210 hx        1 2PZ      0.166200
     42 H22         0.3550    7.3450   10.5450 hn        1 2PZ      0.495467
     43 H23         1.7250    6.4460   10.9140 hn        1 2PZ      0.495467
     44 HAQ2        0.5240    5.6210    6.5110 hn        1 2PZ      0.481800
     45 HN3         0.2000    5.7470   11.0000 hn        1 2PZ      0.495467
@<TRIPOS>BOND
     1    1    2 ar  
     2    1    6 ar  
     3    1   22 1   
     4    2    3 ar  
     5    2   23 1   
     6    3    4 ar  
     7    3   24 1   
     8    4    5 ar  
     9    4   25 1   
    10    5    6 ar  
    11    5    9 1   
    12    6    7 1   
    13    7    8 1   
    14    7   26 1   
    15    8    9 2   
    16    8   27 1   
    17    9   10 1   
    18   10   11 1   
    19   10   28 1   
    20   10   29 1   
    21   11   12 1   
    22   11   14 1   
    23   12   13 1   
    24   12   30 1   
    25   12   31 1   
    26   13   16 1   
    27   13   32 1   
    28   13   33 1   
    29   14   15 1   
    30   14   34 1   
    31   14   35 1   
    32   15   16 1   
    33   15   36 1   
    34   15   37 1   
    35   16   17 1   
    36   16   38 1   
    37   17   18 1   
    38   17   39 1   
    39   17   44 1   
    40   18   19 2   
    41   18   20 1   
    42   20   21 1   
    43   20   40 1   
    44   20   41 1   
    45   21   42 1   
    46   21   43 1   
    47   21   45 1   
@<TRIPOS>SUBSTRUCTURE
     1 2PZ         1 TEMP              0 ****  ****    0 ROOT
