@<TRIPOS>MOLECULE
2PZ
   45    47     1     0     0
SMALL
bcc


@<TRIPOS>ATOM
      1 CAD        -0.0560   -0.1110    0.1380 ca        1 2PZ     -0.124000
      2 CAC         1.1370    0.5920    0.0700 ca        1 2PZ     -0.106000
      3 CAB         1.7650    1.0900    1.2270 ca        1 2PZ     -0.143000
      4 CAA         1.2150    0.9040    2.4850 ca        1 2PZ     -0.105000
      5 CAF         0.0110    0.2050    2.5990 ca        1 2PZ     -0.082800
      6 CAE        -0.6230   -0.3100    1.4070 ca        1 2PZ     -0.052200
      7 NAG        -1.7980   -0.9700    1.7890 na        1 2PZ     -0.172400
      8 CAI        -1.9080   -0.9080    3.1720 cc        1 2PZ     -0.068100
      9 CAH        -0.8330   -0.1870    3.7080 cd        1 2PZ     -0.211400
     10 CAJ        -0.5760    0.0340    5.1430 c3        1 2PZ      0.271000
     11 NAK        -0.4520    1.4410    5.5270 n3        1 2PZ     -0.753600
     12 CAP        -1.4620    2.3270    4.9850 c3        1 2PZ      0.180300
     13 CAO        -1.0860    3.8030    5.1980 c3        1 2PZ     -0.114900
     14 CAL        -0.2730    1.6310    6.9510 c3        1 2PZ      0.180300
     15 CAM         0.1690    3.0740    7.2660 c3        1 2PZ     -0.114900
     16 CAN        -0.8600    4.0430    6.6930 c3        1 2PZ      0.142500
     17 NAQ        -0.4220    5.5060    6.9050 ny        1 2PZ     -0.671800
     18 C          -0.4380    5.9000    8.3310 c         1 2PZ      0.510100
     19 O          -1.5100    6.1110    8.8830 o         1 2PZ     -0.375100
     20 CA          0.9120    6.0160    9.0370 c3        1 2PZ      0.018800
     21 N           0.7760    6.4400   10.4550 nz        1 2PZ     -0.832600
     22 H1         -0.5370   -0.5050   -0.7680 ha        1 2PZ      0.150000
     23 H2          1.6120    0.7580   -0.9090 ha        1 2PZ      0.147000
     24 H3          2.7200    1.6270    1.1210 ha        1 2PZ      0.135000
     25 H4          1.7170    1.2810    3.3860 ha        1 2PZ      0.123000
     26 H5         -2.3770   -1.4950    1.1860 hn        1 2PZ      0.315700
     27 H6         -2.7430   -1.3880    3.6890 h4        1 2PZ      0.174000
     28 H7          0.4110   -0.4460    5.4140 h1        1 2PZ      0.052700
     29 H8         -1.3890   -0.4710    5.7470 h1        1 2PZ      0.052700
     30 H10        -1.5290    2.1440    3.8710 h1        1 2PZ      0.072950
     31 H11        -2.4830    2.1520    5.4350 h1        1 2PZ      0.072950
     32 H12        -1.9280    4.4370    4.8150 hc        1 2PZ      0.068950
     33 H13        -0.1590    4.0340    4.6090 hc        1 2PZ      0.068950
     34 H14        -1.2080    1.4130    7.5460 h1        1 2PZ      0.072950
     35 H15         0.5380    0.9340    7.3080 h1        1 2PZ      0.072950
     36 H16         1.1810    3.2480    6.8140 hc        1 2PZ      0.068950
     37 H17         0.2390    3.1830    8.3780 hc        1 2PZ      0.068950
     38 H18        -1.8430    3.9410    7.2470 hx        1 2PZ      0.121700
     39 H19         0.5110    5.6290    6.4940 hn        1 2PZ      0.481800
     40 H20         1.4340    5.0060    9.0070 hx        1 2PZ      0.166200
     41 H21         1.5640    6.7740    8.4990 hx        1 2PZ      0.166200
     42 H22         0.3360    7.3710   10.5200 hn        1 2PZ      0.495467
     43 H23         1.7110    6.4810   10.8920 hn        1 2PZ      0.495467
     44 HAQ2       -1.0940    6.0980    6.3850 hn        1 2PZ      0.481800
     45 HN3         0.1900    5.7740   10.9830 hn        1 2PZ      0.495467
@<TRIPOS>BOND
     1    1    2 ar  
     2    1    6 ar  
     3    1   22 1   
     4    2    3 ar  
     5    2   23 1   
     6    3    4 ar  
     7    3   24 1   
     8    4    5 ar  
     9    4   25 1   
    10    5    6 ar  
    11    5    9 1   
    12    6    7 1   
    13    7    8 1   
    14    7   26 1   
    15    8    9 2   
    16    8   27 1   
    17    9   10 1   
    18   10   11 1   
    19   10   28 1   
    20   10   29 1   
    21   11   12 1   
    22   11   14 1   
    23   12   13 1   
    24   12   30 1   
    25   12   31 1   
    26   13   16 1   
    27   13   32 1   
    28   13   33 1   
    29   14   15 1   
    30   14   34 1   
    31   14   35 1   
    32   15   16 1   
    33   15   36 1   
    34   15   37 1   
    35   16   17 1   
    36   16   38 1   
    37   17   18 1   
    38   17   39 1   
    39   17   44 1   
    40   18   19 2   
    41   18   20 1   
    42   20   21 1   
    43   20   40 1   
    44   20   41 1   
    45   21   42 1   
    46   21   43 1   
    47   21   45 1   
@<TRIPOS>SUBSTRUCTURE
     1 2PZ         1 TEMP              0 ****  ****    0 ROOT
