@<TRIPOS>MOLECULE
2Q0
   36    37     1     0     0
SMALL
bcc


@<TRIPOS>ATOM
      1 CAA         0.0990   -0.3960    0.4640 c3        1 2Q0     -0.093100
      2 CAR         1.5880   -0.3070    0.2150 c3        1 2Q0     -0.080700
      3 CAB         2.3600   -0.6450    1.4740 c3        1 2Q0     -0.093100
      4 CAK         2.0210   -1.2770   -0.8980 c3        1 2Q0      0.083000
      5 NAS         1.6290   -0.8970   -2.2340 n         1 2Q0     -0.416400
      6 CAO         0.4220   -1.4340   -2.8720 c         1 2Q0      0.748700
      7 OAC        -0.2310   -2.3160   -2.3050 o         1 2Q0     -0.589500
      8 CAP         2.2970    0.0180   -2.9880 c         1 2Q0      0.476300
      9 SAE         3.6220    0.7940   -2.8210 s         1 2Q0     -0.309400
     10 SAL         1.4240    0.1480   -4.5850 sx        1 2Q0      0.405100
     11 CAQ         0.2140   -0.7880   -4.1460 ce        1 2Q0     -0.917400
     12 CAF        -1.0700   -0.9840   -4.8430 c3        1 2Q0      0.091100
     13 CAN        -0.9160   -1.2540   -6.3030 ca        1 2Q0     -0.128300
     14 CAI        -1.3650   -0.3240   -7.2490 ca        1 2Q0     -0.092500
     15 CAG        -1.2450   -0.5750   -8.6120 ca        1 2Q0     -0.186000
     16 CAM        -0.6690   -1.7840   -9.0330 ca        1 2Q0      0.120100
     17 OAD        -0.5700   -1.9780  -10.3930 oh        1 2Q0     -0.498100
     18 CAH        -0.2220   -2.7300   -8.0990 ca        1 2Q0     -0.186000
     19 CAJ        -0.3520   -2.4580   -6.7410 ca        1 2Q0     -0.092500
     20 H1         -0.4720   -0.2210   -0.4790 hc        1 2Q0      0.040533
     21 H2         -0.1750   -1.4080    0.8510 hc        1 2Q0      0.040533
     22 H3         -0.2110    0.3680    1.2170 hc        1 2Q0      0.040533
     23 H4          1.8470    0.7460   -0.0890 hc        1 2Q0      0.056700
     24 H5          3.4560   -0.5040    1.3140 hc        1 2Q0      0.040533
     25 H6          2.1760   -1.7040    1.7770 hc        1 2Q0      0.040533
     26 H7          2.0340    0.0220    2.3090 hc        1 2Q0      0.040533
     27 H8          1.5640   -2.2900   -0.6970 h1        1 2Q0      0.080200
     28 H9          3.1460   -1.3680   -0.8800 h1        1 2Q0      0.080200
     29 H10        -1.6120   -1.8520   -4.3700 hc        1 2Q0      0.054700
     30 H11        -1.7210   -0.0760   -4.6970 hc        1 2Q0      0.054700
     31 H12        -1.8270    0.6180   -6.9150 ha        1 2Q0      0.138000
     32 H13        -1.5960    0.1490   -9.3600 ha        1 2Q0      0.142000
     33 H14        -0.1890   -2.8550  -10.5410 ho        1 2Q0      0.419000
     34 H15         0.2200   -3.6780   -8.4380 ha        1 2Q0      0.142000
     35 H16        -0.0120   -3.1970   -5.9980 ha        1 2Q0      0.138000
     36 H17         0.9470    1.3590   -4.5580 hs        1 2Q0      0.211000
@<TRIPOS>BOND
     1    1    2 1   
     2    1   20 1   
     3    1   21 1   
     4    1   22 1   
     5    2    3 1   
     6    2    4 1   
     7    2   23 1   
     8    3   24 1   
     9    3   25 1   
    10    3   26 1   
    11    4    5 1   
    12    4   27 1   
    13    4   28 1   
    14    5    6 1   
    15    5    8 1   
    16    6    7 2   
    17    6   11 1   
    18    8    9 2   
    19    8   10 1   
    20   10   11 2   
    21   10   36 1   
    22   11   12 1   
    23   12   13 1   
    24   12   29 1   
    25   12   30 1   
    26   13   14 ar  
    27   13   19 ar  
    28   14   15 ar  
    29   14   31 1   
    30   15   16 ar  
    31   15   32 1   
    32   16   17 1   
    33   16   18 ar  
    34   17   33 1   
    35   18   19 ar  
    36   18   34 1   
    37   19   35 1   
@<TRIPOS>SUBSTRUCTURE
     1 2Q0         1 TEMP              0 ****  ****    0 ROOT
