@<TRIPOS>MOLECULE
2Q0
   36    37     1     0     0
SMALL
bcc


@<TRIPOS>ATOM
      1 CAA         0.1010   -0.4320    0.4690 c3        1 2Q0     -0.093100
      2 CAR         1.5890   -0.3270    0.2170 c3        1 2Q0     -0.080700
      3 CAB         2.3660   -0.6660    1.4730 c3        1 2Q0     -0.093100
      4 CAK         2.0290   -1.2830   -0.9040 c3        1 2Q0      0.083000
      5 NAS         1.6320   -0.8950   -2.2360 n         1 2Q0     -0.416400
      6 CAO         0.4280   -1.4370   -2.8760 c         1 2Q0      0.748700
      7 OAC        -0.2170   -2.3280   -2.3150 o         1 2Q0     -0.589500
      8 CAP         2.2910    0.0310   -2.9850 c         1 2Q0      0.476300
      9 SAE         3.6100    0.8160   -2.8140 s         1 2Q0     -0.309400
     10 SAL         1.4140    0.1670   -4.5790 sx        1 2Q0      0.405100
     11 CAQ         0.2120   -0.7830   -4.1450 ce        1 2Q0     -0.917400
     12 CAF        -1.0710   -0.9840   -4.8410 c3        1 2Q0      0.091100
     13 CAN        -0.9180   -1.2450   -6.3030 ca        1 2Q0     -0.128300
     14 CAI        -1.3750   -0.3120   -7.2430 ca        1 2Q0     -0.092500
     15 CAG        -1.2560   -0.5560   -8.6070 ca        1 2Q0     -0.186000
     16 CAM        -0.6720   -1.7590   -9.0360 ca        1 2Q0      0.120100
     17 OAD        -0.5750   -1.9450  -10.3960 oh        1 2Q0     -0.498100
     18 CAH        -0.2180   -2.7070   -8.1070 ca        1 2Q0     -0.186000
     19 CAJ        -0.3470   -2.4430   -6.7470 ca        1 2Q0     -0.092500
     20 H1         -0.4730   -0.2560   -0.4730 hc        1 2Q0      0.040533
     21 H2         -0.2150    0.3230    1.2280 hc        1 2Q0      0.040533
     22 H3         -0.1610   -1.4500    0.8480 hc        1 2Q0      0.040533
     23 H4          1.8360    0.7320   -0.0780 hc        1 2Q0      0.056700
     24 H5          3.4610   -0.5130    1.3120 hc        1 2Q0      0.040533
     25 H6          2.0350   -0.0090    2.3130 hc        1 2Q0      0.040533
     26 H7          2.1950   -1.7300    1.7670 hc        1 2Q0      0.040533
     27 H8          3.1560   -1.3630   -0.8890 h1        1 2Q0      0.080200
     28 H9          1.5830   -2.3020   -0.7100 h1        1 2Q0      0.080200
     29 H10        -1.7280   -0.0810   -4.6890 hc        1 2Q0      0.054700
     30 H11        -1.6070   -1.8580   -4.3710 hc        1 2Q0      0.054700
     31 H12        -1.8430    0.6240   -6.9030 ha        1 2Q0      0.138000
     32 H13        -1.6130    0.1700   -9.3510 ha        1 2Q0      0.142000
     33 H14        -0.1880   -2.8190  -10.5500 ho        1 2Q0      0.419000
     34 H15         0.2300   -3.6500   -8.4510 ha        1 2Q0      0.142000
     35 H16        -0.0010   -3.1830   -6.0090 ha        1 2Q0      0.138000
     36 H17         0.9270    1.3730   -4.5410 hs        1 2Q0      0.211000
@<TRIPOS>BOND
     1    1    2 1   
     2    1   20 1   
     3    1   21 1   
     4    1   22 1   
     5    2    3 1   
     6    2    4 1   
     7    2   23 1   
     8    3   24 1   
     9    3   25 1   
    10    3   26 1   
    11    4    5 1   
    12    4   27 1   
    13    4   28 1   
    14    5    6 1   
    15    5    8 1   
    16    6    7 2   
    17    6   11 1   
    18    8    9 2   
    19    8   10 1   
    20   10   11 2   
    21   10   36 1   
    22   11   12 1   
    23   12   13 1   
    24   12   29 1   
    25   12   30 1   
    26   13   14 ar  
    27   13   19 ar  
    28   14   15 ar  
    29   14   31 1   
    30   15   16 ar  
    31   15   32 1   
    32   16   17 1   
    33   16   18 ar  
    34   17   33 1   
    35   18   19 ar  
    36   18   34 1   
    37   19   35 1   
@<TRIPOS>SUBSTRUCTURE
     1 2Q0         1 TEMP              0 ****  ****    0 ROOT
