@<TRIPOS>MOLECULE
2Q0
   36    37     1     0     0
SMALL
bcc


@<TRIPOS>ATOM
      1 CAA         0.0950   -0.4450    0.4700 c3        1 2Q0     -0.093100
      2 CAR         1.5800   -0.3050    0.2160 c3        1 2Q0     -0.080700
      3 CAB         2.3670   -0.6280    1.4700 c3        1 2Q0     -0.093100
      4 CAK         2.0400   -1.2500   -0.9070 c3        1 2Q0      0.083000
      5 NAS         1.6320   -0.8690   -2.2380 n         1 2Q0     -0.416400
      6 CAO         0.4400   -1.4380   -2.8770 c         1 2Q0      0.748700
      7 OAC        -0.1840   -2.3440   -2.3160 o         1 2Q0     -0.589500
      8 CAP         2.2680    0.0730   -2.9860 c         1 2Q0      0.476300
      9 SAE         3.5700    0.8870   -2.8160 s         1 2Q0     -0.309400
     10 SAL         1.3860    0.1900   -4.5790 sx        1 2Q0      0.405100
     11 CAQ         0.2060   -0.7870   -4.1440 ce        1 2Q0     -0.917400
     12 CAF        -1.0730   -1.0160   -4.8390 c3        1 2Q0      0.091100
     13 CAN        -0.9160   -1.2730   -6.3010 ca        1 2Q0     -0.128300
     14 CAI        -1.3950   -0.3510   -7.2400 ca        1 2Q0     -0.092500
     15 CAG        -1.2720   -0.5920   -8.6050 ca        1 2Q0     -0.186000
     16 CAM        -0.6620   -1.7810   -9.0350 ca        1 2Q0      0.120100
     17 OAD        -0.5620   -1.9640  -10.3950 oh        1 2Q0     -0.498100
     18 CAH        -0.1850   -2.7190   -8.1070 ca        1 2Q0     -0.186000
     19 CAJ        -0.3180   -2.4580   -6.7470 ca        1 2Q0     -0.092500
     20 H1         -0.4850   -0.2810   -0.4700 hc        1 2Q0      0.040533
     21 H2         -0.2370    0.3020    1.2310 hc        1 2Q0      0.040533
     22 H3         -0.1430   -1.4680    0.8490 hc        1 2Q0      0.040533
     23 H4          1.8020    0.7590   -0.0790 hc        1 2Q0      0.056700
     24 H5          3.4570   -0.4490    1.3070 hc        1 2Q0      0.040533
     25 H6          2.0220    0.0200    2.3120 hc        1 2Q0      0.040533
     26 H7          2.2200   -1.6950    1.7630 hc        1 2Q0      0.040533
     27 H8          3.1670   -1.3040   -0.8940 h1        1 2Q0      0.080200
     28 H9          1.6170   -2.2780   -0.7140 h1        1 2Q0      0.080200
     29 H10        -1.7490   -0.1280   -4.6850 hc        1 2Q0      0.054700
     30 H11        -1.5880   -1.9020   -4.3690 hc        1 2Q0      0.054700
     31 H12        -1.8840    0.5740   -6.8990 ha        1 2Q0      0.138000
     32 H13        -1.6460    0.1260   -9.3480 ha        1 2Q0      0.142000
     33 H14        -0.1550   -2.8290  -10.5500 ho        1 2Q0      0.419000
     34 H15         0.2840   -3.6510   -8.4520 ha        1 2Q0      0.142000
     35 H16         0.0460   -3.1900   -6.0090 ha        1 2Q0      0.138000
     36 H17         0.8720    1.3850   -4.5390 hs        1 2Q0      0.211000
@<TRIPOS>BOND
     1    1    2 1   
     2    1   20 1   
     3    1   21 1   
     4    1   22 1   
     5    2    3 1   
     6    2    4 1   
     7    2   23 1   
     8    3   24 1   
     9    3   25 1   
    10    3   26 1   
    11    4    5 1   
    12    4   27 1   
    13    4   28 1   
    14    5    6 1   
    15    5    8 1   
    16    6    7 2   
    17    6   11 1   
    18    8    9 2   
    19    8   10 1   
    20   10   11 2   
    21   10   36 1   
    22   11   12 1   
    23   12   13 1   
    24   12   29 1   
    25   12   30 1   
    26   13   14 ar  
    27   13   19 ar  
    28   14   15 ar  
    29   14   31 1   
    30   15   16 ar  
    31   15   32 1   
    32   16   17 1   
    33   16   18 ar  
    34   17   33 1   
    35   18   19 ar  
    36   18   34 1   
    37   19   35 1   
@<TRIPOS>SUBSTRUCTURE
     1 2Q0         1 TEMP              0 ****  ****    0 ROOT
