@<TRIPOS>MOLECULE
2Q0
   36    37     1     0     0
SMALL
bcc


@<TRIPOS>ATOM
      1 CAA        -3.6700    1.5110    1.7700 c3        1 2Q0     -0.092600
      2 CAR        -4.2160    0.3910    0.9130 c3        1 2Q0     -0.080700
      3 CAB        -5.7250    0.4810    0.8170 c3        1 2Q0     -0.092600
      4 CAK        -3.6310    0.4480   -0.5090 c3        1 2Q0      0.086000
      5 NAS        -2.2480    0.0530   -0.6210 n         1 2Q0     -0.417400
      6 CAO        -1.1620    1.0370   -0.6940 c         1 2Q0      0.748700
      7 OAC        -1.4180    2.2410   -0.5980 o         1 2Q0     -0.588500
      8 CAP        -1.8300   -1.2410   -0.6760 c         1 2Q0      0.477300
      9 SAE        -2.5380   -2.6110   -0.5780 s         1 2Q0     -0.311400
     10 SAL        -0.0090   -1.2230   -0.7710 sx        1 2Q0      0.409100
     11 CAQ         0.0980    0.3610   -0.8880 ce        1 2Q0     -0.921400
     12 CAF         1.2860    1.1580   -1.2420 c3        1 2Q0      0.091100
     13 CAN         2.5220    0.7330   -0.5210 ca        1 2Q0     -0.129300
     14 CAI         2.6220    0.9060    0.8670 ca        1 2Q0     -0.093000
     15 CAG         3.7740    0.5380    1.5510 ca        1 2Q0     -0.186500
     16 CAM         4.8500   -0.0090    0.8310 ca        1 2Q0      0.121100
     17 OAD         5.9620   -0.3610    1.5610 oh        1 2Q0     -0.497100
     18 CAH         4.7700   -0.1800   -0.5570 ca        1 2Q0     -0.186500
     19 CAJ         3.6050    0.1950   -1.2230 ca        1 2Q0     -0.093000
     20 H1         -3.9990    2.5030    1.3750 hc        1 2Q0      0.040200
     21 H2         -4.0370    1.4070    2.8190 hc        1 2Q0      0.040200
     22 H3         -2.5530    1.4960    1.7770 hc        1 2Q0      0.040200
     23 H4         -3.9480   -0.5970    1.3840 hc        1 2Q0      0.060700
     24 H5         -6.0320    1.4210    0.2970 hc        1 2Q0      0.040200
     25 H6         -6.1370   -0.3900    0.2520 hc        1 2Q0      0.040200
     26 H7         -6.1710    0.4820    1.8410 hc        1 2Q0      0.040200
     27 H8         -4.2410   -0.2290   -1.1760 h1        1 2Q0      0.077200
     28 H9         -3.7050    1.5080   -0.8890 h1        1 2Q0      0.077200
     29 H10         1.4620    1.1000   -2.3530 hc        1 2Q0      0.055200
     30 H11         1.0810    2.2410   -1.0020 hc        1 2Q0      0.055200
     31 H12         1.7750    1.3450    1.4170 ha        1 2Q0      0.138000
     32 H13         3.8610    0.6710    2.6390 ha        1 2Q0      0.142000
     33 H14         6.6330   -0.6880    0.9440 ho        1 2Q0      0.418000
     34 H15         5.6180   -0.6010   -1.1150 ha        1 2Q0      0.142000
     35 H16         3.5450    0.0720   -2.3160 ha        1 2Q0      0.138000
     36 H17         0.2190   -1.6710   -1.9720 hs        1 2Q0      0.210000
@<TRIPOS>BOND
     1    1    2 1   
     2    1   20 1   
     3    1   21 1   
     4    1   22 1   
     5    2    3 1   
     6    2    4 1   
     7    2   23 1   
     8    3   24 1   
     9    3   25 1   
    10    3   26 1   
    11    4    5 1   
    12    4   27 1   
    13    4   28 1   
    14    5    6 1   
    15    5    8 1   
    16    6    7 2   
    17    6   11 1   
    18    8    9 2   
    19    8   10 1   
    20   10   11 2   
    21   10   36 1   
    22   11   12 1   
    23   12   13 1   
    24   12   29 1   
    25   12   30 1   
    26   13   14 ar  
    27   13   19 ar  
    28   14   15 ar  
    29   14   31 1   
    30   15   16 ar  
    31   15   32 1   
    32   16   17 1   
    33   16   18 ar  
    34   17   33 1   
    35   18   19 ar  
    36   18   34 1   
    37   19   35 1   
@<TRIPOS>SUBSTRUCTURE
     1 2Q0         1 TEMP              0 ****  ****    0 ROOT
