@<TRIPOS>MOLECULE
2Q0
   36    32     1     0     0
SMALL
bcc


@<TRIPOS>ATOM
      1 CAA         3.9920    3.3120    0.3050 c3        1 2Q0     -0.210500
      2 CAR         3.2190    2.0530    0.6020 c3        1 2Q0     -0.120000
      3 CAB         4.0450    1.1530    1.5170 c3        1 2Q0     -0.210500
      4 CAK         1.8850    2.4150    1.2990 c3        1 2Q0     -0.030000
      5 NAS         0.7930    1.7890    0.6010 n         1 2Q0     -0.246000
      6 CAO         0.0670    0.3340    1.0090 c1        1 2Q0      0.387000
      7 OAC         0.3440   -0.3550    1.9560 o         1 2Q0     -0.313000
      8 CAP        -0.1910    2.5040   -0.4670 c2        1 2Q0     -0.305000
      9 SAE         0.2150    3.8040   -1.4910 s         1 2Q0     -0.028000
     10 SAL        -1.4570    1.4690   -0.6720 s4        1 2Q0      1.245000
     11 CAQ        -1.1660    0.2720    0.2410 c1        1 2Q0     -0.898000
     12 CAF        -2.2780   -0.5860    0.7080 c2        1 2Q0      0.001000
     13 CAN        -2.4560   -1.7700   -0.2540 c1        1 2Q0     -0.122000
     14 CAI        -3.4570   -1.7350   -1.2200 c1        1 2Q0     -0.157500
     15 CAG        -3.6820   -2.8480   -2.0310 c1        1 2Q0     -0.157500
     16 CAM        -2.9000   -4.0000   -1.8720 c1        1 2Q0      0.076000
     17 OAD        -3.1380   -5.1180   -2.6720 oh        1 2Q0     -0.251000
     18 CAH        -1.9020   -4.0360   -0.9080 c1        1 2Q0     -0.158000
     19 CAJ        -1.6750   -2.9260   -0.0970 c1        1 2Q0     -0.086000
     20 H1          3.5920    3.7660   -0.4660 hc        1 2Q0      0.079500
     21 H2          4.9420    3.0770    0.0990 hc        1 2Q0      0.079500
     22 H3          3.9630    3.9050    1.0830 hc        1 2Q0      0.079500
     23 H4          3.0380    1.5980   -0.2080 hc        1 2Q0      0.100000
     24 H5          4.2460    1.6300    2.3530 hc        1 2Q0      0.079500
     25 H6          4.9040    0.9080    1.0560 hc        1 2Q0      0.079500
     26 H7          3.5390    0.3390    1.7190 hc        1 2Q0      0.079500
     27 H8          1.9040    2.1030    2.2080 h1        1 2Q0      0.116500
     28 H9          1.7630    3.3970    1.2890 h1        1 2Q0      0.116500
     29 H10        -2.0770   -0.9220    1.6020 ha        1 2Q0      0.094500
     30 H11        -3.1000   -0.0630    0.7360 ha        1 2Q0      0.094500
     31 H12        -3.9850   -0.9570   -1.3270 ha        1 2Q0      0.132500
     32 H13        -4.3900   -2.8250   -2.7150 ha        1 2Q0      0.132500
     33 H14        -3.8790   -5.5160   -2.4060 ho        1 2Q0      0.217000
     34 H15        -1.3610   -4.8360   -0.7980 ha        1 2Q0      0.151000
     35 H16        -0.9510   -2.9530    0.6040 ha        1 2Q0      0.145000
     36 H17        -2.4050    1.6220   -1.3830 hs        1 2Q0     -0.194000
@<TRIPOS>BOND
     1    1    2 1   
     2    1   20 1   
     3    1   21 1   
     4    1   22 1   
     5    2    3 1   
     6    2    4 1   
     7    2   23 1   
     8    3   24 1   
     9    3   25 1   
    10    3   26 1   
    11    4    5 1   
    12    4   27 1   
    13    4   28 1   
    14    5    6 1   
    15    5    8 1   
    16    6    7 1   
    17    8    9 1   
    18    8   10 1   
    19   10   11 1   
    20   10   36 1   
    21   12   13 1   
    22   12   29 1   
    23   12   30 1   
    24   13   19 1   
    25   14   15 1   
    26   14   31 1   
    27   15   32 1   
    28   16   17 1   
    29   16   18 1   
    30   17   33 1   
    31   18   34 1   
    32   19   35 1   
@<TRIPOS>SUBSTRUCTURE
     1 2Q0         1 TEMP              0 ****  ****    0 ROOT
