@<TRIPOS>MOLECULE
2Q2
   24    22     1     0     0
SMALL
bcc


@<TRIPOS>ATOM
      1 OAA        -2.3530   -1.6840    3.0050 o         1 2Q2     -0.566000
      2 CAI        -1.1470   -1.6610    2.7140 c1        1 2Q2      0.312000
      3 OAC        -0.2940   -1.6230    3.6130 o         1 2Q2     -0.566000
      4 CAK        -0.7230   -1.6830    1.2840 c2        1 2Q2     -0.081000
      5 OAE        -1.6310   -2.4520    0.5380 oh        1 2Q2     -0.354000
      6 CAM        -0.6890   -0.2390    0.7330 c3        1 2Q2     -0.003000
      7 OAG        -1.9060    0.0580    0.1270 oh        1 2Q2     -0.372000
      8 CAL         0.4220   -0.1180   -0.2780 c3        1 2Q2      0.034000
      9 OAF         1.6700   -0.4540    0.3430 oh        1 2Q2     -0.329000
     10 CAJ         0.4870    1.2880   -0.7960 c3        1 2Q2      0.000000
     11 OAD         1.3290    2.0700    0.0510 oh        1 2Q2     -0.335000
     12 CAH         1.0530    1.2790   -2.2050 c3        1 2Q2     -0.061000
     13 OAB         1.0940    2.5780   -2.7000 oh        1 2Q2     -0.346000
     14 H2          0.1560   -2.0730    1.2170 h4        1 2Q2      0.114000
     15 H3         -1.3710   -3.3380    0.5560 ho        1 2Q2      0.215000
     16 H4         -0.5260    0.4030    1.4870 h1        1 2Q2      0.088000
     17 H5         -2.3410    0.7000    0.6140 ho        1 2Q2      0.247000
     18 H6          0.2490   -0.7430   -1.0350 h1        1 2Q2      0.128000
     19 H7          2.0880   -1.0500   -0.1450 ho        1 2Q2      0.210000
     20 H8         -0.4220    1.6770   -0.8090 h1        1 2Q2      0.117000
     21 H9          0.9680    2.8620    0.1720 ho        1 2Q2      0.206000
     22 H10         0.4830    0.7260   -2.7840 h1        1 2Q2      0.075500
     23 H11         1.9610    0.9060   -2.1900 h1        1 2Q2      0.075500
     24 H12         1.4450    2.5720   -3.5100 ho        1 2Q2      0.192000
@<TRIPOS>BOND
     1    1    2 1   
     2    2    3 1   
     3    4    5 1   
     4    4    6 1   
     5    4   14 1   
     6    5   15 1   
     7    6    7 1   
     8    6    8 1   
     9    6   16 1   
    10    7   17 1   
    11    8    9 1   
    12    8   10 1   
    13    8   18 1   
    14    9   19 1   
    15   10   11 1   
    16   10   12 1   
    17   10   20 1   
    18   11   21 1   
    19   12   13 1   
    20   12   22 1   
    21   12   23 1   
    22   13   24 1   
@<TRIPOS>SUBSTRUCTURE
     1 2Q2         1 TEMP              0 ****  ****    0 ROOT
