@<TRIPOS>MOLECULE
2Q2
   24    23     1     0     0
SMALL
bcc


@<TRIPOS>ATOM
      1 OAA        -0.0280   -0.6430   -0.3250 o         1 2Q2     -0.829300
      2 CAI         1.0300    0.0110   -0.1070 c         1 2Q2      0.896600
      3 OAC         1.2600    0.7050    0.9220 o         1 2Q2     -0.829300
      4 CAK         2.1140   -0.0500   -1.2140 c3        1 2Q2     -0.023900
      5 OAE         1.5720   -0.5020   -2.4450 oh        1 2Q2     -0.657800
      6 CAM         2.8380    1.2900   -1.4180 c3        1 2Q2      0.133100
      7 OAG         1.9870    2.4170   -1.2650 oh        1 2Q2     -0.641800
      8 CAL         3.4320    1.4200   -2.8330 c3        1 2Q2      0.162100
      9 OAF         4.2280    0.3010   -3.1920 oh        1 2Q2     -0.619800
     10 CAJ         4.3140    2.6730   -2.9390 c3        1 2Q2      0.148100
     11 OAD         5.4190    2.5380   -2.0590 oh        1 2Q2     -0.583800
     12 CAH         4.8040    2.8430   -4.3810 c3        1 2Q2      0.087400
     13 OAB         5.6130    4.0120   -4.4090 oh        1 2Q2     -0.620800
     14 H2          2.8830   -0.8150   -0.9070 h1        1 2Q2      0.035700
     15 H3          0.6340   -0.7020   -2.2890 ho        1 2Q2      0.436000
     16 H4          3.6660    1.3550   -0.6560 h1        1 2Q2      0.054700
     17 H5          1.5360    2.3090   -0.4110 ho        1 2Q2      0.446000
     18 H6          2.5840    1.5220   -3.5690 h1        1 2Q2      0.049700
     19 H7          3.6770   -0.4830   -3.0610 ho        1 2Q2      0.425000
     20 H8          3.6960    3.5640   -2.6320 h1        1 2Q2      0.063700
     21 H9          5.9490    3.3370   -2.1780 ho        1 2Q2      0.397000
     22 H10         3.9330    2.9740   -5.0750 h1        1 2Q2      0.039200
     23 H11         5.4000    1.9420   -4.6840 h1        1 2Q2      0.039200
     24 H12         6.0970    3.9900   -5.2410 ho        1 2Q2      0.392000
@<TRIPOS>BOND
     1    1    2 1   
     2    2    3 1   
     3    2    4 1   
     4    4    5 1   
     5    4    6 1   
     6    4   14 1   
     7    5   15 1   
     8    6    7 1   
     9    6    8 1   
    10    6   16 1   
    11    7   17 1   
    12    8    9 1   
    13    8   10 1   
    14    8   18 1   
    15    9   19 1   
    16   10   11 1   
    17   10   12 1   
    18   10   20 1   
    19   11   21 1   
    20   12   13 1   
    21   12   22 1   
    22   12   23 1   
    23   13   24 1   
@<TRIPOS>SUBSTRUCTURE
     1 2Q2         1 TEMP              0 ****  ****    0 ROOT
