@<TRIPOS>MOLECULE
2Q2
   24    23     1     0     0
SMALL
bcc


@<TRIPOS>ATOM
      1 OAA        -2.9540   -0.5550   -1.5620 o         1 2Q2     -0.827300
      2 CAI        -2.8080   -0.0890   -0.3910 c         1 2Q2      0.892600
      3 OAC        -3.5540    0.7520    0.1660 o         1 2Q2     -0.827300
      4 CAK        -1.5610   -0.6160    0.3700 c3        1 2Q2     -0.022900
      5 OAE        -1.3630   -1.9960    0.1180 oh        1 2Q2     -0.625800
      6 CAM        -0.3340    0.1780   -0.1090 c3        1 2Q2      0.110100
      7 OAG        -0.0290   -0.0840   -1.4710 oh        1 2Q2     -0.639800
      8 CAL         0.9120   -0.1900    0.7120 c3        1 2Q2      0.105100
      9 OAF         0.7900    0.2340    2.0600 oh        1 2Q2     -0.606800
     10 CAJ         2.1880    0.4250    0.1100 c3        1 2Q2      0.074100
     11 OAD         2.9860    1.0550    1.1030 oh        1 2Q2     -0.625800
     12 CAH         3.0190   -0.6400   -0.6080 c3        1 2Q2      0.108400
     13 OAB         4.2460   -0.1200   -1.0820 oh        1 2Q2     -0.614800
     14 H2         -1.6710   -0.5130    1.4800 h1        1 2Q2      0.072700
     15 H3         -1.7160   -2.1650   -0.7700 ho        1 2Q2      0.419000
     16 H4         -0.5480    1.2800    0.0020 h1        1 2Q2      0.039700
     17 H5         -0.8710   -0.2890   -1.9140 ho        1 2Q2      0.451000
     18 H6          0.9920   -1.3120    0.7750 h1        1 2Q2      0.096700
     19 H7          0.5010    1.1550    2.0460 ho        1 2Q2      0.405000
     20 H8          1.9310    1.2510   -0.6110 h1        1 2Q2      0.095700
     21 H9          2.9460    0.5080    1.8990 ho        1 2Q2      0.410000
     22 H10         3.2310   -1.5000    0.0840 h1        1 2Q2      0.052200
     23 H11         2.4660   -1.0030   -1.5150 h1        1 2Q2      0.052200
     24 H12         4.5770    0.4840   -0.4040 ho        1 2Q2      0.405000
@<TRIPOS>BOND
     1    1    2 1   
     2    2    3 1   
     3    2    4 1   
     4    4    5 1   
     5    4    6 1   
     6    4   14 1   
     7    5   15 1   
     8    6    7 1   
     9    6    8 1   
    10    6   16 1   
    11    7   17 1   
    12    8    9 1   
    13    8   10 1   
    14    8   18 1   
    15    9   19 1   
    16   10   11 1   
    17   10   12 1   
    18   10   20 1   
    19   11   21 1   
    20   12   13 1   
    21   12   22 1   
    22   12   23 1   
    23   13   24 1   
@<TRIPOS>SUBSTRUCTURE
     1 2Q2         1 TEMP              0 ****  ****    0 ROOT
