@<TRIPOS>MOLECULE
2Q4
   66    67     1     0     0
SMALL
bcc


@<TRIPOS>ATOM
      1 Cl          0.0920    1.5920    0.0080 cl        1 2Q4     -0.066400
      2 C6          1.7440    1.2530   -0.1610 ca        1 2Q4      0.028400
      3 C3          2.3950    0.4590    0.7890 ca        1 2Q4     -0.122500
      4 C4          2.4540    1.7710   -1.2480 ca        1 2Q4     -0.122500
      5 C2          3.8120    1.4880   -1.3860 ca        1 2Q4     -0.112000
      6 C5          4.4730    0.6850   -0.4500 ca        1 2Q4     -0.132300
      7 C1          3.7510    0.1830    0.6410 ca        1 2Q4     -0.112000
      8 C12         5.9380    0.3470   -0.5830 c3        1 2Q4      0.214100
      9 C9          6.3400    0.1490   -2.0540 c3        1 2Q4     -0.124400
     10 O28         6.2320   -0.8700    0.1160 oh        1 2Q4     -0.606800
     11 C13         6.8500    1.4170    0.0850 c3        1 2Q4     -0.048000
     12 C14         6.5880    1.4680    1.5840 c3        1 2Q4     -0.096100
     13 C15         6.6190    2.7940   -0.5080 c3        1 2Q4     -0.096100
     14 C11         8.3250    0.9840   -0.1060 c3        1 2Q4      0.082000
     15 N24         8.6940    0.7120   -1.4800 n         1 2Q4     -0.413800
     16 C10         7.8160   -0.2280   -2.1650 c3        1 2Q4      0.081000
     17 C7          9.6310    1.4030   -2.1910 c         1 2Q4      0.647100
     18 O26         9.8290    1.2100   -3.4160 o         1 2Q4     -0.643100
     19 C21        10.5570    2.4250   -1.4710 c3        1 2Q4      0.046500
     20 C22        11.5970    1.6750   -0.6150 c3        1 2Q4     -0.084700
     21 C17        12.5900    0.9080   -1.4620 c3        1 2Q4     -0.118100
     22 C16        12.3000    2.6190    0.3360 c3        1 2Q4     -0.118100
     23 N25        11.2210    3.3000   -2.4940 ny        1 2Q4     -0.667800
     24 C8         10.4500    4.5280   -2.9010 c         1 2Q4      0.560100
     25 O27         9.4250    4.7860   -2.2880 o         1 2Q4     -0.426100
     26 C20        11.0560    5.3460   -4.0060 c3        1 2Q4     -0.157400
     27 C23        11.4600    4.5660   -5.2630 c3        1 2Q4      0.152800
     28 O29        12.5280    3.7040   -4.8550 oh        1 2Q4     -0.656800
     29 C19        10.3060    3.7410   -5.8140 c3        1 2Q4     -0.138600
     30 C18        11.9570    5.5560   -6.3110 c3        1 2Q4     -0.138600
     31 H1          1.8400    0.0530    1.6500 ha        1 2Q4      0.156500
     32 H2          1.9460    2.4000   -1.9950 ha        1 2Q4      0.156500
     33 H3          4.3540    1.9130   -2.2440 ha        1 2Q4      0.143000
     34 H4          4.2660   -0.4330    1.3980 ha        1 2Q4      0.143000
     35 H5          5.7330   -0.6820   -2.4970 hc        1 2Q4      0.069700
     36 H6          6.1350    1.0780   -2.6420 hc        1 2Q4      0.069700
     37 H7          5.6070   -1.5360   -0.1990 ho        1 2Q4      0.417000
     38 H8          7.2750    2.1990    2.0730 hc        1 2Q4      0.048867
     39 H9          6.7420    0.4600    2.0410 hc        1 2Q4      0.048867
     40 H10         5.5330    1.7840    1.7720 hc        1 2Q4      0.048867
     41 H11         5.5540    3.1020   -0.3580 hc        1 2Q4      0.048867
     42 H12         7.2770    3.5410   -0.0010 hc        1 2Q4      0.048867
     43 H13         6.8380    2.8140   -1.6020 hc        1 2Q4      0.048867
     44 H14         8.4770    0.0230    0.4710 h1        1 2Q4      0.067200
     45 H15         8.9840    1.7760    0.3430 h1        1 2Q4      0.067200
     46 H16         7.9720   -1.2350   -1.6770 h1        1 2Q4      0.084200
     47 H17         8.1060   -0.3000   -3.2510 h1        1 2Q4      0.084200
     48 H18         9.9370    3.1040   -0.8100 hx        1 2Q4      0.129700
     49 H19        11.0100    0.9320    0.0020 hc        1 2Q4      0.102700
     50 H20        12.0670    0.3570   -2.2830 hc        1 2Q4      0.057700
     51 H21        13.1260    0.1620   -0.8250 hc        1 2Q4      0.057700
     52 H22        13.3580    1.5830   -1.9100 hc        1 2Q4      0.057700
     53 H23        11.5620    3.2090    0.9310 hc        1 2Q4      0.057700
     54 H24        12.9290    2.0270    1.0470 hc        1 2Q4      0.057700
     55 H25        12.9760    3.3260   -0.2030 hc        1 2Q4      0.057700
     56 H26        11.3780    2.7300   -3.3590 hn        1 2Q4      0.486800
     57 H27        10.2930    6.1220   -4.2980 hc        1 2Q4      0.121200
     58 H28        11.9600    5.8750   -3.5950 hc        1 2Q4      0.121200
     59 H29        12.8990    3.3020   -5.6500 ho        1 2Q4      0.447000
     60 H30         9.4270    4.3980   -6.0160 hc        1 2Q4      0.066867
     61 H31        10.0060    2.9350   -5.0990 hc        1 2Q4      0.066867
     62 H32        10.6110    3.2550   -6.7730 hc        1 2Q4      0.066867
     63 H33        12.8300    6.1310   -5.9180 hc        1 2Q4      0.066867
     64 H34        12.2790    5.0060   -7.2290 hc        1 2Q4      0.066867
     65 H35        11.1430    6.2660   -6.5890 hc        1 2Q4      0.066867
     66 H252       12.1440    3.5910   -2.1490 hn        1 2Q4      0.486800
@<TRIPOS>BOND
     1    1    2 1   
     2    2    3 ar  
     3    2    4 ar  
     4    3    7 ar  
     5    3   31 1   
     6    4    5 ar  
     7    4   32 1   
     8    5    6 ar  
     9    5   33 1   
    10    6    7 ar  
    11    6    8 1   
    12    7   34 1   
    13    8    9 1   
    14    8   10 1   
    15    8   11 1   
    16    9   16 1   
    17    9   35 1   
    18    9   36 1   
    19   10   37 1   
    20   11   12 1   
    21   11   13 1   
    22   11   14 1   
    23   12   38 1   
    24   12   39 1   
    25   12   40 1   
    26   13   41 1   
    27   13   42 1   
    28   13   43 1   
    29   14   15 1   
    30   14   44 1   
    31   14   45 1   
    32   15   16 1   
    33   15   17 1   
    34   16   46 1   
    35   16   47 1   
    36   17   18 2   
    37   17   19 1   
    38   19   20 1   
    39   19   23 1   
    40   19   48 1   
    41   20   21 1   
    42   20   22 1   
    43   20   49 1   
    44   21   50 1   
    45   21   51 1   
    46   21   52 1   
    47   22   53 1   
    48   22   54 1   
    49   22   55 1   
    50   23   24 1   
    51   23   56 1   
    52   23   66 1   
    53   24   25 2   
    54   24   26 1   
    55   26   27 1   
    56   26   57 1   
    57   26   58 1   
    58   27   28 1   
    59   27   29 1   
    60   27   30 1   
    61   28   59 1   
    62   29   60 1   
    63   29   61 1   
    64   29   62 1   
    65   30   63 1   
    66   30   64 1   
    67   30   65 1   
@<TRIPOS>SUBSTRUCTURE
     1 2Q4         1 TEMP              0 ****  ****    0 ROOT
