@<TRIPOS>MOLECULE
2Q4
   66    67     1     0     0
SMALL
bcc


@<TRIPOS>ATOM
      1 CL          0.0780    1.4230   -0.1000 cl        1 2Q4     -0.066400
      2 C6          1.7400    1.1210   -0.2430 ca        1 2Q4      0.028400
      3 C3          2.3960    0.3510    0.7240 ca        1 2Q4     -0.122500
      4 C4          2.4530    1.6430   -1.3260 ca        1 2Q4     -0.122500
      5 C2          3.8190    1.3890   -1.4430 ca        1 2Q4     -0.112000
      6 C5          4.4850    0.6120   -0.4890 ca        1 2Q4     -0.132300
      7 C1          3.7600    0.1050    0.5980 ca        1 2Q4     -0.112000
      8 C12         5.9590    0.3060   -0.5980 c3        1 2Q4      0.214100
      9 C9          6.3860    0.1010   -2.0610 c3        1 2Q4     -0.124400
     10 O28         6.2710   -0.8960    0.1190 oh        1 2Q4     -0.606800
     11 C13         6.8370    1.4040    0.0690 c3        1 2Q4     -0.048000
     12 C14         6.5540    1.4660    1.5640 c3        1 2Q4     -0.096100
     13 C15         6.5830    2.7690   -0.5430 c3        1 2Q4     -0.096100
     14 C11         8.3240    1.0040   -0.0970 c3        1 2Q4      0.082000
     15 N24         8.7190    0.7240   -1.4620 n         1 2Q4     -0.413800
     16 C10         7.8710   -0.2440   -2.1480 c3        1 2Q4      0.081000
     17 C7          9.6520    1.4250   -2.1670 c         1 2Q4      0.647100
     18 O26         9.8720    1.2210   -3.3870 o         1 2Q4     -0.643100
     19 C21        10.5460    2.4750   -1.4460 c3        1 2Q4      0.047500
     20 C22        11.5880    1.7560   -0.5650 c3        1 2Q4     -0.084700
     21 C17        12.6080    0.9990   -1.3870 c3        1 2Q4     -0.118100
     22 C16        12.2560    2.7260    0.3850 c3        1 2Q4     -0.118100
     23 N25        11.2080    3.3500   -2.4700 n4        1 2Q4     -0.667800
     24 C8         10.4190    4.5570   -2.9040 c         1 2Q4      0.560100
     25 O27         9.3790    4.8020   -2.3100 o         1 2Q4     -0.426100
     26 C20        11.0240    5.3740   -4.0090 c3        1 2Q4     -0.157400
     27 C23        11.4660    4.5870   -5.2500 c3        1 2Q4      0.152800
     28 O29        12.5450    3.7530   -4.8130 oh        1 2Q4     -0.656800
     29 C19        10.3380    3.7320   -5.8090 c3        1 2Q4     -0.138600
     30 C18        11.9600    5.5740   -6.3020 c3        1 2Q4     -0.138600
     31 H1          1.8380   -0.0570    1.5820 ha        1 2Q4      0.156500
     32 H2          1.9410    2.2520   -2.0870 ha        1 2Q4      0.156500
     33 H3          4.3630    1.8170   -2.2980 ha        1 2Q4      0.143000
     34 H4          4.2780   -0.4900    1.3680 ha        1 2Q4      0.143000
     35 H5          5.8040   -0.7490   -2.5020 hc        1 2Q4      0.069700
     36 H6          6.1680    1.0180   -2.6630 hc        1 2Q4      0.069700
     37 H7          5.6660   -1.5790   -0.1970 ho        1 2Q4      0.417000
     38 H8          6.7230    0.4670    2.0340 hc        1 2Q4      0.048700
     39 H9          7.2170    2.2190    2.0530 hc        1 2Q4      0.048700
     40 H10         5.4890    1.7600    1.7340 hc        1 2Q4      0.048700
     41 H11         6.8160    2.7820   -1.6340 hc        1 2Q4      0.048700
     42 H12         5.5100    3.0550   -0.4100 hc        1 2Q4      0.048700
     43 H13         7.2170    3.5360   -0.0360 hc        1 2Q4      0.048700
     44 H14         8.9580    1.8160    0.3510 h1        1 2Q4      0.067200
     45 H15         8.4900    0.0530    0.4940 h1        1 2Q4      0.067200
     46 H16         8.1780   -0.3210   -3.2290 h1        1 2Q4      0.084200
     47 H17         8.0430   -1.2410   -1.6470 h1        1 2Q4      0.084200
     48 H18         9.9020    3.1490   -0.8030 hx        1 2Q4      0.129700
     49 H19        11.0060    1.0090    0.0520 hc        1 2Q4      0.102700
     50 H20        13.1500    0.2720   -0.7320 hc        1 2Q4      0.057700
     51 H21        12.1100    0.4280   -2.2090 hc        1 2Q4      0.057700
     52 H22        13.3700    1.6850   -1.8320 hc        1 2Q4      0.057700
     53 H23        12.9260    3.4410   -0.1520 hc        1 2Q4      0.057700
     54 H24        11.4970    3.3080    0.9610 hc        1 2Q4      0.057700
     55 H25        12.8860    2.1560    1.1130 hc        1 2Q4      0.057700
     56 H26        11.3890    2.7730   -3.3250 hn        1 2Q4      0.486800
     57 H27        10.2510    6.1310   -4.3240 hc        1 2Q4      0.121200
     58 H28        11.9110    5.9270   -3.5900 hc        1 2Q4      0.121200
     59 H29        12.9380    3.3500   -5.5980 ho        1 2Q4      0.447000
     60 H30         9.4490    4.3680   -6.0330 hc        1 2Q4      0.066867
     61 H31        10.6690    3.2400   -6.7560 hc        1 2Q4      0.066867
     62 H32        10.0430    2.9290   -5.0880 hc        1 2Q4      0.066867
     63 H33        11.1350    6.2640   -6.6020 hc        1 2Q4      0.066867
     64 H34        12.8130    6.1730   -5.9020 hc        1 2Q4      0.066867
     65 H35        12.3070    5.0200   -7.2070 hc        1 2Q4      0.066867
     66 H252       12.1190    3.6640   -2.1150 hn        1 2Q4      0.486800
@<TRIPOS>BOND
     1    1    2 1   
     2    2    3 ar  
     3    2    4 ar  
     4    3    7 ar  
     5    3   31 1   
     6    4    5 ar  
     7    4   32 1   
     8    5    6 ar  
     9    5   33 1   
    10    6    7 ar  
    11    6    8 1   
    12    7   34 1   
    13    8    9 1   
    14    8   10 1   
    15    8   11 1   
    16    9   16 1   
    17    9   35 1   
    18    9   36 1   
    19   10   37 1   
    20   11   12 1   
    21   11   13 1   
    22   11   14 1   
    23   12   38 1   
    24   12   39 1   
    25   12   40 1   
    26   13   41 1   
    27   13   42 1   
    28   13   43 1   
    29   14   15 1   
    30   14   44 1   
    31   14   45 1   
    32   15   16 1   
    33   15   17 1   
    34   16   46 1   
    35   16   47 1   
    36   17   18 2   
    37   17   19 1   
    38   19   20 1   
    39   19   23 1   
    40   19   48 1   
    41   20   21 1   
    42   20   22 1   
    43   20   49 1   
    44   21   50 1   
    45   21   51 1   
    46   21   52 1   
    47   22   53 1   
    48   22   54 1   
    49   22   55 1   
    50   23   24 1   
    51   23   56 1   
    52   23   66 1   
    53   24   25 2   
    54   24   26 1   
    55   26   27 1   
    56   26   57 1   
    57   26   58 1   
    58   27   28 1   
    59   27   29 1   
    60   27   30 1   
    61   28   59 1   
    62   29   60 1   
    63   29   61 1   
    64   29   62 1   
    65   30   63 1   
    66   30   64 1   
    67   30   65 1   
@<TRIPOS>SUBSTRUCTURE
     1 2Q4         1 TEMP              0 ****  ****    0 ROOT
