@<TRIPOS>MOLECULE
2Q4
   65    66     1     0     0
SMALL
bcc


@<TRIPOS>ATOM
      1 CL          0.4440    1.2490   -1.8570 cl        1 2Q4     -0.092400
      2 C6          2.0590    0.9730   -1.4090 ca        1 2Q4      0.020400
      3 C3          2.3790    0.7390   -0.0680 ca        1 2Q4     -0.127000
      4 C4          3.0640    0.9860   -2.3800 ca        1 2Q4     -0.127000
      5 C2          4.3870    0.7540   -2.0080 ca        1 2Q4     -0.111500
      6 C5          4.7220    0.5030   -0.6730 ca        1 2Q4     -0.113300
      7 C1          3.7040    0.5090    0.2910 ca        1 2Q4     -0.111500
      8 C12         6.1470    0.2300   -0.2480 c3        1 2Q4      0.208100
      9 C9          6.8600   -0.6790   -1.2620 c3        1 2Q4     -0.129400
     10 O28         6.1510   -0.4320    1.0250 oh        1 2Q4     -0.601800
     11 C13         6.9520    1.5420   -0.0180 c3        1 2Q4     -0.055000
     12 C14         6.3640    2.3190    1.1510 c3        1 2Q4     -0.094100
     13 C15         6.9460    2.4210   -1.2550 c3        1 2Q4     -0.094100
     14 C11         8.4020    1.1510    0.3630 c3        1 2Q4      0.086000
     15 N24         9.0560    0.2740   -0.5800 n         1 2Q4     -0.442800
     16 C10         8.3070   -0.9420   -0.8410 c3        1 2Q4      0.079000
     17 C7          9.9950    0.7010   -1.5100 c         1 2Q4      0.628100
     18 O26        10.3810   -0.0730   -2.4120 o         1 2Q4     -0.623100
     19 C21        10.6430    2.1060   -1.3740 c3        1 2Q4      0.030700
     20 C22        11.7450    2.0150   -0.2920 c3        1 2Q4     -0.064700
     21 C17        12.9410    1.2140   -0.7570 c3        1 2Q4     -0.096100
     22 C16        12.1620    3.4000    0.1530 c3        1 2Q4     -0.096100
     23 N25        11.1330    2.5840   -2.6440 n         1 2Q4     -0.537900
     24 C8         10.3950    3.4690   -3.4160 c         1 2Q4      0.663100
     25 O27         9.3960    4.0520   -2.9420 o         1 2Q4     -0.632100
     26 C20        10.8800    3.7120   -4.8310 c3        1 2Q4     -0.183400
     27 C23        10.4620    5.0770   -5.3950 c3        1 2Q4      0.170800
     28 O29         9.0470    5.1520   -5.5170 oh        1 2Q4     -0.605800
     29 C19        10.9900    6.2120   -4.5270 c3        1 2Q4     -0.109600
     30 C18        11.0030    5.2050   -6.8180 c3        1 2Q4     -0.109600
     31 H1          1.5910    0.7380    0.7010 ha        1 2Q4      0.149000
     32 H2          2.8160    1.1800   -3.4350 ha        1 2Q4      0.149000
     33 H3          5.1680    0.7840   -2.7840 ha        1 2Q4      0.147000
     34 H4          3.9610    0.3400    1.3500 ha        1 2Q4      0.147000
     35 H5          6.3230   -1.6600   -1.3240 hc        1 2Q4      0.059700
     36 H6          6.8420   -0.2130   -2.2790 hc        1 2Q4      0.059700
     37 H7          5.6940   -1.2730    0.9030 ho        1 2Q4      0.404000
     38 H8          6.9410    3.2600    1.3150 hc        1 2Q4      0.046367
     39 H9          5.3000    2.5810    0.9350 hc        1 2Q4      0.046367
     40 H10         6.3950    1.7040    2.0820 hc        1 2Q4      0.046367
     41 H11         7.3380    1.8770   -2.1470 hc        1 2Q4      0.046367
     42 H12         5.9080    2.7680   -1.4800 hc        1 2Q4      0.046367
     43 H13         7.5910    3.3210   -1.0920 hc        1 2Q4      0.046367
     44 H14         9.0010    2.0870    0.5280 h1        1 2Q4      0.064700
     45 H15         8.3540    0.5940    1.3460 h1        1 2Q4      0.064700
     46 H16         8.3000   -1.5410    0.1160 h1        1 2Q4      0.072200
     47 H17         8.8250   -1.5430   -1.6400 h1        1 2Q4      0.072200
     48 H18         9.8580    2.8490   -1.0300 h1        1 2Q4      0.103700
     49 H19        11.2800    1.4860    0.5890 hc        1 2Q4      0.059700
     50 H20        13.5790    0.9430    0.1190 hc        1 2Q4      0.041867
     51 H21        12.6080    0.2740   -1.2620 hc        1 2Q4      0.041867
     52 H22        13.5660    1.8020   -1.4710 hc        1 2Q4      0.041867
     53 H23        12.6200    3.9700   -0.6900 hc        1 2Q4      0.041867
     54 H24        11.2810    3.9720    0.5320 hc        1 2Q4      0.041867
     55 H25        12.9160    3.3210    0.9750 hc        1 2Q4      0.041867
     56 H26        11.7760    1.9780   -3.1050 hn        1 2Q4      0.319500
     57 H27        11.9960    3.6310   -4.8920 hc        1 2Q4      0.078200
     58 H28        10.4300    2.9070   -5.4740 hc        1 2Q4      0.078200
     59 H29         8.6800    5.1460   -4.6220 ho        1 2Q4      0.428000
     60 H30        10.5860    6.1240   -3.4900 hc        1 2Q4      0.047200
     61 H31        10.6650    7.1910   -4.9540 hc        1 2Q4      0.047200
     62 H32        12.1040    6.1830   -4.4900 hc        1 2Q4      0.047200
     63 H33        10.6100    4.3780   -7.4540 hc        1 2Q4      0.047200
     64 H34        12.1170    5.1670   -6.8030 hc        1 2Q4      0.047200
     65 H35        10.6720    6.1760   -7.2560 hc        1 2Q4      0.047200
@<TRIPOS>BOND
     1    1    2 1   
     2    2    3 ar  
     3    2    4 ar  
     4    3    7 ar  
     5    3   31 1   
     6    4    5 ar  
     7    4   32 1   
     8    5    6 ar  
     9    5   33 1   
    10    6    7 ar  
    11    6    8 1   
    12    7   34 1   
    13    8    9 1   
    14    8   10 1   
    15    8   11 1   
    16    9   16 1   
    17    9   35 1   
    18    9   36 1   
    19   10   37 1   
    20   11   12 1   
    21   11   13 1   
    22   11   14 1   
    23   12   38 1   
    24   12   39 1   
    25   12   40 1   
    26   13   41 1   
    27   13   42 1   
    28   13   43 1   
    29   14   15 1   
    30   14   44 1   
    31   14   45 1   
    32   15   16 1   
    33   15   17 1   
    34   16   46 1   
    35   16   47 1   
    36   17   18 2   
    37   17   19 1   
    38   19   20 1   
    39   19   23 1   
    40   19   48 1   
    41   20   21 1   
    42   20   22 1   
    43   20   49 1   
    44   21   50 1   
    45   21   51 1   
    46   21   52 1   
    47   22   53 1   
    48   22   54 1   
    49   22   55 1   
    50   23   24 1   
    51   23   56 1   
    52   24   25 2   
    53   24   26 1   
    54   26   27 1   
    55   26   57 1   
    56   26   58 1   
    57   27   28 1   
    58   27   29 1   
    59   27   30 1   
    60   28   59 1   
    61   29   60 1   
    62   29   61 1   
    63   29   62 1   
    64   30   63 1   
    65   30   64 1   
    66   30   65 1   
@<TRIPOS>SUBSTRUCTURE
     1 2Q4         1 TEMP              0 ****  ****    0 ROOT
