@<TRIPOS>MOLECULE
2Q5
   43    42     1     0     0
SMALL
bcc


@<TRIPOS>ATOM
      1 OH         -0.4570    0.6200    0.2750 oh        1 2Q5     -0.597800
      2 C2          0.8250    0.4300   -0.2950 c3        1 2Q5      0.146100
      3 C1          1.8040   -0.1220    0.7230 c3        1 2Q5     -0.127100
      4 C3          1.3400    1.7360   -0.9120 c3        1 2Q5      0.092400
      5 O2          1.3730    2.6970    0.1400 os        1 2Q5     -0.430600
      6 C5          1.7950    3.9950   -0.2910 c3        1 2Q5      0.147100
      7 C6          0.7070    4.7050   -1.0690 c3        1 2Q5     -0.115100
      8 C4          2.1790    4.7500    0.9870 c3        1 2Q5      0.131400
      9 O3          0.9920    5.2830    1.5620 os        1 2Q5     -0.425600
     10 C7          1.1960    5.8480    2.8620 c3        1 2Q5      0.108100
     11 C9          1.2260    4.7730    3.9280 c3        1 2Q5     -0.114100
     12 C8          0.0430    6.8400    3.0800 c3        1 2Q5      0.138400
     13 O4         -1.1480    6.2220    3.5310 os        1 2Q5     -0.432600
     14 C11        -1.9300    5.6000    2.5010 c3        1 2Q5      0.089100
     15 C12        -2.8330    6.6220    1.8410 c3        1 2Q5     -0.115100
     16 C10        -2.7430    4.5130    3.2150 c3        1 2Q5      0.134400
     17 O5         -3.5870    5.0380    4.2180 oh        1 2Q5     -0.600800
     18 H1         -0.3700    1.3120    0.9430 ho        1 2Q5      0.415000
     19 H2          0.6530   -0.3150   -1.1230 h1        1 2Q5      0.072700
     20 H3          2.0150    0.6440    1.5070 hc        1 2Q5      0.046033
     21 H4          1.3710   -1.0270    1.2120 hc        1 2Q5      0.046033
     22 H5          2.7610   -0.4000    0.2230 hc        1 2Q5      0.046033
     23 H6          0.6430    2.0800   -1.7200 h1        1 2Q5      0.037200
     24 H7          2.3700    1.5940   -1.3320 h1        1 2Q5      0.037200
     25 H8          2.7230    3.8890   -0.9240 h1        1 2Q5      0.037700
     26 H9          0.5500    4.2220   -2.0620 hc        1 2Q5      0.048367
     27 H10        -0.2510    4.6730   -0.4950 hc        1 2Q5      0.048367
     28 H11         0.9950    5.7720   -1.2240 hc        1 2Q5      0.048367
     29 H12         2.8710    5.5950    0.7250 h1        1 2Q5      0.039200
     30 H13         2.6840    4.0520    1.7060 h1        1 2Q5      0.039200
     31 H14         2.1620    6.4290    2.8690 h1        1 2Q5      0.037700
     32 H15         2.0950    4.0900    3.7780 hc        1 2Q5      0.047033
     33 H16         0.2840    4.1730    3.8860 hc        1 2Q5      0.047033
     34 H17         1.3030    5.2470    4.9350 hc        1 2Q5      0.047033
     35 H18        -0.1390    7.4190    2.1380 h1        1 2Q5      0.056700
     36 H19         0.3190    7.5340    3.9200 h1        1 2Q5      0.056700
     37 H20        -1.2520    5.1190    1.7420 h1        1 2Q5      0.075700
     38 H21        -3.5530    7.0330    2.5890 hc        1 2Q5      0.044700
     39 H22        -3.4080    6.1380    1.0160 hc        1 2Q5      0.044700
     40 H23        -2.2330    7.4630    1.4200 hc        1 2Q5      0.044700
     41 H24        -2.0420    3.7590    3.6630 h1        1 2Q5      0.049200
     42 H25        -3.4320    4.0120    2.4840 h1        1 2Q5      0.049200
     43 H26        -3.0360    5.5820    4.7940 ho        1 2Q5      0.413000
@<TRIPOS>BOND
     1    1    2 1   
     2    1   18 1   
     3    2    3 1   
     4    2    4 1   
     5    2   19 1   
     6    3   20 1   
     7    3   21 1   
     8    3   22 1   
     9    4    5 1   
    10    4   23 1   
    11    4   24 1   
    12    5    6 1   
    13    6    7 1   
    14    6    8 1   
    15    6   25 1   
    16    7   26 1   
    17    7   27 1   
    18    7   28 1   
    19    8    9 1   
    20    8   29 1   
    21    8   30 1   
    22    9   10 1   
    23   10   11 1   
    24   10   12 1   
    25   10   31 1   
    26   11   32 1   
    27   11   33 1   
    28   11   34 1   
    29   12   13 1   
    30   12   35 1   
    31   12   36 1   
    32   13   14 1   
    33   14   15 1   
    34   14   16 1   
    35   14   37 1   
    36   15   38 1   
    37   15   39 1   
    38   15   40 1   
    39   16   17 1   
    40   16   41 1   
    41   16   42 1   
    42   17   43 1   
@<TRIPOS>SUBSTRUCTURE
     1 2Q5         1 TEMP              0 ****  ****    0 ROOT
