@<TRIPOS>MOLECULE
2Q5
   43    42     1     0     0
SMALL
bcc


@<TRIPOS>ATOM
      1 OH         -0.5000    0.6430    0.2300 oh        1 2Q5     -0.597800
      2 C2          0.7620    0.4660   -0.3880 c3        1 2Q5      0.146100
      3 C1          1.7750   -0.1070    0.5840 c3        1 2Q5     -0.127100
      4 C3          1.2550    1.7830   -0.9970 c3        1 2Q5      0.092400
      5 O2          1.3260    2.7240    0.0710 os        1 2Q5     -0.430600
      6 C5          1.7320    4.0300   -0.3490 c3        1 2Q5      0.147100
      7 C6          0.6180    4.7540   -1.0750 c3        1 2Q5     -0.115100
      8 C4          2.1610    4.7600    0.9290 c3        1 2Q5      0.131400
      9 O3          0.9950    5.2820    1.5560 os        1 2Q5     -0.425600
     10 C7          1.2450    5.8220    2.8590 c3        1 2Q5      0.108100
     11 C9          1.3130    4.7260    3.9020 c3        1 2Q5     -0.114100
     12 C8          0.1000    6.8080    3.1350 c3        1 2Q5      0.138400
     13 O4         -1.0740    6.1810    3.6170 os        1 2Q5     -0.432600
     14 C11        -1.8920    5.5780    2.6030 c3        1 2Q5      0.089100
     15 C12        -2.8180    6.6110    1.9950 c3        1 2Q5     -0.115100
     16 C10        -2.6790    4.4770    3.3250 c3        1 2Q5      0.134400
     17 O5         -3.4870    4.9830    4.3670 oh        1 2Q5     -0.600800
     18 H1         -0.3890    1.3230    0.9080 ho        1 2Q5      0.415000
     19 H2          0.5600   -0.2630   -1.2240 h1        1 2Q5      0.072700
     20 H3          2.0140    0.6440    1.3750 hc        1 2Q5      0.046033
     21 H4          1.3600   -1.0210    1.0700 hc        1 2Q5      0.046033
     22 H5          2.7150   -0.3740    0.0450 hc        1 2Q5      0.046033
     23 H6          0.5300    2.1420   -1.7740 h1        1 2Q5      0.037200
     24 H7          2.2690    1.6500   -1.4560 h1        1 2Q5      0.037200
     25 H8          2.6370    3.9370   -1.0160 h1        1 2Q5      0.037700
     26 H9          0.4260    4.2910   -2.0710 hc        1 2Q5      0.048367
     27 H10        -0.3200    4.7110   -0.4680 hc        1 2Q5      0.048367
     28 H11         0.9000    5.8240   -1.2190 hc        1 2Q5      0.048367
     29 H12         2.8440    5.6100    0.6590 h1        1 2Q5      0.039200
     30 H13         2.6910    4.0480    1.6160 h1        1 2Q5      0.039200
     31 H14         2.2110    6.4030    2.8420 h1        1 2Q5      0.037700
     32 H15         2.1750    4.0470    3.7080 hc        1 2Q5      0.047033
     33 H16         0.3700    4.1270    3.8820 hc        1 2Q5      0.047033
     34 H17         1.4250    5.1810    4.9140 hc        1 2Q5      0.047033
     35 H18        -0.1140    7.4050    2.2110 h1        1 2Q5      0.056700
     36 H19         0.4060    7.4870    3.9780 h1        1 2Q5      0.056700
     37 H20        -1.2410    5.1120    1.8120 h1        1 2Q5      0.075700
     38 H21        -3.5110    7.0080    2.7760 hc        1 2Q5      0.044700
     39 H22        -3.4220    6.1430    1.1830 hc        1 2Q5      0.044700
     40 H23        -2.2330    7.4600    1.5690 hc        1 2Q5      0.044700
     41 H24        -1.9620    3.7150    3.7340 h1        1 2Q5      0.049200
     42 H25        -3.3930    3.9900    2.6100 h1        1 2Q5      0.049200
     43 H26        -2.9160    5.5170    4.9340 ho        1 2Q5      0.413000
@<TRIPOS>BOND
     1    1    2 1   
     2    1   18 1   
     3    2    3 1   
     4    2    4 1   
     5    2   19 1   
     6    3   20 1   
     7    3   21 1   
     8    3   22 1   
     9    4    5 1   
    10    4   23 1   
    11    4   24 1   
    12    5    6 1   
    13    6    7 1   
    14    6    8 1   
    15    6   25 1   
    16    7   26 1   
    17    7   27 1   
    18    7   28 1   
    19    8    9 1   
    20    8   29 1   
    21    8   30 1   
    22    9   10 1   
    23   10   11 1   
    24   10   12 1   
    25   10   31 1   
    26   11   32 1   
    27   11   33 1   
    28   11   34 1   
    29   12   13 1   
    30   12   35 1   
    31   12   36 1   
    32   13   14 1   
    33   14   15 1   
    34   14   16 1   
    35   14   37 1   
    36   15   38 1   
    37   15   39 1   
    38   15   40 1   
    39   16   17 1   
    40   16   41 1   
    41   16   42 1   
    42   17   43 1   
@<TRIPOS>SUBSTRUCTURE
     1 2Q5         1 TEMP              0 ****  ****    0 ROOT
