@<TRIPOS>MOLECULE
2Q6
  111   111     1     0     0
SMALL
bcc


@<TRIPOS>ATOM
      1 O1          1.2260   -3.6520   -0.1700 os        1 2Q6     -0.161000
      2 C7          1.7660    2.7910   -1.2160 ca        1 2Q6      0.026000
      3 O2          0.9610   13.7950   -5.2940 os        1 2Q6     -0.180000
      4 C6          0.6870    3.3680   -0.5190 ca        1 2Q6     -0.143500
      5 C1          2.4300   10.7170   -3.8310 c3        1 2Q6     -0.308000
      6 N1          2.1120   -1.7070    0.8310 n3        1 2Q6     -0.185000
      7 C5          0.4550    4.7370   -0.6130 ca        1 2Q6     -0.109000
      8 C4          1.2730    5.5610   -1.3920 ca        1 2Q6     -0.058000
      9 C3          1.0250    7.0190   -1.4590 c3        1 2Q6     -0.198000
     10 C2          1.7670    9.4190   -3.9070 c1        1 2Q6      0.001000
     11 O3         -5.7470   21.9070   -6.2520 os        1 2Q6     -0.261000
     12 C30        -5.5650   20.9110   -7.1860 c2        1 2Q6      0.411000
     13 O4         -4.4420   20.3650   -7.2750 o         1 2Q6     -0.494000
     14 C31        -4.5930   22.2560   -5.4860 c3        1 2Q6     -0.049000
     15 C29        -1.5600   18.1820   -3.7090 c3        1 2Q6     -0.209000
     16 C28        -1.7280   17.5680   -5.0860 c3        1 2Q6     -0.061000
     17 C32        -2.4260   18.5790   -6.0350 c3        1 2Q6     -0.123000
     18 C33        -1.5240   18.7330   -7.2050 c2        1 2Q6     -0.069000
     19 C37        -1.7040   19.4740   -8.3640 c2        1 2Q6     -0.008000
     20 C36        -0.7030   19.4390   -9.3580 c2        1 2Q6     -0.103000
     21 C38        -0.9020   20.2030  -10.6240 c3        1 2Q6     -0.224000
     22 C39        -1.6040   19.5700  -11.7170 c1        1 2Q6     -0.005000
     23 C40         2.0340   17.5600  -10.7740 c1        1 2Q6      0.362000
     24 C41         1.5270   18.6030  -10.1370 c2        1 2Q6     -0.539000
     25 C35         0.4590   18.6670   -9.1550 c2        1 2Q6      0.120000
     26 N4          0.6200   17.9430   -7.9850 na        1 2Q6     -0.069000
     27 C34        -0.3390   17.9740   -7.0310 c2        1 2Q6      0.044000
     28 C27        -2.5370   16.3050   -5.0350 c2        1 2Q6      0.179000
     29 C26        -0.3200   17.2550   -5.7000 c3        1 2Q6     -0.012000
     30 C25        -0.0390   15.8130   -5.8730 c2        1 2Q6     -0.324000
     31 C42        -2.9260   15.7130   -3.9270 c1        1 2Q6     -0.571000
     32 C43        -3.3160   15.0970   -2.8720 c1        1 2Q6      0.246000
     33 C24         0.7390   15.1200   -5.0160 c2        1 2Q6      0.041000
     34 C23         1.5740   13.0610   -4.2070 c3        1 2Q6     -0.083000
     35 C           1.8850   11.7300   -4.7150 c1        1 2Q6     -0.056000
     36 C9          2.3400    4.9830   -2.0910 ca        1 2Q6     -0.109000
     37 C8          2.5930    3.6190   -2.0090 ca        1 2Q6     -0.143500
     38 C10         1.6080    0.5180   -0.2270 c2        1 2Q6      0.296000
     39 O           0.8510    0.7950    0.7190 o         1 2Q6     -0.330000
     40 C11         2.0920   -0.9530   -0.4290 c3        1 2Q6     -0.042000
     41 C12         1.1610   -1.5820   -1.4700 c3        1 2Q6     -0.218000
     42 C17        -0.0430   -2.4120   -5.9090 c3        1 2Q6     -0.216000
     43 C16        -0.3410   -2.5820   -4.4410 c3        1 2Q6     -0.161000
     44 C15         0.5300   -3.6560   -3.8240 c3        1 2Q6     -0.163000
     45 C14         0.2910   -3.8090   -2.3340 c3        1 2Q6     -0.166000
     46 C13         1.3480   -3.0830   -1.5130 c3        1 2Q6      0.026000
     47 C22         2.5730   -1.0000    2.0130 c3        1 2Q6     -0.108000
     48 C21         3.2550   -5.2440    2.9810 c2        1 2Q6     -0.136000
     49 C20         2.2950   -4.9630    2.1030 c2        1 2Q6     -0.264000
     50 C19         1.4090   -3.7550    2.2250 c3        1 2Q6      0.074000
     51 N2          0.0010   -3.9940    2.3810 n3        1 2Q6     -0.361000
     52 C18         1.6010   -2.9400    0.9000 c2        1 2Q6      0.293000
     53 H1          0.0220    2.7530    0.1080 ha        1 2Q6      0.148000
     54 H2          2.5340   11.0010   -2.7420 hc        1 2Q6      0.168000
     55 H3          3.4890   10.4950   -4.2010 hc        1 2Q6      0.168000
     56 H4         -0.3920    5.1760   -0.0600 ha        1 2Q6      0.145500
     57 H5          1.4430    7.4700   -2.3970 hc        1 2Q6      0.097000
     58 H6         -0.0720    7.2340   -1.4210 hc        1 2Q6      0.097000
     59 H7          1.0240    9.2920   -4.7120 ha        1 2Q6      0.064000
     60 H8          1.5090    7.5230   -0.5850 hc        1 2Q6      0.097000
     61 H9         -3.8030   22.6710   -6.1570 h1        1 2Q6      0.093000
     62 H10        -4.9830   23.0320   -4.7790 h1        1 2Q6      0.093000
     63 H11        -4.2060   21.3610   -4.9410 h1        1 2Q6      0.093000
     64 H12        -6.6460   19.9160   -8.5930 hn        1 2Q6      0.255500
     65 H13        -0.9650   19.1250   -3.7680 hc        1 2Q6      0.097333
     66 H14        -7.5200   21.1310   -7.7510 hn        1 2Q6      0.255500
     67 H15        -1.0420   17.4660   -3.0250 hc        1 2Q6      0.097333
     68 H16        -2.5890   19.5690   -5.5300 hc        1 2Q6      0.147000
     69 H17        -3.4400   18.2250   -6.3640 hc        1 2Q6      0.147000
     70 H18        -2.6270   20.0750   -8.5010 ha        1 2Q6      0.219000
     71 H19        -1.4830   21.1550  -10.4050 hc        1 2Q6      0.178000
     72 H20         0.0920   20.5530  -11.0410 hc        1 2Q6      0.178000
     73 H21        -1.9930   18.5520  -11.5750 ha        1 2Q6      0.056000
     74 H22         1.9700   19.5950  -10.4090 ha        1 2Q6      0.240000
     75 H23         1.4480   17.3850   -7.8510 hn        1 2Q6      0.290000
     76 H24         0.4660   17.7350   -5.0480 hc        1 2Q6      0.136000
     77 H25        -0.5100   15.3030   -6.7280 ha        1 2Q6      0.159000
     78 H26        -2.8020   15.8860   -6.0270 ha        1 2Q6      0.130000
     79 H27         1.2140   15.5440   -4.1170 h4        1 2Q6      0.139000
     80 H28         0.1840   13.3530   -7.6420 ha        1 2Q6      0.001500
     81 H29         0.4040   12.7760   -7.3610 ha        1 2Q6      0.001500
     82 H30         0.8420   13.0290   -3.3500 h1        1 2Q6      0.117500
     83 H31         2.5100   13.5970   -3.8790 h1        1 2Q6      0.117500
     84 H32         2.9900    5.6180   -2.7130 ha        1 2Q6      0.145500
     85 H33         3.4410    3.1980   -2.5700 ha        1 2Q6      0.148000
     86 H34         2.6900    1.0800   -1.8670 hn        1 2Q6      0.236000
     87 H35         3.1600   -0.9610   -0.8070 h1        1 2Q6      0.137000
     88 H36         1.3950   -1.1500   -2.4800 hc        1 2Q6      0.148500
     89 H37         1.0210   -2.1100   -6.0660 hc        1 2Q6      0.082667
     90 H38         0.0910   -1.3310   -1.2310 hc        1 2Q6      0.148500
     91 H39        -0.7020   -1.6240   -6.3470 hc        1 2Q6      0.082667
     92 H40        -0.2210   -3.3670   -6.4600 hc        1 2Q6      0.082667
     93 H41        -1.4220   -2.8550   -4.3070 hc        1 2Q6      0.079000
     94 H42        -0.1800   -1.6080   -3.9070 hc        1 2Q6      0.079000
     95 H43         0.3030   -4.6360   -4.3250 hc        1 2Q6      0.096500
     96 H44         1.6100   -3.4320   -4.0290 hc        1 2Q6      0.096500
     97 H45         0.3270   -4.8980   -2.0550 hc        1 2Q6      0.116000
     98 H46        -0.7280   -3.4300   -2.0560 hc        1 2Q6      0.116000
     99 H47         2.3870   -3.3570   -1.8550 h1        1 2Q6      0.127000
    100 H48         3.1830   -0.1120    1.6920 h1        1 2Q6      0.130667
    101 H49         1.6900   -0.6300    2.6060 h1        1 2Q6      0.130667
    102 H50         3.2170   -1.6750    2.6360 h1        1 2Q6      0.130667
    103 H51         3.8760   -6.1490    2.8910 ha        1 2Q6      0.137000
    104 H52         3.4880   -4.6090    3.8490 ha        1 2Q6      0.137000
    105 H53         2.0720   -5.6220    1.2470 ha        1 2Q6      0.155000
    106 H54        -0.2720   -4.0230    3.3410 hn        1 2Q6      0.196500
    107 H55         1.7550   -3.1040    3.0850 h1        1 2Q6      0.132000
    108 H231       -0.3120   -4.8030    1.8830 hn        1 2Q6      0.196500
    109 H321       -2.5620   18.4160   -3.2720 hc        1 2Q6      0.097333
    110 N           2.0490    1.4030   -1.1770 n         1 2Q6     -0.298000
    111 N3         -6.6770   20.6410   -7.9220 n         1 2Q6     -0.395000
@<TRIPOS>BOND
     1    1   46 1   
     2    1   52 1   
     3    2    4 1   
     4    2   37 1   
     5    2  110 1   
     6    3   33 1   
     7    3   34 1   
     8    4    7 1   
     9    4   53 1   
    10    5   10 1   
    11    5   35 1   
    12    5   54 1   
    13    5   55 1   
    14    6   40 1   
    15    6   47 1   
    16    6   52 1   
    17    7    8 1   
    18    7   56 1   
    19    8    9 1   
    20    8   36 1   
    21    9   57 1   
    22    9   58 1   
    23    9   60 1   
    24   10   59 1   
    25   11   12 1   
    26   11   14 1   
    27   12   13 1   
    28   12  111 1   
    29   14   61 1   
    30   14   62 1   
    31   14   63 1   
    32   15   16 1   
    33   15   65 1   
    34   15   67 1   
    35   15  109 1   
    36   16   17 1   
    37   16   28 1   
    38   16   29 1   
    39   17   18 1   
    40   17   68 1   
    41   17   69 1   
    42   18   19 1   
    43   18   27 1   
    44   19   20 1   
    45   19   70 1   
    46   20   21 1   
    47   20   25 1   
    48   21   22 1   
    49   21   71 1   
    50   21   72 1   
    51   22   73 1   
    52   23   24 1   
    53   24   25 1   
    54   24   74 1   
    55   25   26 1   
    56   26   27 1   
    57   26   75 1   
    58   27   29 1   
    59   28   31 1   
    60   28   78 1   
    61   29   30 1   
    62   29   76 1   
    63   30   33 1   
    64   30   77 1   
    65   31   32 1   
    66   33   79 1   
    67   34   35 1   
    68   34   82 1   
    69   34   83 1   
    70   36   37 1   
    71   36   84 1   
    72   37   85 1   
    73   38   39 1   
    74   38   40 1   
    75   38  110 1   
    76   40   41 1   
    77   40   87 1   
    78   41   46 1   
    79   41   88 1   
    80   41   90 1   
    81   42   43 1   
    82   42   89 1   
    83   42   91 1   
    84   42   92 1   
    85   43   44 1   
    86   43   93 1   
    87   43   94 1   
    88   44   45 1   
    89   44   95 1   
    90   44   96 1   
    91   45   46 1   
    92   45   97 1   
    93   45   98 1   
    94   46   99 1   
    95   47  100 1   
    96   47  101 1   
    97   47  102 1   
    98   48   49 1   
    99   48  103 1   
   100   48  104 1   
   101   49   50 1   
   102   49  105 1   
   103   50   51 1   
   104   50   52 1   
   105   50  107 1   
   106   51  106 1   
   107   51  108 1   
   108   64  111 1   
   109   66  111 1   
   110   80   81 1   
   111   86  110 1   
@<TRIPOS>SUBSTRUCTURE
     1 2Q6         1 TEMP              0 ****  ****    0 ROOT
