@<TRIPOS>MOLECULE
2Q8
   52    55     1     0     0
SMALL
bcc


@<TRIPOS>ATOM
      1 O1         -0.0910   -0.2880   -0.0480 o         1 2Q8     -0.513100
      2 C18         1.1330   -0.1320   -0.0230 c         1 2Q8      0.603700
      3 C19         1.8980   -0.0140    1.2700 c3        1 2Q8     -0.176400
      4 C1          3.1320    0.8830    1.1920 c3        1 2Q8     -0.039000
      5 C20         3.8830    0.7910    2.5150 c3        1 2Q8     -0.095100
      6 C           2.7150    2.3280    0.9590 c3        1 2Q8     -0.095100
      7 C4          1.9550   -0.0710   -1.2260 cc        1 2Q8     -0.192600
      8 C5          1.5800   -0.2080   -2.6110 cc        1 2Q8     -0.029300
      9 C16         0.2890   -0.5630   -3.2120 c3        1 2Q8     -0.022100
     10 C15         0.3100   -0.3500   -4.7300 c3        1 2Q8      0.163800
     11 N2          1.5550   -0.7660   -5.3700 n3        1 2Q8     -0.725600
     12 C17         1.4790   -0.7140   -6.8130 c3        1 2Q8      0.154100
     13 C14         2.7360   -0.0700   -4.8660 c3        1 2Q8      0.247100
     14 C6          2.7270    0.0060   -3.3780 cd        1 2Q8     -0.135600
     15 N           3.8270    0.2480   -2.5090 na        1 2Q8     -0.008200
     16 C3          3.3320    0.1920   -1.1830 cd        1 2Q8     -0.040600
     17 C2          4.0790    0.4220    0.0720 c3        1 2Q8     -0.022100
     18 C7          5.1510    0.4300   -2.8870 ca        1 2Q8      0.142800
     19 C12         6.2200   -0.0570   -2.0900 ca        1 2Q8     -0.172000
     20 C11         7.5350    0.1280   -2.4750 ca        1 2Q8     -0.029000
     21 C10         7.8500    0.8050   -3.6730 ca        1 2Q8     -0.253600
     22 C13         9.2550    0.9440   -3.9890 c         1 2Q8      0.581700
     23 N1          9.6040    1.6010   -5.3220 nz        1 2Q8     -0.763400
     24 O          10.2430    0.6080   -3.3520 o         1 2Q8     -0.430100
     25 C9          6.7990    1.2960   -4.4690 ca        1 2Q8     -0.029000
     26 C8          5.4830    1.1170   -4.0910 ca        1 2Q8     -0.172000
     27 H1          2.2090   -1.0520    1.5680 hc        1 2Q8      0.083200
     28 H2          1.2100    0.3740    2.0670 hc        1 2Q8      0.083200
     29 H3          4.1850   -0.2630    2.7250 hc        1 2Q8      0.045200
     30 H4          4.7980    1.4290    2.4850 hc        1 2Q8      0.045200
     31 H5          3.2300    1.1450    3.3490 hc        1 2Q8      0.045200
     32 H6          2.0390    2.6690    1.7800 hc        1 2Q8      0.045200
     33 H7          3.6110    2.9930    0.9390 hc        1 2Q8      0.045200
     34 H8          2.1720    2.4240   -0.0120 hc        1 2Q8      0.045200
     35 H9          0.0650   -1.6410   -2.9790 hc        1 2Q8      0.084700
     36 H10        -0.5360    0.0520   -2.7620 hc        1 2Q8      0.084700
     37 H11        -0.5200   -0.9640   -5.1810 h1        1 2Q8      0.045200
     38 H12         0.0870    0.7370   -4.9430 h1        1 2Q8      0.045200
     39 H14         0.6250   -1.3590   -7.1490 h1        1 2Q8      0.039033
     40 H15         1.3250    0.3250   -7.2150 h1        1 2Q8      0.039033
     41 H16         2.4300   -1.1260   -7.2420 h1        1 2Q8      0.039033
     42 H17         3.6400   -0.6390   -5.2280 h1        1 2Q8      0.033200
     43 H18         2.8000    0.9850   -5.2800 h1        1 2Q8      0.033200
     44 H19         4.5640   -0.5430    0.3900 hc        1 2Q8      0.059700
     45 H20         4.8870    1.1880   -0.0650 hc        1 2Q8      0.059700
     46 H21         6.0120   -0.6150   -1.1600 ha        1 2Q8      0.178000
     47 H22         8.3530   -0.2680   -1.8450 ha        1 2Q8      0.148500
     48 H23         9.1800    1.0750   -6.0900 hn        1 2Q8      0.465467
     49 H24        10.6250    1.6130   -5.4410 hn        1 2Q8      0.465467
     50 H25         6.9910    1.8460   -5.4040 ha        1 2Q8      0.148500
     51 H26         4.6810    1.5340   -4.7250 ha        1 2Q8      0.178000
     52 H13         9.2520    2.5610   -5.3400 hn        1 2Q8      0.465467
@<TRIPOS>BOND
     1    1    2 2   
     2    2    3 1   
     3    2    7 1   
     4    3    4 1   
     5    3   27 1   
     6    3   28 1   
     7    4    5 1   
     8    4    6 1   
     9    4   17 1   
    10    5   29 1   
    11    5   30 1   
    12    5   31 1   
    13    6   32 1   
    14    6   33 1   
    15    6   34 1   
    16    7    8 1   
    17    7   16 2   
    18    8    9 1   
    19    8   14 2   
    20    9   10 1   
    21    9   35 1   
    22    9   36 1   
    23   10   11 1   
    24   10   37 1   
    25   10   38 1   
    26   11   12 1   
    27   11   13 1   
    28   12   39 1   
    29   12   40 1   
    30   12   41 1   
    31   13   14 1   
    32   13   42 1   
    33   13   43 1   
    34   14   15 1   
    35   15   16 1   
    36   15   18 1   
    37   16   17 1   
    38   17   44 1   
    39   17   45 1   
    40   18   19 ar  
    41   18   26 ar  
    42   19   20 ar  
    43   19   46 1   
    44   20   21 ar  
    45   20   47 1   
    46   21   22 1   
    47   21   25 ar  
    48   22   23 1   
    49   22   24 2   
    50   23   48 1   
    51   23   49 1   
    52   23   52 1   
    53   25   26 ar  
    54   25   50 1   
    55   26   51 1   
@<TRIPOS>SUBSTRUCTURE
     1 2Q8         1 TEMP              0 ****  ****    0 ROOT
