@<TRIPOS>MOLECULE
2Q8
   52    55     1     0     0
SMALL
bcc


@<TRIPOS>ATOM
      1 O1         -0.0870   -0.2900   -0.0410 o         1 2Q8     -0.513100
      2 C18         1.1370   -0.1290   -0.0180 c         1 2Q8      0.603700
      3 C19         1.9020   -0.0020    1.2740 c3        1 2Q8     -0.176400
      4 C1          3.1330    0.9000    1.1910 c3        1 2Q8     -0.039000
      5 C20         3.8850    0.8180    2.5140 c3        1 2Q8     -0.095100
      6 C           2.7100    2.3420    0.9500 c3        1 2Q8     -0.095100
      7 C4          1.9580   -0.0710   -1.2220 cc        1 2Q8     -0.192600
      8 C5          1.5830   -0.2170   -2.6060 cc        1 2Q8     -0.029300
      9 C16         0.2920   -0.5800   -3.2040 c3        1 2Q8     -0.022100
     10 C15         0.3110   -0.3760   -4.7230 c3        1 2Q8      0.163800
     11 N2          1.5570   -0.7900   -5.3620 n3        1 2Q8     -0.725600
     12 C17         1.4800   -0.7460   -6.8050 c3        1 2Q8      0.154100
     13 C14         2.7360   -0.0860   -4.8620 c3        1 2Q8      0.247100
     14 C6          2.7280   -0.0030   -3.3740 cd        1 2Q8     -0.135600
     15 N           3.8270    0.2480   -2.5080 na        1 2Q8     -0.008200
     16 C3          3.3330    0.1970   -1.1810 cd        1 2Q8     -0.040600
     17 C2          4.0810    0.4360    0.0730 c3        1 2Q8     -0.022100
     18 C7          5.1500    0.4320   -2.8870 ca        1 2Q8      0.142800
     19 C12         6.2220   -0.0460   -2.0880 ca        1 2Q8     -0.172000
     20 C11         7.5370    0.1410   -2.4760 ca        1 2Q8     -0.029000
     21 C10         7.8470    0.8130   -3.6780 ca        1 2Q8     -0.253600
     22 C13         9.2510    0.9550   -3.9960 c         1 2Q8      0.581700
     23 N1          9.5980    1.6050   -5.3330 n4        1 2Q8     -0.763400
     24 O          10.2420    0.6260   -3.3570 o         1 2Q8     -0.430100
     25 C9          6.7940    1.2960   -4.4760 ca        1 2Q8     -0.029000
     26 C8          5.4790    1.1140   -4.0960 ca        1 2Q8     -0.172000
     27 H1          1.2130    0.3880    2.0700 hc        1 2Q8      0.083200
     28 H2          2.2180   -1.0370    1.5770 hc        1 2Q8      0.083200
     29 H3          4.7980    1.4590    2.4800 hc        1 2Q8      0.045200
     30 H4          3.2310    1.1740    3.3460 hc        1 2Q8      0.045200
     31 H5          4.1920   -0.2340    2.7290 hc        1 2Q8      0.045200
     32 H6          2.1670    2.4300   -0.0210 hc        1 2Q8      0.045200
     33 H7          2.0330    2.6850    1.7700 hc        1 2Q8      0.045200
     34 H8          3.6030    3.0100    0.9260 hc        1 2Q8      0.045200
     35 H9         -0.5350    0.0340   -2.7560 hc        1 2Q8      0.084700
     36 H10         0.0730   -1.6580   -2.9650 hc        1 2Q8      0.084700
     37 H11         0.0840    0.7100   -4.9410 h1        1 2Q8      0.045200
     38 H12        -0.5170   -0.9950   -5.1700 h1        1 2Q8      0.045200
     39 H14         1.3220    0.2910   -7.2120 h1        1 2Q8      0.039033
     40 H15         2.4320   -1.1570   -7.2320 h1        1 2Q8      0.039033
     41 H16         0.6280   -1.3950   -7.1370 h1        1 2Q8      0.039033
     42 H17         3.6420   -0.6550   -5.2210 h1        1 2Q8      0.033200
     43 H18         2.7960    0.9660   -5.2810 h1        1 2Q8      0.033200
     44 H19         4.5700   -0.5250    0.3950 hc        1 2Q8      0.059700
     45 H20         4.8860    1.2050   -0.0700 hc        1 2Q8      0.059700
     46 H21         6.0160   -0.5990   -1.1550 ha        1 2Q8      0.178000
     47 H22         8.3560   -0.2480   -1.8440 ha        1 2Q8      0.148500
     48 H23         9.1740    1.0730   -6.0980 hn        1 2Q8      0.465467
     49 H24         9.2420    2.5630   -5.3560 hn        1 2Q8      0.465467
     50 H25         6.9830    1.8410   -5.4140 ha        1 2Q8      0.148500
     51 H26         4.6760    1.5240   -4.7310 ha        1 2Q8      0.178000
     52 H13        10.6180    1.6190   -5.4540 hn        1 2Q8      0.465467
@<TRIPOS>BOND
     1    1    2 2   
     2    2    3 1   
     3    2    7 1   
     4    3    4 1   
     5    3   27 1   
     6    3   28 1   
     7    4    5 1   
     8    4    6 1   
     9    4   17 1   
    10    5   29 1   
    11    5   30 1   
    12    5   31 1   
    13    6   32 1   
    14    6   33 1   
    15    6   34 1   
    16    7    8 1   
    17    7   16 2   
    18    8    9 1   
    19    8   14 2   
    20    9   10 1   
    21    9   35 1   
    22    9   36 1   
    23   10   11 1   
    24   10   37 1   
    25   10   38 1   
    26   11   12 1   
    27   11   13 1   
    28   12   39 1   
    29   12   40 1   
    30   12   41 1   
    31   13   14 1   
    32   13   42 1   
    33   13   43 1   
    34   14   15 1   
    35   15   16 1   
    36   15   18 1   
    37   16   17 1   
    38   17   44 1   
    39   17   45 1   
    40   18   19 ar  
    41   18   26 ar  
    42   19   20 ar  
    43   19   46 1   
    44   20   21 ar  
    45   20   47 1   
    46   21   22 1   
    47   21   25 ar  
    48   22   23 1   
    49   22   24 2   
    50   23   48 1   
    51   23   49 1   
    52   23   52 1   
    53   25   26 ar  
    54   25   50 1   
    55   26   51 1   
@<TRIPOS>SUBSTRUCTURE
     1 2Q8         1 TEMP              0 ****  ****    0 ROOT
