@<TRIPOS>MOLECULE
2Q9
   66    67     1     0     0
SMALL
bcc


@<TRIPOS>ATOM
      1 N           2.2460   -0.0410    0.2740 n2        1 2Q9     -0.793100
      2 C          -1.0780    1.2350    3.4030 c3        1 2Q9     -0.070900
      3 C20         4.9260    1.0750    4.4980 c         1 2Q9      0.599300
      4 C21         4.6690    2.5420    4.2790 c3        1 2Q9     -0.177400
      5 C22         3.9180    2.8850    2.9900 c3        1 2Q9     -0.039000
      6 C25         3.9040    4.4000    2.8290 c3        1 2Q9     -0.098600
      7 C24         2.4850    2.3790    3.0700 c3        1 2Q9     -0.098600
      8 C23         4.6120    2.2820    1.7560 c3        1 2Q9     -0.034200
      9 C12         4.9670    0.8750    2.0200 cc        1 2Q9     -0.010300
     10 C13         5.1190    0.3050    3.2670 cd        1 2Q9     -0.171200
     11 C14         5.4560   -1.1080    3.0990 cd        1 2Q9     -0.069000
     12 C18         9.1350   -2.8840   -0.2190 c2        1 2Q9     -0.275000
     13 C17         8.0340   -2.4270    0.3950 c2        1 2Q9      0.006000
     14 N3          6.6980   -2.5880   -0.0270 nh        1 2Q9     -0.656400
     15 C19         6.4680   -3.5290   -1.1010 c3        1 2Q9      0.161100
     16 C16         5.7330   -2.6800    1.0580 c3        1 2Q9      0.235000
     17 C15         5.5000   -1.3790    1.7530 cc        1 2Q9     -0.100300
     18 N2          5.2010   -0.1500    1.0190 na        1 2Q9      0.129200
     19 C5          5.1090   -0.0050   -0.2430 c1        1 2Q9      0.046100
     20 C4          2.2170   -2.3650   -0.4810 c3        1 2Q9     -0.153400
     21 C6          5.1140    0.0790   -1.5580 ce        1 2Q9      0.019900
     22 C7          4.0080   -0.1110   -2.4500 ce        1 2Q9     -0.182200
     23 C11         4.2680    0.2140   -3.8850 c3        1 2Q9     -0.062200
     24 C10         3.3430   -0.5860   -4.8150 c3        1 2Q9      0.166800
     25 N1          1.9960   -0.7910   -4.4130 n2        1 2Q9     -0.501200
     26 C9          1.6670   -0.7930   -3.1300 cf        1 2Q9      0.541500
     27 O           0.5170   -0.9810   -2.6390 o         1 2Q9     -0.740300
     28 C8          2.7780   -0.5560   -2.0780 cf        1 2Q9     -0.145800
     29 C3          2.4290   -0.8900   -0.6780 cf        1 2Q9      0.483600
     30 C1         -1.8810    2.4380    3.6980 c2        1 2Q9     -0.164200
     31 C2         -2.4600    2.6840    4.8720 c2        1 2Q9     -0.231000
     32 H1          2.1100   -2.6430    0.5940 hc        1 2Q9      0.069033
     33 H2         -1.0600    0.5240    4.2650 hc        1 2Q9      0.043033
     34 H3         -1.4960    0.7000    2.5140 hc        1 2Q9      0.043033
     35 H4         -0.0220    1.5270    3.1660 hc        1 2Q9      0.043033
     36 H5          4.0900    2.9420    5.1540 hc        1 2Q9      0.085200
     37 H6          5.6700    3.0540    4.2740 hc        1 2Q9      0.085200
     38 H7          3.3760    4.8700    3.6940 hc        1 2Q9      0.050200
     39 H8          3.3680    4.6810    1.8910 hc        1 2Q9      0.050200
     40 H9          4.9440    4.8040    2.7840 hc        1 2Q9      0.050200
     41 H10         1.9670    2.8220    3.9540 hc        1 2Q9      0.050200
     42 H11         1.9210    2.6640    2.1480 hc        1 2Q9      0.050200
     43 H12         2.4670    1.2660    3.1630 hc        1 2Q9      0.050200
     44 H13         3.9300    2.3720    0.8680 hc        1 2Q9      0.079700
     45 H14         5.5490    2.8610    1.5280 hc        1 2Q9      0.079700
     46 H15         5.6280   -1.8000    3.9260 ha        1 2Q9      0.197000
     47 H16        10.1310   -2.6150    0.1550 ha        1 2Q9      0.126000
     48 H17         9.1260   -3.5260   -1.1070 ha        1 2Q9      0.126000
     49 H18         8.1200   -1.7960    1.3030 h4        1 2Q9      0.131000
     50 H20         7.0850   -3.2160   -1.9840 h1        1 2Q9      0.049033
     51 H21         6.7460   -4.5810   -0.8230 h1        1 2Q9      0.049033
     52 H22         5.3850   -3.5050   -1.3960 h1        1 2Q9      0.049033
     53 H23         6.0520   -3.4210    1.8510 h1        1 2Q9      0.077200
     54 H24         4.7410   -3.0290    0.6370 h1        1 2Q9      0.077200
     55 H25         1.2700   -2.6250   -1.0300 hc        1 2Q9      0.069033
     56 H26         3.0640   -2.9370   -0.9310 hc        1 2Q9      0.069033
     57 H27         6.0920    0.3540   -2.0210 ha        1 2Q9      0.204000
     58 H28         5.3340   -0.0040   -4.1540 hc        1 2Q9      0.038200
     59 H29         4.0970    1.3130   -4.0370 hc        1 2Q9      0.038200
     60 H30         3.8390   -1.5870   -5.0050 h1        1 2Q9      0.023200
     61 H31         3.3120   -0.0460   -5.8060 h1        1 2Q9      0.023200
     62 H32         2.3200    0.9190    0.0060 hn        1 2Q9      0.377400
     63 H33        -1.9820    3.1460    2.8580 ha        1 2Q9      0.117000
     64 H34        -2.3850    2.0000    5.7270 ha        1 2Q9      0.109000
     65 H35        -3.0540    3.5890    5.0540 ha        1 2Q9      0.109000
     66 O1          5.0010    0.5700    5.6200 o         1 2Q9     -0.499100
@<TRIPOS>BOND
     1    1   29 2   
     2    1   62 1   
     3    2   30 1   
     4    2   33 1   
     5    2   34 1   
     6    2   35 1   
     7    3    4 1   
     8    3   10 1   
     9    3   66 2   
    10    4    5 1   
    11    4   36 1   
    12    4   37 1   
    13    5    6 1   
    14    5    7 1   
    15    5    8 1   
    16    6   38 1   
    17    6   39 1   
    18    6   40 1   
    19    7   41 1   
    20    7   42 1   
    21    7   43 1   
    22    8    9 1   
    23    8   44 1   
    24    8   45 1   
    25    9   10 2   
    26    9   18 1   
    27   10   11 1   
    28   11   17 2   
    29   11   46 1   
    30   12   13 2   
    31   12   47 1   
    32   12   48 1   
    33   13   14 1   
    34   13   49 1   
    35   14   15 1   
    36   14   16 1   
    37   15   50 1   
    38   15   51 1   
    39   15   52 1   
    40   16   17 1   
    41   16   53 1   
    42   16   54 1   
    43   17   18 1   
    44   18   19 2   
    45   19   21 2   
    46   20   29 1   
    47   20   32 1   
    48   20   55 1   
    49   20   56 1   
    50   21   22 1   
    51   21   57 1   
    52   22   23 1   
    53   22   28 2   
    54   23   24 1   
    55   23   58 1   
    56   23   59 1   
    57   24   25 1   
    58   24   60 1   
    59   24   61 1   
    60   25   26 2   
    61   26   27 1   
    62   26   28 1   
    63   28   29 1   
    64   30   31 2   
    65   30   63 1   
    66   31   64 1   
    67   31   65 1   
@<TRIPOS>SUBSTRUCTURE
     1 2Q9         1 TEMP              0 ****  ****    0 ROOT
