@<TRIPOS>MOLECULE
2Q9
   66    68     1     0     0
SMALL
bcc


@<TRIPOS>ATOM
      1 N           1.7130    0.2600    0.1460 n2        1 2Q9     -0.766100
      2 C           0.7740   -0.2570    3.5970 c3        1 2Q9     -0.076900
      3 C20         5.5800    1.4230    3.7070 c         1 2Q9      0.602300
      4 C21         5.5970    2.9300    3.6920 c3        1 2Q9     -0.176400
      5 C22         4.6230    3.5660    2.6990 c3        1 2Q9     -0.044000
      6 C25         4.8800    5.0680    2.6640 c3        1 2Q9     -0.092600
      7 C24         3.1900    3.3210    3.1500 c3        1 2Q9     -0.092600
      8 C23         4.8240    3.0110    1.2830 c3        1 2Q9     -0.038200
      9 C12         4.9790    1.5380    1.3120 c2        1 2Q9      0.199800
     10 C13         5.3270    0.8050    2.4130 ce        1 2Q9     -0.278400
     11 C14         5.3660   -0.6660    2.0830 c3        1 2Q9      0.037700
     12 C18         6.7170   -1.2870    2.3860 c3        1 2Q9     -0.128700
     13 C17         6.6240   -2.7810    2.4890 c2        1 2Q9      0.417200
     14 N3          7.4570   -3.5700    1.9130 n2        1 2Q9     -0.601900
     15 C19         7.3680   -4.9860    2.0750 c3        1 2Q9      0.089100
     16 C16         4.9430   -1.7560   -0.1820 c2        1 2Q9     -0.215000
     17 C15         5.0150   -0.6710    0.5930 c2        1 2Q9      0.007800
     18 N2          4.7760    0.6970    0.1640 nh        1 2Q9     -0.200000
     19 C5          4.4180    1.1910   -0.9910 cg        1 2Q9     -0.095300
     20 C4          0.7240   -1.6380   -1.1390 c3        1 2Q9     -0.189400
     21 C6          4.1990    0.5430   -2.2460 ce        1 2Q9     -0.080700
     22 C7          3.0190    0.3000   -2.8330 c2        1 2Q9     -0.153400
     23 C11         2.8720   -0.0660   -4.2850 c3        1 2Q9     -0.063200
     24 C10         1.3590    0.0160   -4.6020 c3        1 2Q9      0.028000
     25 N1          0.6360    0.3150   -3.3710 n         1 2Q9     -0.360800
     26 C9          0.8490    1.5660   -2.7260 c         1 2Q9      0.671500
     27 O           0.4750    2.7170   -2.6840 o         1 2Q9     -0.476500
     28 C8          1.6500    0.4190   -2.2480 cx        1 2Q9     -0.118700
     29 C3          1.3790   -0.3000   -0.9610 c2        1 2Q9      0.475300
     30 C1          1.3660   -1.5310    3.1440 c2        1 2Q9     -0.162200
     31 C2          0.7320   -2.4250    2.3880 c2        1 2Q9     -0.242000
     32 H1          1.2670   -2.2270   -1.9180 hc        1 2Q9      0.058367
     33 H2         -0.2720   -0.1270    3.2240 hc        1 2Q9      0.047700
     34 H3          1.3890    0.6050    3.2300 hc        1 2Q9      0.047700
     35 H4          0.7570   -0.2190    4.7150 hc        1 2Q9      0.047700
     36 H5          6.6450    3.2450    3.4370 hc        1 2Q9      0.075200
     37 H6          5.3710    3.3090    4.7240 hc        1 2Q9      0.075200
     38 H7          4.7040    5.5110    3.6740 hc        1 2Q9      0.042533
     39 H8          4.1900    5.5560    1.9350 hc        1 2Q9      0.042533
     40 H9          5.9320    5.2810    2.3590 hc        1 2Q9      0.042533
     41 H10         3.0300    3.7390    4.1730 hc        1 2Q9      0.042533
     42 H11         2.9740    2.2250    3.1730 hc        1 2Q9      0.042533
     43 H12         2.4740    3.8110    2.4470 hc        1 2Q9      0.042533
     44 H13         3.9570    3.3020    0.6280 hc        1 2Q9      0.090700
     45 H14         5.7500    3.4570    0.8260 hc        1 2Q9      0.090700
     46 H15         4.5580   -1.2020    2.6550 hc        1 2Q9      0.079700
     47 H16         7.4680   -0.9660    1.6190 hc        1 2Q9      0.080700
     48 H17         7.0640   -0.9070    3.3890 hc        1 2Q9      0.080700
     49 H18         5.7850   -3.1290    3.1350 h4        1 2Q9     -0.034200
     50 H20         8.3290   -5.3440    2.5340 h1        1 2Q9      0.044700
     51 H21         6.5140   -5.3450    2.7110 h1        1 2Q9      0.044700
     52 H22         7.2720   -5.4460    1.0550 h1        1 2Q9      0.044700
     53 H23         5.1640   -2.7500    0.2290 ha        1 2Q9      0.135500
     54 H24         4.6780   -1.7220   -1.2470 ha        1 2Q9      0.135500
     55 H25         0.7170   -2.2240   -0.1850 hc        1 2Q9      0.058367
     56 H26        -0.3320   -1.4960   -1.4770 hc        1 2Q9      0.058367
     57 H27         5.1290    0.4280   -2.8420 ha        1 2Q9      0.150000
     58 H28         3.2510   -1.1020   -4.4710 hc        1 2Q9      0.060200
     59 H29         3.4500    0.6380   -4.9340 hc        1 2Q9      0.060200
     60 H30         0.9770   -0.9730   -4.9730 h1        1 2Q9      0.068700
     61 H31         1.1530    0.7940   -5.3830 h1        1 2Q9      0.068700
     62 H32         1.5090   -0.2730    0.9710 hn        1 2Q9      0.397400
     63 H33         2.4030   -1.7070    3.4820 ha        1 2Q9      0.118000
     64 H34         1.2010   -3.3660    2.0720 ha        1 2Q9      0.112000
     65 H35        -0.3010   -2.2850    2.0430 ha        1 2Q9      0.112000
     66 O1          5.8010    0.7780    4.7400 o         1 2Q9     -0.541100
@<TRIPOS>BOND
     1    1   29 2   
     2    1   62 1   
     3    2   30 1   
     4    2   33 1   
     5    2   34 1   
     6    2   35 1   
     7    3    4 1   
     8    3   10 1   
     9    3   66 2   
    10    4    5 1   
    11    4   36 1   
    12    4   37 1   
    13    5    6 1   
    14    5    7 1   
    15    5    8 1   
    16    6   38 1   
    17    6   39 1   
    18    6   40 1   
    19    7   41 1   
    20    7   42 1   
    21    7   43 1   
    22    8    9 1   
    23    8   44 1   
    24    8   45 1   
    25    9   10 2   
    26    9   18 1   
    27   10   11 1   
    28   11   12 1   
    29   11   17 1   
    30   11   46 1   
    31   12   13 1   
    32   12   47 1   
    33   12   48 1   
    34   13   14 2   
    35   13   49 1   
    36   14   15 1   
    37   15   50 1   
    38   15   51 1   
    39   15   52 1   
    40   16   17 2   
    41   16   53 1   
    42   16   54 1   
    43   17   18 1   
    44   18   19 3   
    45   19   21 1   
    46   20   29 1   
    47   20   32 1   
    48   20   55 1   
    49   20   56 1   
    50   21   22 2   
    51   21   57 1   
    52   22   23 1   
    53   22   28 1   
    54   23   24 1   
    55   23   58 1   
    56   23   59 1   
    57   24   25 1   
    58   24   60 1   
    59   24   61 1   
    60   25   26 1   
    61   25   28 1   
    62   26   27 2   
    63   26   28 1   
    64   28   29 1   
    65   30   31 2   
    66   30   63 1   
    67   31   64 1   
    68   31   65 1   
@<TRIPOS>SUBSTRUCTURE
     1 2Q9         1 TEMP              0 ****  ****    0 ROOT
