@<TRIPOS>MOLECULE
2Q9
   67    69     1     0     0
SMALL
bcc


@<TRIPOS>ATOM
      1 N           0.1280    0.0550    0.0250 n4        1 2Q9     -0.019000
      2 C          -0.9530    2.1410    2.2750 c3        1 2Q9     -0.225000
      3 C20         7.3850    1.7510    2.0740 c2        1 2Q9      0.222000
      4 C21         7.2090    2.8880    1.2350 c1        1 2Q9     -0.028000
      5 C22         3.7250    1.7310    3.1550 c3        1 2Q9     -0.103000
      6 C25         3.0960    3.0850    3.4180 c3        1 2Q9     -0.209500
      7 C24         2.7280    0.6280    3.4360 c3        1 2Q9     -0.209500
      8 C23         4.2460    1.6850    1.7220 c3        1 2Q9     -0.121000
      9 C12         5.1990    0.5690    1.4790 c2        1 2Q9      0.018000
     10 C13         6.5580    0.6190    1.6120 c2        1 2Q9     -0.199000
     11 C14         7.1670   -0.7040    1.2180 c3        1 2Q9     -0.009000
     12 C18         8.0860   -1.3750    2.2170 c3        1 2Q9     -0.160000
     13 C17         8.3680   -2.8120    1.7710 c3        1 2Q9     -0.042000
     14 N3          7.2200   -3.5660    1.2860 n3        1 2Q9     -0.258000
     15 C19         7.2090   -4.9680    1.6120 c3        1 2Q9     -0.088000
     16 C16         6.0010   -2.9210    1.1500 c2        1 2Q9      0.021000
     17 C15         5.9240   -1.5650    1.0570 c2        1 2Q9     -0.213000
     18 N2          4.7290   -0.7610    1.1260 n3        1 2Q9     -0.098000
     19 C5          3.8690   -0.8280   -0.0690 c3        1 2Q9     -0.061000
     20 C4          2.4210   -0.7440    0.3390 c2        1 2Q9     -0.046000
     21 C6          4.2340    0.0460   -1.1910 c1        1 2Q9     -0.009000
     22 C7          3.2050    0.5060   -2.0760 c2        1 2Q9     -0.065000
     23 C11         3.6410    1.0620   -3.3830 c3        1 2Q9     -0.142000
     24 C10         2.4980    1.2030   -4.3870 c3        1 2Q9     -0.035000
     25 N1          1.2380    1.5860   -3.8060 n         1 2Q9     -0.330000
     26 C9          0.8770    1.2480   -2.5340 c2        1 2Q9      0.339000
     27 O          -0.2690    1.5260   -2.0980 o         1 2Q9     -0.430000
     28 C8          1.8940    0.5560   -1.6820 c2        1 2Q9     -0.089000
     29 C3          1.5160   -0.0680   -0.4180 c2        1 2Q9     -0.138000
     30 C1         -0.9520    0.7720    2.8310 c2        1 2Q9     -0.179000
     31 C2         -1.7890   -0.1940    2.4490 c2        1 2Q9     -0.269000
     32 H1         -0.0110   -0.3430    0.9660 hn        1 2Q9      0.271000
     33 H2         -1.5990    2.2320    1.3670 hc        1 2Q9      0.098333
     34 H3          0.0880    2.4680    2.0240 hc        1 2Q9      0.098333
     35 H4         -1.3510    2.8520    3.0460 hc        1 2Q9      0.098333
     36 H5          4.6010    1.6040    3.8540 hc        1 2Q9      0.121000
     37 H6          7.8420    3.1560    0.3900 ha        1 2Q9      0.134000
     38 H7          3.8390    3.9020    3.2520 hc        1 2Q9      0.073333
     39 H8          2.7390    3.1440    4.4750 hc        1 2Q9      0.073333
     40 H9          2.2250    3.2540    2.7400 hc        1 2Q9      0.073333
     41 H10         1.8800    0.6670    2.7060 hc        1 2Q9      0.073333
     42 H11         2.3070    0.7440    4.4650 hc        1 2Q9      0.073333
     43 H12         3.2160   -0.3730    3.3650 hc        1 2Q9      0.073333
     44 H13         3.3800    1.6190    1.0100 hc        1 2Q9      0.098500
     45 H14         4.7910    2.6500    1.5080 hc        1 2Q9      0.098500
     46 H15         7.7020   -0.5910    0.2340 hc        1 2Q9      0.114000
     47 H16         7.6170   -1.3670    3.2350 hc        1 2Q9      0.112500
     48 H17         9.0560   -0.8190    2.2880 hc        1 2Q9      0.112500
     49 H18         8.8400   -3.3610    2.6360 h1        1 2Q9      0.095000
     50 H20         9.1160   -2.7920    0.9250 h1        1 2Q9      0.095000
     51 H21         8.2080   -5.4040    1.3430 h1        1 2Q9      0.085667
     52 H22         7.0200   -5.1480    2.7060 h1        1 2Q9      0.085667
     53 H23         6.4150   -5.4910    1.0160 h1        1 2Q9      0.085667
     54 H24         5.1140   -3.5740    1.0600 h4        1 2Q9      0.137000
     55 H25         2.1540   -1.2610    1.2800 ha        1 2Q9      0.178000
     56 H26         4.0130   -1.8860   -0.5060 h1        1 2Q9      0.197000
     57 H27         4.4350    0.4030   -3.8290 hc        1 2Q9      0.140500
     58 H28         4.1220    2.0630   -3.1910 hc        1 2Q9      0.140500
     59 H29         2.3610    0.2210   -4.9290 h1        1 2Q9      0.109500
     60 H30         2.7820    1.9800   -5.1550 h1        1 2Q9      0.109500
     61 H31         0.5730    2.0580   -4.3800 hn        1 2Q9      0.268000
     62 H32        -0.1300    1.0600    0.0370 hn        1 2Q9      0.271000
     63 H33        -0.2170    0.6010    3.6400 ha        1 2Q9      0.144000
     64 H34        -1.7960   -1.1850    2.9250 ha        1 2Q9      0.128000
     65 H35        -2.5710   -0.0390    1.6920 ha        1 2Q9      0.128000
     66 HN3        -0.4900   -0.4030   -0.6570 hn        1 2Q9      0.271000
     67 O1          8.0380    1.7240    3.1300 o         1 2Q9     -0.289000
@<TRIPOS>BOND
     1    1   29 1   
     2    1   32 1   
     3    1   62 1   
     4    1   66 1   
     5    2   30 1   
     6    2   33 1   
     7    2   34 1   
     8    2   35 1   
     9    3    4 1   
    10    3   10 1   
    11    3   67 1   
    12    4   37 1   
    13    5    6 1   
    14    5    7 1   
    15    5    8 1   
    16    5   36 1   
    17    6   38 1   
    18    6   39 1   
    19    6   40 1   
    20    7   41 1   
    21    7   42 1   
    22    7   43 1   
    23    8    9 1   
    24    8   44 1   
    25    8   45 1   
    26    9   10 1   
    27    9   18 1   
    28   10   11 1   
    29   11   12 1   
    30   11   17 1   
    31   11   46 1   
    32   12   13 1   
    33   12   47 1   
    34   12   48 1   
    35   13   14 1   
    36   13   49 1   
    37   13   50 1   
    38   14   15 1   
    39   14   16 1   
    40   15   51 1   
    41   15   52 1   
    42   15   53 1   
    43   16   17 1   
    44   16   54 1   
    45   17   18 1   
    46   18   19 1   
    47   19   20 1   
    48   19   21 1   
    49   19   56 1   
    50   20   29 1   
    51   20   55 1   
    52   21   22 1   
    53   22   23 1   
    54   22   28 1   
    55   23   24 1   
    56   23   57 1   
    57   23   58 1   
    58   24   25 1   
    59   24   59 1   
    60   24   60 1   
    61   25   26 1   
    62   25   61 1   
    63   26   27 1   
    64   26   28 1   
    65   28   29 1   
    66   30   31 1   
    67   30   63 1   
    68   31   64 1   
    69   31   65 1   
@<TRIPOS>SUBSTRUCTURE
     1 2Q9         1 TEMP              0 ****  ****    0 ROOT
