@<TRIPOS>MOLECULE
2QA
   59    61     1     0     0
SMALL
bcc


@<TRIPOS>ATOM
      1 C1         -0.2910    0.1200    0.2480 cc        1 2QA     -0.067300
      2 C2          1.1080    0.0730    0.2380 cd        1 2QA     -0.171300
      3 C3          0.4810    0.2370    2.4160 cd        1 2QA     -0.043600
      4 C4         -0.6930    0.2210    1.6280 cc        1 2QA     -0.240600
      5 C5         -2.0120    0.2970    2.2240 c         1 2QA      0.613700
      6 C6         -2.0340    0.1980    3.7310 c3        1 2QA     -0.174400
      7 C22         7.1210   -0.0330    2.9280 c         1 2QA      0.672700
      8 N1          7.4910    0.0280    4.2480 n         1 2QA     -0.668000
      9 C23         4.7220    2.6290    5.0450 c2        1 2QA     -0.196000
     10 C24         5.3730    2.1230    3.9970 ce        1 2QA     -0.137200
     11 C13         4.8410    1.0770    3.1280 ca        1 2QA     -0.018800
     12 C12         3.4850    1.1030    2.7790 ca        1 2QA     -0.138000
     13 C14         5.6700    0.0750    2.5980 ca        1 2QA     -0.132600
     14 C15         5.1440   -0.8680    1.7090 ca        1 2QA     -0.075000
     15 C17         7.6710   -2.7240   -0.1970 c2        1 2QA     -0.188200
     16 C21         7.9140   -2.7590   -1.6750 c3        1 2QA     -0.055200
     17 C20         7.2610   -4.0630   -2.1560 c3        1 2QA     -0.083400
     18 C19         6.6660   -4.7340   -0.9100 c3        1 2QA     -0.055200
     19 C18         6.9880   -3.8040    0.2210 c2        1 2QA     -0.188200
     20 C16         3.7970   -0.8520    1.3670 ca        1 2QA     -0.139000
     21 C11         2.9460    0.1330    1.9130 ca        1 2QA      0.020800
     22 N           1.5790    0.1540    1.5610 na        1 2QA      0.006800
     23 C8          0.4830    0.2750    3.8940 c3        1 2QA     -0.014100
     24 C7         -0.8380    0.8480    4.4250 c3        1 2QA     -0.039000
     25 C10        -0.9220    0.5540    5.9170 c3        1 2QA     -0.092100
     26 C9         -0.8720    2.3550    4.2140 c3        1 2QA     -0.092100
     27 O          -3.0650    0.4030    1.5810 o         1 2QA     -0.550100
     28 C          -1.1710    0.0680   -0.9210 c3        1 2QA     -0.039800
     29 H1          1.8040    0.0040   -0.5980 h4        1 2QA      0.175000
     30 H2         -2.0620   -0.8950    3.9890 hc        1 2QA      0.071700
     31 H3         -2.9800    0.6630    4.1150 hc        1 2QA      0.071700
     32 H4          6.8280    0.2220    4.9530 hn        1 2QA      0.316000
     33 H5          8.4470   -0.0480    4.4900 hn        1 2QA      0.316000
     34 H6          3.7250    2.2830    5.3530 ha        1 2QA      0.119500
     35 H7          5.1520    3.4260    5.6650 ha        1 2QA      0.119500
     36 H8          6.3730    2.4980    3.7150 ha        1 2QA      0.142000
     37 H9          2.8480    1.9100    3.1780 ha        1 2QA      0.153000
     38 H10         5.8160   -1.6290    1.2680 ha        1 2QA      0.170000
     39 H11         8.0360   -1.8890    0.4110 ha        1 2QA      0.148000
     40 H12         7.4590   -1.8680   -2.1740 hc        1 2QA      0.048200
     41 H13         9.0110   -2.7500   -1.8950 hc        1 2QA      0.048200
     42 H14         8.0170   -4.7280   -2.6390 hc        1 2QA      0.041700
     43 H15         6.4630   -3.8510   -2.9080 hc        1 2QA      0.041700
     44 H16         5.5610   -4.8720   -1.0120 hc        1 2QA      0.048200
     45 H17         7.1210   -5.7410   -0.7360 hc        1 2QA      0.048200
     46 H18         6.6820   -4.0400    1.2400 ha        1 2QA      0.148000
     47 H19         3.4020   -1.6050    0.6670 ha        1 2QA      0.156000
     48 H20         0.6120   -0.7740    4.2800 hc        1 2QA      0.058200
     49 H21         1.3370    0.8860    4.2910 hc        1 2QA      0.058200
     50 H22        -0.9210   -0.5470    6.1020 hc        1 2QA      0.040033
     51 H23        -0.0520    1.0060    6.4490 hc        1 2QA      0.040033
     52 H24        -1.8620    0.9840    6.3400 hc        1 2QA      0.040033
     53 H25        -0.0210    2.8410    4.7490 hc        1 2QA      0.040033
     54 H26        -0.7970    2.5930    3.1260 hc        1 2QA      0.040033
     55 H27        -1.8270    2.7780    4.6080 hc        1 2QA      0.040033
     56 H28        -2.2150    0.3570   -0.6350 hc        1 2QA      0.052700
     57 H29        -0.8100    0.7630   -1.7200 hc        1 2QA      0.052700
     58 H30        -1.1950   -0.9680   -1.3440 hc        1 2QA      0.052700
     59 O1          7.9840   -0.2210    2.0440 o         1 2QA     -0.612100
@<TRIPOS>BOND
     1    1    2 2   
     2    1    4 1   
     3    1   28 1   
     4    2   22 1   
     5    2   29 1   
     6    3    4 2   
     7    3   22 1   
     8    3   23 1   
     9    4    5 1   
    10    5    6 1   
    11    5   27 2   
    12    6   24 1   
    13    6   30 1   
    14    6   31 1   
    15    7    8 1   
    16    7   13 1   
    17    7   59 2   
    18    8   32 1   
    19    8   33 1   
    20    9   10 2   
    21    9   34 1   
    22    9   35 1   
    23   10   11 1   
    24   10   36 1   
    25   11   12 ar  
    26   11   13 ar  
    27   12   21 ar  
    28   12   37 1   
    29   13   14 ar  
    30   14   20 ar  
    31   14   38 1   
    32   15   16 1   
    33   15   19 2   
    34   15   39 1   
    35   16   17 1   
    36   16   40 1   
    37   16   41 1   
    38   17   18 1   
    39   17   42 1   
    40   17   43 1   
    41   18   19 1   
    42   18   44 1   
    43   18   45 1   
    44   19   46 1   
    45   20   21 ar  
    46   20   47 1   
    47   21   22 1   
    48   23   24 1   
    49   23   48 1   
    50   23   49 1   
    51   24   25 1   
    52   24   26 1   
    53   25   50 1   
    54   25   51 1   
    55   25   52 1   
    56   26   53 1   
    57   26   54 1   
    58   26   55 1   
    59   28   56 1   
    60   28   57 1   
    61   28   58 1   
@<TRIPOS>SUBSTRUCTURE
     1 2QA         1 TEMP              0 ****  ****    0 ROOT
