@<TRIPOS>MOLECULE
2QA
   59    61     1     0     0
SMALL
bcc


@<TRIPOS>ATOM
      1 C1         -0.2850    0.1450    0.3310 cc        1 2QA     -0.067300
      2 C2          1.1130    0.0920    0.2930 cd        1 2QA     -0.171300
      3 C3          0.5290    0.2130    2.4860 cd        1 2QA     -0.043600
      4 C4         -0.6590    0.2180    1.7210 cc        1 2QA     -0.240600
      5 C5         -1.9670    0.2880    2.3440 c         1 2QA      0.613700
      6 C6         -1.9600    0.1570    3.8490 c3        1 2QA     -0.174400
      7 C22         7.1770   -0.0990    2.8630 c         1 2QA      0.672700
      8 N1          7.5730   -0.0660    4.1760 n         1 2QA     -0.668000
      9 C23         4.8330    2.5300    5.0800 c2        1 2QA     -0.195000
     10 C24         5.4610    2.0430    4.0090 ce        1 2QA     -0.137200
     11 C13         4.9070    1.0180    3.1300 ca        1 2QA     -0.018800
     12 C12         3.5450    1.0570    2.8080 ca        1 2QA     -0.138000
     13 C14         5.7200    0.0230    2.5640 ca        1 2QA     -0.132600
     14 C15         5.1720   -0.9000    1.6670 ca        1 2QA     -0.075000
     15 C17         7.6480   -2.7300   -0.3250 c2        1 2QA     -0.188200
     16 C21         7.8510   -2.7350   -1.8100 c3        1 2QA     -0.055200
     17 C20         7.1790   -4.0260   -2.3010 c3        1 2QA     -0.083400
     18 C19         6.6140   -4.7200   -1.0530 c3        1 2QA     -0.055200
     19 C18         6.9700   -3.8160    0.0880 c2        1 2QA     -0.188200
     20 C16         3.8190   -0.8700    1.3510 ca        1 2QA     -0.139000
     21 C11         2.9840    0.1080    1.9330 ca        1 2QA      0.020800
     22 N           1.6100    0.1430    1.6090 na        1 2QA      0.006800
     23 C8          0.5610    0.2200    3.9640 c3        1 2QA     -0.014100
     24 C7         -0.7470    0.7880    4.5320 c3        1 2QA     -0.039000
     25 C10        -0.8040    0.4620    6.0200 c3        1 2QA     -0.092100
     26 C9         -0.7780    2.2990    4.3540 c3        1 2QA     -0.092100
     27 O          -3.0310    0.4120    1.7240 o         1 2QA     -0.550100
     28 C          -1.1880    0.1210   -0.8210 c3        1 2QA     -0.039800
     29 H1          1.7930    0.0380   -0.5570 h4        1 2QA      0.175000
     30 H2         -1.9870   -0.9410    4.0840 hc        1 2QA      0.071700
     31 H3         -2.8960    0.6180    4.2610 hc        1 2QA      0.071700
     32 H4          6.9250    0.1180    4.8970 hn        1 2QA      0.316000
     33 H5          8.5340   -0.1510    4.3970 hn        1 2QA      0.316000
     34 H6          3.8420    2.1830    5.4010 ha        1 2QA      0.119500
     35 H7          5.2790    3.3130    5.7080 ha        1 2QA      0.119500
     36 H8          6.4580    2.4200    3.7150 ha        1 2QA      0.142000
     37 H9          2.9200    1.8590    3.2360 ha        1 2QA      0.153000
     38 H10         5.8310   -1.6550    1.1980 ha        1 2QA      0.170000
     39 H11         8.0320   -1.9090    0.2900 ha        1 2QA      0.148000
     40 H12         7.3870   -1.8310   -2.2770 hc        1 2QA      0.048200
     41 H13         8.9420   -2.7260   -2.0580 hc        1 2QA      0.048200
     42 H14         6.3620   -3.7930   -3.0260 hc        1 2QA      0.041700
     43 H15         7.9180   -4.6840   -2.8170 hc        1 2QA      0.041700
     44 H16         5.5050   -4.8500   -1.1280 hc        1 2QA      0.048200
     45 H17         7.0680   -5.7330   -0.9130 hc        1 2QA      0.048200
     46 H18         6.6900   -4.0720    1.1100 ha        1 2QA      0.148000
     47 H19         3.4060   -1.6070    0.6440 ha        1 2QA      0.156000
     48 H20         1.4240    0.8190    4.3570 hc        1 2QA      0.058200
     49 H21         0.6920   -0.8380    4.3250 hc        1 2QA      0.058200
     50 H22         0.0790    0.9000    6.5440 hc        1 2QA      0.040033
     51 H23        -0.8040   -0.6420    6.1810 hc        1 2QA      0.040033
     52 H24        -1.7330    0.8870    6.4700 hc        1 2QA      0.040033
     53 H25        -1.7240    2.7170    4.7750 hc        1 2QA      0.040033
     54 H26        -0.7240    2.5590    3.2690 hc        1 2QA      0.040033
     55 H27         0.0850    2.7700    4.8820 hc        1 2QA      0.040033
     56 H28        -2.2250    0.4050   -0.5080 hc        1 2QA      0.052700
     57 H29        -1.2220   -0.9050   -1.2670 hc        1 2QA      0.052700
     58 H30        -0.8410    0.8340   -1.6100 hc        1 2QA      0.052700
     59 O1          8.0210   -0.2740    1.9580 o         1 2QA     -0.612100
@<TRIPOS>BOND
     1    1    2 2   
     2    1    4 1   
     3    1   28 1   
     4    2   22 1   
     5    2   29 1   
     6    3    4 2   
     7    3   22 1   
     8    3   23 1   
     9    4    5 1   
    10    5    6 1   
    11    5   27 2   
    12    6   24 1   
    13    6   30 1   
    14    6   31 1   
    15    7    8 1   
    16    7   13 1   
    17    7   59 2   
    18    8   32 1   
    19    8   33 1   
    20    9   10 2   
    21    9   34 1   
    22    9   35 1   
    23   10   11 1   
    24   10   36 1   
    25   11   12 ar  
    26   11   13 ar  
    27   12   21 ar  
    28   12   37 1   
    29   13   14 ar  
    30   14   20 ar  
    31   14   38 1   
    32   15   16 1   
    33   15   19 2   
    34   15   39 1   
    35   16   17 1   
    36   16   40 1   
    37   16   41 1   
    38   17   18 1   
    39   17   42 1   
    40   17   43 1   
    41   18   19 1   
    42   18   44 1   
    43   18   45 1   
    44   19   46 1   
    45   20   21 ar  
    46   20   47 1   
    47   21   22 1   
    48   23   24 1   
    49   23   48 1   
    50   23   49 1   
    51   24   25 1   
    52   24   26 1   
    53   25   50 1   
    54   25   51 1   
    55   25   52 1   
    56   26   53 1   
    57   26   54 1   
    58   26   55 1   
    59   28   56 1   
    60   28   57 1   
    61   28   58 1   
@<TRIPOS>SUBSTRUCTURE
     1 2QA         1 TEMP              0 ****  ****    0 ROOT
