@<TRIPOS>MOLECULE
2QA
   59    61     1     0     0
SMALL
bcc


@<TRIPOS>ATOM
      1 C1         -0.2920    0.1270    0.2390 cc        1 2QA     -0.067300
      2 C2          1.1070    0.0770    0.2320 cd        1 2QA     -0.171300
      3 C3          0.4740    0.2020    2.4110 cd        1 2QA     -0.043600
      4 C4         -0.6970    0.2020    1.6200 cc        1 2QA     -0.240600
      5 C5         -2.0180    0.2690    2.2130 c         1 2QA      0.613700
      6 C6         -2.0440    0.1420    3.7180 c3        1 2QA     -0.174400
      7 C22         7.1130   -0.0900    2.9360 c         1 2QA      0.672700
      8 N1          7.4790   -0.0530    4.2580 nt        1 2QA     -0.668000
      9 C23         4.7120    2.5370    5.0950 c2        1 2QA     -0.195000
     10 C24         5.3660    2.0490    4.0400 ce        1 2QA     -0.137200
     11 C13         4.8340    1.0200    3.1510 ca        1 2QA     -0.018800
     12 C12         3.4790    1.0550    2.7990 ca        1 2QA     -0.138000
     13 C14         5.6620    0.0270    2.6050 ca        1 2QA     -0.132600
     14 C15         5.1370   -0.8990    1.6980 ca        1 2QA     -0.075000
     15 C17         7.6610   -2.7220   -0.2370 c2        1 2QA     -0.188200
     16 C21         7.8930   -2.7270   -1.7180 c3        1 2QA     -0.055200
     17 C20         7.2360   -4.0200   -2.2220 c3        1 2QA     -0.083400
     18 C19         6.6490   -4.7170   -0.9850 c3        1 2QA     -0.055200
     19 C18         6.9800   -3.8110    0.1620 c2        1 2QA     -0.188200
     20 C16         3.7910   -0.8740    1.3520 ca        1 2QA     -0.139000
     21 C11         2.9400    0.1030    1.9130 ca        1 2QA      0.020800
     22 N           1.5740    0.1330    1.5580 na        1 2QA      0.006800
     23 C8          0.4730    0.2120    3.8900 c3        1 2QA     -0.014100
     24 C7         -0.8490    0.7770    4.4270 c3        1 2QA     -0.039000
     25 C10        -0.9390    0.4540    5.9140 c3        1 2QA     -0.092100
     26 C9         -0.8810    2.2880    4.2450 c3        1 2QA     -0.092100
     27 O          -3.0690    0.3890    1.5690 o         1 2QA     -0.550100
     28 C          -1.1690    0.0980   -0.9330 c3        1 2QA     -0.039800
     29 H1          1.8060    0.0240   -0.6020 h4        1 2QA      0.175000
     30 H2         -2.0740   -0.9560    3.9550 hc        1 2QA      0.071700
     31 H3         -2.9910    0.6010    4.1080 hc        1 2QA      0.071700
     32 H4          6.8140    0.1300    4.9650 hn        1 2QA      0.316000
     33 H5          8.4350   -0.1350    4.5010 hn        1 2QA      0.316000
     34 H6          3.7150    2.1880    5.3950 ha        1 2QA      0.119500
     35 H7          5.1420    3.3220    5.7310 ha        1 2QA      0.119500
     36 H8          6.3670    2.4280    3.7670 ha        1 2QA      0.142000
     37 H9          2.8430    1.8560    3.2110 ha        1 2QA      0.153000
     38 H10         5.8080   -1.6530    1.2450 ha        1 2QA      0.170000
     39 H11         8.0300   -1.9000    0.3850 ha        1 2QA      0.148000
     40 H12         8.9890   -2.7140   -1.9450 hc        1 2QA      0.048200
     41 H13         7.4350   -1.8250   -2.1950 hc        1 2QA      0.048200
     42 H14         6.4330   -3.7920   -2.9630 hc        1 2QA      0.041700
     43 H15         7.9870   -4.6760   -2.7240 hc        1 2QA      0.041700
     44 H16         5.5430   -4.8520   -1.0820 hc        1 2QA      0.048200
     45 H17         7.1050   -5.7280   -0.8360 hc        1 2QA      0.048200
     46 H18         6.6810   -4.0680    1.1790 ha        1 2QA      0.148000
     47 H19         3.3970   -1.6140    0.6370 ha        1 2QA      0.156000
     48 H20         1.3260    0.8140    4.3000 hc        1 2QA      0.058200
     49 H21         0.5990   -0.8450    4.2560 hc        1 2QA      0.058200
     50 H22        -0.0690    0.8960    6.4570 hc        1 2QA      0.040033
     51 H23        -1.8790    0.8780    6.3420 hc        1 2QA      0.040033
     52 H24        -0.9390   -0.6500    6.0770 hc        1 2QA      0.040033
     53 H25        -0.0310    2.7630    4.7910 hc        1 2QA      0.040033
     54 H26        -1.8360    2.7040    4.6440 hc        1 2QA      0.040033
     55 H27        -0.8020    2.5460    3.1610 hc        1 2QA      0.040033
     56 H28        -2.2140    0.3800   -0.6440 hc        1 2QA      0.052700
     57 H29        -0.8060    0.8100   -1.7160 hc        1 2QA      0.052700
     58 H30        -1.1910   -0.9290   -1.3770 hc        1 2QA      0.052700
     59 O1          7.9770   -0.2640    2.0510 o         1 2QA     -0.612100
@<TRIPOS>BOND
     1    1    2 2   
     2    1    4 1   
     3    1   28 1   
     4    2   22 1   
     5    2   29 1   
     6    3    4 2   
     7    3   22 1   
     8    3   23 1   
     9    4    5 1   
    10    5    6 1   
    11    5   27 2   
    12    6   24 1   
    13    6   30 1   
    14    6   31 1   
    15    7    8 1   
    16    7   13 1   
    17    7   59 2   
    18    8   32 1   
    19    8   33 1   
    20    9   10 2   
    21    9   34 1   
    22    9   35 1   
    23   10   11 1   
    24   10   36 1   
    25   11   12 ar  
    26   11   13 ar  
    27   12   21 ar  
    28   12   37 1   
    29   13   14 ar  
    30   14   20 ar  
    31   14   38 1   
    32   15   16 1   
    33   15   19 2   
    34   15   39 1   
    35   16   17 1   
    36   16   40 1   
    37   16   41 1   
    38   17   18 1   
    39   17   42 1   
    40   17   43 1   
    41   18   19 1   
    42   18   44 1   
    43   18   45 1   
    44   19   46 1   
    45   20   21 ar  
    46   20   47 1   
    47   21   22 1   
    48   23   24 1   
    49   23   48 1   
    50   23   49 1   
    51   24   25 1   
    52   24   26 1   
    53   25   50 1   
    54   25   51 1   
    55   25   52 1   
    56   26   53 1   
    57   26   54 1   
    58   26   55 1   
    59   28   56 1   
    60   28   57 1   
    61   28   58 1   
@<TRIPOS>SUBSTRUCTURE
     1 2QA         1 TEMP              0 ****  ****    0 ROOT
