@<TRIPOS>MOLECULE
2QB
   20    20     1     0     0
SMALL
bcc


@<TRIPOS>ATOM
      1 NAH         0.0170   -0.6250    0.3300 n1        1 2QB     -0.047000
      2 NAG         1.0350   -0.1250    0.3200 n1        1 2QB      0.222000
      3 NAF         2.1490    0.3990    0.0780 n2        1 2QB     -0.466200
      4 CAE         2.9960    0.9210    1.1370 c3        1 2QB      0.227100
      5 C5          3.4310   -0.0490    2.1790 ca        1 2QB     -0.445900
      6 C6          3.0370    0.1140    3.5180 ca        1 2QB      0.475200
      7 N1          3.4060   -0.7090    4.5110 nb        1 2QB     -0.742000
      8 C2          4.2140   -1.7640    4.1550 ca        1 2QB      0.696300
      9 CAL         4.6310   -2.7070    5.2600 c3        1 2QB     -0.138400
     10 N3          4.6650   -2.0330    2.9010 nb        1 2QB     -0.773000
     11 C4          4.2890   -1.1650    1.8940 ca        1 2QB      0.715200
     12 NAA         4.7980   -1.3670    0.6290 nv        1 2QB     -0.953500
     13 H2          3.8910    1.3050    0.5620 h1        1 2QB      0.069700
     14 H3          2.5180    1.8120    1.6430 h1        1 2QB      0.069700
     15 H4          2.3870    0.9600    3.8130 h4        1 2QB      0.023100
     16 H5          3.7200   -3.1420    5.7390 hc        1 2QB      0.064033
     17 H6          5.2690   -3.5370    4.8700 hc        1 2QB      0.064033
     18 H7          5.2080   -2.1380    6.0300 hc        1 2QB      0.064033
     19 H8          4.3700   -0.8970   -0.1300 hn        1 2QB      0.439300
     20 H9          5.2860   -2.2080    0.4350 hn        1 2QB      0.439300
@<TRIPOS>BOND
     1    1    2 3   
     2    2    3 1   
     3    3    4 1   
     4    4    5 1   
     5    4   13 1   
     6    4   14 1   
     7    5    6 ar  
     8    5   11 ar  
     9    6    7 ar  
    10    6   15 1   
    11    7    8 ar  
    12    8    9 1   
    13    8   10 ar  
    14    9   16 1   
    15    9   17 1   
    16    9   18 1   
    17   10   11 ar  
    18   11   12 1   
    19   12   19 1   
    20   12   20 1   
@<TRIPOS>SUBSTRUCTURE
     1 2QB         1 TEMP              0 ****  ****    0 ROOT
