@<TRIPOS>MOLECULE
2QB
   21    21     1     0     0
SMALL
bcc


@<TRIPOS>ATOM
      1 NAH         0.0750   -0.1910   -0.4900 n1        1 2QB      0.075000
      2 NAG         1.1290   -0.0200   -0.1220 n1        1 2QB      0.214000
      3 NAF         2.3360    0.2930    0.1000 n2        1 2QB     -0.527200
      4 CAE         2.9510    0.0510    1.3920 c3        1 2QB      0.192100
      5 C5          3.8560   -1.1400    1.4110 ca        1 2QB     -0.303900
      6 C6          3.7910   -2.0970    2.4670 ca        1 2QB      0.472200
      7 N1          4.5970   -3.1550    2.5460 nb        1 2QB     -0.641000
      8 C2          5.5370   -3.3190    1.5470 ca        1 2QB      0.716300
      9 CAL         6.4510   -4.5140    1.6330 c3        1 2QB     -0.152400
     10 N3          5.6900   -2.4670    0.4910 nb        1 2QB     -0.704000
     11 C4          4.8470   -1.3970    0.4440 ca        1 2QB      0.510200
     12 NAA         5.0160   -0.4800   -0.7050 n4        1 2QB     -0.816300
     13 H2          3.5750    0.9770    1.5830 h1        1 2QB      0.092700
     14 H3          2.2260   -0.0300    2.2550 h1        1 2QB      0.092700
     15 H4          3.0450   -1.9810    3.2810 h4        1 2QB      0.068100
     16 H5          5.8340   -5.4490    1.6420 hc        1 2QB      0.091367
     17 H6          7.0350   -4.4630    2.5880 hc        1 2QB      0.091367
     18 H7          7.1620   -4.5530    0.7720 hc        1 2QB      0.091367
     19 H8          4.2680   -0.6610   -1.3870 hn        1 2QB      0.478467
     20 H9          4.9400    0.4890   -0.3720 hn        1 2QB      0.478467
     21 HAA3        5.9290   -0.6210   -1.1580 hn        1 2QB      0.478467
@<TRIPOS>BOND
     1    1    2 3   
     2    2    3 1   
     3    3    4 1   
     4    4    5 1   
     5    4   13 1   
     6    4   14 1   
     7    5    6 ar  
     8    5   11 ar  
     9    6    7 ar  
    10    6   15 1   
    11    7    8 ar  
    12    8    9 1   
    13    8   10 ar  
    14    9   16 1   
    15    9   17 1   
    16    9   18 1   
    17   10   11 ar  
    18   11   12 1   
    19   12   19 1   
    20   12   20 1   
    21   12   21 1   
@<TRIPOS>SUBSTRUCTURE
     1 2QB         1 TEMP              0 ****  ****    0 ROOT
