@<TRIPOS>MOLECULE
2QC
   23    24     1     0     0
SMALL
bcc


@<TRIPOS>ATOM
      1 CAE        -0.0020   -0.0650    0.0370 ca        1 2QC     -0.109500
      2 CAF         1.3890   -0.0600    0.0530 ca        1 2QC     -0.094000
      3 CAK         2.0800    0.0330    1.2690 ca        1 2QC     -0.209300
      4 CAL         3.5660    0.0100    1.2790 c3        1 2QC      0.179100
      5 NAM         4.1210    1.3810    1.0040 n4        1 2QC     -0.845600
      6 CAJ         1.3670    0.1090    2.4700 ca        1 2QC     -0.094000
      7 CAI        -0.0250    0.1020    2.4560 ca        1 2QC     -0.109500
      8 CAD        -0.7240    0.0180    1.2410 ca        1 2QC     -0.035500
      9 CAC        -2.1740    0.0170    1.2360 cc        1 2QC      0.270800
     10 NAB        -2.9190    0.4170    0.0900 nc        1 2QC     -0.264000
     11 NAA        -4.1450    0.3560    0.2650 nd        1 2QC     -0.127100
     12 SAG        -4.5910   -0.1870    1.8020 ss        1 2QC      0.234200
     13 CAH        -3.0130   -0.3550    2.2960 cd        1 2QC     -0.208400
     14 H1         -0.5330   -0.1400   -0.9270 ha        1 2QC      0.168500
     15 H2          1.9420   -0.1470   -0.8950 ha        1 2QC      0.140500
     16 H3          3.9640   -0.3220    2.2810 hx        1 2QC      0.112700
     17 H4          3.9650   -0.6790    0.4780 hx        1 2QC      0.112700
     18 H5          3.8110    2.0340    1.7320 hn        1 2QC      0.457467
     19 H6          3.7720    1.7190    0.1010 hn        1 2QC      0.457467
     20 H8          1.8990    0.1620    3.4330 ha        1 2QC      0.140500
     21 H9         -0.5790    0.1650    3.4070 ha        1 2QC      0.168500
     22 H11        -2.6760   -0.7070    3.2700 h4        1 2QC      0.199000
     23 HAM3        5.1430    1.3560    0.9850 hn        1 2QC      0.457467
@<TRIPOS>BOND
     1    1    2 ar  
     2    1    8 ar  
     3    1   14 1   
     4    2    3 ar  
     5    2   15 1   
     6    3    4 1   
     7    3    6 ar  
     8    4    5 1   
     9    4   16 1   
    10    4   17 1   
    11    5   18 1   
    12    5   19 1   
    13    5   23 1   
    14    6    7 ar  
    15    6   20 1   
    16    7    8 ar  
    17    7   21 1   
    18    8    9 1   
    19    9   10 1   
    20    9   13 2   
    21   10   11 2   
    22   11   12 1   
    23   12   13 1   
    24   13   22 1   
@<TRIPOS>SUBSTRUCTURE
     1 2QC         1 TEMP              0 ****  ****    0 ROOT
