@<TRIPOS>MOLECULE
2QC
   23    24     1     0     0
SMALL
bcc


@<TRIPOS>ATOM
      1 CAE        -0.0030   -0.0690    0.0390 ca        1 2QC     -0.109500
      2 CAF         1.3870   -0.0620    0.0530 ca        1 2QC     -0.094000
      3 CAK         2.0800    0.0340    1.2680 ca        1 2QC     -0.209300
      4 CAL         3.5660    0.0120    1.2760 c3        1 2QC      0.179100
      5 NAM         4.1190    1.3820    0.9970 nz        1 2QC     -0.845600
      6 CAJ         1.3680    0.1130    2.4700 ca        1 2QC     -0.094000
      7 CAI        -0.0230    0.1040    2.4580 ca        1 2QC     -0.109500
      8 CAD        -0.7240    0.0170    1.2430 ca        1 2QC     -0.035500
      9 CAC        -2.1740    0.0150    1.2400 cc        1 2QC      0.270800
     10 NAB        -2.9210    0.4130    0.0940 nc        1 2QC     -0.264000
     11 NAA        -4.1460    0.3520    0.2710 nd        1 2QC     -0.127100
     12 SAG        -4.5900   -0.1900    1.8090 ss        1 2QC      0.234200
     13 CAH        -3.0110   -0.3560    2.3020 cd        1 2QC     -0.208400
     14 H1         -0.5360   -0.1460   -0.9240 ha        1 2QC      0.168500
     15 H2          1.9390   -0.1520   -0.8950 ha        1 2QC      0.140500
     16 H3          3.9650   -0.6790    0.4770 hx        1 2QC      0.112700
     17 H4          3.9660   -0.3160    2.2790 hx        1 2QC      0.112700
     18 H5          5.1420    1.3580    0.9770 hn        1 2QC      0.457467
     19 H6          3.7690    1.7170    0.0930 hn        1 2QC      0.457467
     20 H8          1.9020    0.1690    3.4320 ha        1 2QC      0.140500
     21 H9         -0.5760    0.1700    3.4080 ha        1 2QC      0.168500
     22 H11        -2.6730   -0.7060    3.2760 h4        1 2QC      0.199000
     23 HAM3        3.8100    2.0370    1.7220 hn        1 2QC      0.457467
@<TRIPOS>BOND
     1    1    2 ar  
     2    1    8 ar  
     3    1   14 1   
     4    2    3 ar  
     5    2   15 1   
     6    3    4 1   
     7    3    6 ar  
     8    4    5 1   
     9    4   16 1   
    10    4   17 1   
    11    5   18 1   
    12    5   19 1   
    13    5   23 1   
    14    6    7 ar  
    15    6   20 1   
    16    7    8 ar  
    17    7   21 1   
    18    8    9 1   
    19    9   10 1   
    20    9   13 2   
    21   10   11 2   
    22   11   12 1   
    23   12   13 1   
    24   13   22 1   
@<TRIPOS>SUBSTRUCTURE
     1 2QC         1 TEMP              0 ****  ****    0 ROOT
