@<TRIPOS>MOLECULE
2QC
   23    24     1     0     0
SMALL
bcc


@<TRIPOS>ATOM
      1 CAE        -0.0030   -0.0180    0.0280 ca        1 2QC     -0.109500
      2 CAF         1.3880   -0.0160    0.0440 ca        1 2QC     -0.094000
      3 CAK         2.0800    0.0310    1.2610 ca        1 2QC     -0.209300
      4 CAL         3.5650    0.0060    1.2700 c3        1 2QC      0.179100
      5 NAM         4.1220    1.3840    1.0430 n4        1 2QC     -0.845600
      6 CAJ         1.3670    0.0650    2.4650 ca        1 2QC     -0.094000
      7 CAI        -0.0240    0.0600    2.4520 ca        1 2QC     -0.109500
      8 CAD        -0.7250    0.0220    1.2340 ca        1 2QC     -0.035500
      9 CAC        -2.1750    0.0240    1.2300 cc        1 2QC      0.270800
     10 NAB        -2.9190    0.4680    0.1010 nc        1 2QC     -0.264000
     11 NAA        -4.1450    0.4020    0.2740 nd        1 2QC     -0.127100
     12 SAG        -4.5920   -0.1980    1.7890 ss        1 2QC      0.234200
     13 CAH        -3.0130   -0.3870    2.2760 cd        1 2QC     -0.208400
     14 H1         -0.5350   -0.0580   -0.9380 ha        1 2QC      0.168500
     15 H2          1.9400   -0.0700   -0.9080 ha        1 2QC      0.140500
     16 H3          3.9630   -0.6550    0.4450 hx        1 2QC      0.112700
     17 H4          3.9640   -0.3620    2.2600 hx        1 2QC      0.112700
     18 H5          5.1450    1.3580    1.0230 hn        1 2QC      0.457467
     19 H6          3.7740    1.7540    0.1530 hn        1 2QC      0.457467
     20 H8          1.9000    0.0820    3.4290 ha        1 2QC      0.140500
     21 H9         -0.5780    0.0900    3.4040 ha        1 2QC      0.168500
     22 H11        -2.6770   -0.7750    3.2360 h4        1 2QC      0.199000
     23 HAM3        3.8140    2.0110    1.7930 hn        1 2QC      0.457467
@<TRIPOS>BOND
     1    1    2 ar  
     2    1    8 ar  
     3    1   14 1   
     4    2    3 ar  
     5    2   15 1   
     6    3    4 1   
     7    3    6 ar  
     8    4    5 1   
     9    4   16 1   
    10    4   17 1   
    11    5   18 1   
    12    5   19 1   
    13    5   23 1   
    14    6    7 ar  
    15    6   20 1   
    16    7    8 ar  
    17    7   21 1   
    18    8    9 1   
    19    9   10 1   
    20    9   13 2   
    21   10   11 2   
    22   11   12 1   
    23   12   13 1   
    24   13   22 1   
@<TRIPOS>SUBSTRUCTURE
     1 2QC         1 TEMP              0 ****  ****    0 ROOT
