@<TRIPOS>MOLECULE
2QE
   30    29     1     0     0
SMALL
bcc


@<TRIPOS>ATOM
      1 O          -0.4480   -0.2650   -1.6550 o         1 2QE     -0.802300
      2 C           0.3160    0.6180   -1.1760 c         1 2QE      0.919600
      3 OXT        -0.0020    1.7480   -0.7490 o         1 2QE     -0.802300
      4 CA          1.8370    0.2060   -1.0360 c3        1 2QE     -0.024500
      5 N           2.0950   -1.0350   -1.8210 n4        1 2QE     -0.828600
      6 CB          2.8160    1.3260   -1.3700 c3        1 2QE     -0.070400
      7 CG          3.2310    1.4340   -2.8270 c3        1 2QE     -0.192700
      8 CD2         4.1280    0.2630   -3.2870 c         1 2QE      0.883600
      9 OAG         4.2370    0.0450   -4.5240 o         1 2QE     -0.841300
     10 OAD         4.6800   -0.4860   -2.4150 o         1 2QE     -0.841300
     11 CD1         3.9660    2.7500   -3.0410 c3        1 2QE     -0.046400
     12 CAH         4.1040    3.0520   -4.5180 c3        1 2QE     -0.141400
     13 CAN         4.9670    4.2440   -4.7600 c         1 2QE      0.639100
     14 OAE         5.8550    4.7520   -4.0700 o         1 2QE     -0.562000
     15 OAK         4.7070    4.8450   -5.9730 os        1 2QE     -0.452900
     16 CAA         5.5080    5.9690   -6.3170 c3        1 2QE      0.129700
     17 H2          1.9760   -0.0670    0.0510 hx        1 2QE      0.061700
     18 H3          3.0720   -1.3490   -1.6810 hn        1 2QE      0.453467
     19 H4          1.9730   -0.8140   -2.8150 hn        1 2QE      0.453467
     20 H6          3.7480    1.1840   -0.7580 hc        1 2QE      0.067700
     21 H7          2.3130    2.2780   -1.0450 hc        1 2QE      0.067700
     22 H8          2.3100    1.4300   -3.4750 hc        1 2QE      0.053700
     23 H10         3.4080    3.5840   -2.5400 hc        1 2QE      0.046700
     24 H11         4.9830    2.6930   -2.5700 hc        1 2QE      0.046700
     25 H12         4.5680    2.1630   -5.0420 hc        1 2QE      0.105700
     26 H13         3.0970    3.2220   -4.9820 hc        1 2QE      0.105700
     27 H14         5.3680    6.7850   -5.5680 h1        1 2QE      0.038700
     28 H15         5.1310    6.2720   -7.3240 h1        1 2QE      0.038700
     29 H16         6.5850    5.6760   -6.3590 h1        1 2QE      0.038700
     30 HN3         1.3990   -1.7330   -1.5600 hn        1 2QE      0.453467
@<TRIPOS>BOND
     1    1    2 1   
     2    2    3 1   
     3    2    4 1   
     4    4    5 1   
     5    4    6 1   
     6    4   17 1   
     7    5   18 1   
     8    5   19 1   
     9    5   30 1   
    10    6    7 1   
    11    6   20 1   
    12    6   21 1   
    13    7    8 1   
    14    7   11 1   
    15    7   22 1   
    16    8    9 1   
    17    8   10 1   
    18   11   12 1   
    19   11   23 1   
    20   11   24 1   
    21   12   13 1   
    22   12   25 1   
    23   12   26 1   
    24   13   14 2   
    25   13   15 1   
    26   15   16 1   
    27   16   27 1   
    28   16   28 1   
    29   16   29 1   
@<TRIPOS>SUBSTRUCTURE
     1 2QE         1 TEMP              0 ****  ****    0 ROOT
