@<TRIPOS>MOLECULE
2QE
   30    29     1     0     0
SMALL
bcc


@<TRIPOS>ATOM
      1 O          -0.4440   -0.3200   -1.7320 o         1 2QE     -0.802300
      2 C           0.2820    0.5930   -1.2480 c         1 2QE      0.919600
      3 OXT        -0.0770    1.7250   -0.8610 o         1 2QE     -0.802300
      4 CA          1.8060    0.2210   -1.0460 c3        1 2QE     -0.024500
      5 N           2.1200   -1.0320   -1.7910 nz        1 2QE     -0.828600
      6 CB          2.7700    1.3550   -1.3740 c3        1 2QE     -0.070400
      7 CG          3.2330    1.4380   -2.8180 c3        1 2QE     -0.192700
      8 CD2         4.1730    0.2780   -3.2170 c         1 2QE      0.883600
      9 OAG         4.3310    0.0340   -4.4440 o         1 2QE     -0.841300
     10 OAD         4.7110   -0.4360   -2.3090 o         1 2QE     -0.841300
     11 CD1         3.9450    2.7660   -3.0390 c3        1 2QE     -0.046400
     12 CAH         4.1270    3.0360   -4.5180 c3        1 2QE     -0.141400
     13 CAN         4.9690    4.2420   -4.7600 c         1 2QE      0.639100
     14 OAE         5.8210    4.7880   -4.0530 o         1 2QE     -0.562000
     15 OAK         4.7370    4.8080   -5.9950 os        1 2QE     -0.452900
     16 CAA         5.5230    5.9420   -6.3400 c3        1 2QE      0.129700
     17 H2          1.9130   -0.0220    0.0510 hx        1 2QE      0.061700
     18 H3          2.0280   -0.8380   -2.7930 hn        1 2QE      0.453467
     19 H4          1.4320   -1.7400   -1.5360 hn        1 2QE      0.453467
     20 H6          2.2340    2.3030   -1.0910 hc        1 2QE      0.067700
     21 H7          3.6830    1.2510   -0.7280 hc        1 2QE      0.067700
     22 H8          2.3360    1.3970   -3.4970 hc        1 2QE      0.053700
     23 H10         3.3490    3.5980   -2.5790 hc        1 2QE      0.046700
     24 H11         4.9450    2.7450   -2.5330 hc        1 2QE      0.046700
     25 H12         4.6300    2.1460   -5.0030 hc        1 2QE      0.105700
     26 H13         3.1330    3.1700   -5.0210 hc        1 2QE      0.105700
     27 H14         5.1730    6.2130   -7.3670 h1        1 2QE      0.038700
     28 H15         6.6070    5.6750   -6.3380 h1        1 2QE      0.038700
     29 H16         5.3380    6.7720   -5.6160 h1        1 2QE      0.038700
     30 HN3         3.0990   -1.3190   -1.6090 hn        1 2QE      0.453467
@<TRIPOS>BOND
     1    1    2 1   
     2    2    3 1   
     3    2    4 1   
     4    4    5 1   
     5    4    6 1   
     6    4   17 1   
     7    5   18 1   
     8    5   19 1   
     9    5   30 1   
    10    6    7 1   
    11    6   20 1   
    12    6   21 1   
    13    7    8 1   
    14    7   11 1   
    15    7   22 1   
    16    8    9 1   
    17    8   10 1   
    18   11   12 1   
    19   11   23 1   
    20   11   24 1   
    21   12   13 1   
    22   12   25 1   
    23   12   26 1   
    24   13   14 2   
    25   13   15 1   
    26   15   16 1   
    27   16   27 1   
    28   16   28 1   
    29   16   29 1   
@<TRIPOS>SUBSTRUCTURE
     1 2QE         1 TEMP              0 ****  ****    0 ROOT
