@<TRIPOS>MOLECULE
2QE
   30    29     1     0     0
SMALL
bcc


@<TRIPOS>ATOM
      1 O          -0.5390   -0.2300   -1.3270 o         1 2QE     -0.798300
      2 C           0.3090    0.6400   -0.9810 c         1 2QE      0.920600
      3 OXT         0.0830    1.7830   -0.5340 o         1 2QE     -0.798300
      4 CA          1.8250    0.1800   -1.0590 c3        1 2QE     -0.032500
      5 N           1.9300   -0.9960   -1.9650 n4        1 2QE     -0.825600
      6 CB          2.7940    1.3100   -1.3900 c3        1 2QE     -0.074400
      7 CG          3.2510    1.4290   -2.8360 c3        1 2QE     -0.192700
      8 CD2         4.2710    0.3190   -3.1860 c         1 2QE      0.890600
      9 OAG         3.8200   -0.7310   -3.7540 o         1 2QE     -0.843300
     10 OAD         5.4850    0.4680   -2.8980 o         1 2QE     -0.843300
     11 CD1         3.8710    2.8020   -3.0450 c3        1 2QE     -0.049400
     12 CAH         4.3520    2.9570   -4.4730 c3        1 2QE     -0.129400
     13 CAN         4.8980    4.3220   -4.7280 c         1 2QE      0.639100
     14 OAE         5.2770    5.2000   -3.9500 o         1 2QE     -0.557000
     15 OAK         4.9840    4.6080   -6.0740 os        1 2QE     -0.454900
     16 CAA         5.5250    5.8750   -6.4280 c3        1 2QE      0.129700
     17 H2          2.0640   -0.1920   -0.0190 hx        1 2QE      0.059700
     18 H3          2.8010   -1.5070   -1.8130 hn        1 2QE      0.454133
     19 H4          1.0990   -1.5800   -1.8190 hn        1 2QE      0.454133
     20 H6          2.2740    2.2600   -1.0810 hc        1 2QE      0.068700
     21 H7          3.7110    1.1970   -0.7510 hc        1 2QE      0.068700
     22 H8          2.3680    1.3310   -3.5250 hc        1 2QE      0.043700
     23 H10         3.1220    3.6010   -2.8050 hc        1 2QE      0.052700
     24 H11         4.7440    2.9220   -2.3500 hc        1 2QE      0.052700
     25 H12         3.5220    2.7530   -5.1990 hc        1 2QE      0.095200
     26 H13         5.1720    2.2070   -4.6680 hc        1 2QE      0.095200
     27 H14         6.5680    5.9690   -6.0410 h1        1 2QE      0.039033
     28 H15         5.5030    5.8770   -7.5450 h1        1 2QE      0.039033
     29 H16         4.8910    6.6940   -6.0080 h1        1 2QE      0.039033
     30 HN3         1.9560   -0.6790   -2.9520 hn        1 2QE      0.454133
@<TRIPOS>BOND
     1    1    2 1   
     2    2    3 1   
     3    2    4 1   
     4    4    5 1   
     5    4    6 1   
     6    4   17 1   
     7    5   18 1   
     8    5   19 1   
     9    5   30 1   
    10    6    7 1   
    11    6   20 1   
    12    6   21 1   
    13    7    8 1   
    14    7   11 1   
    15    7   22 1   
    16    8    9 1   
    17    8   10 1   
    18   11   12 1   
    19   11   23 1   
    20   11   24 1   
    21   12   13 1   
    22   12   25 1   
    23   12   26 1   
    24   13   14 2   
    25   13   15 1   
    26   15   16 1   
    27   16   27 1   
    28   16   28 1   
    29   16   29 1   
@<TRIPOS>SUBSTRUCTURE
     1 2QE         1 TEMP              0 ****  ****    0 ROOT
