@<TRIPOS>MOLECULE
2QF
   47    48     1     0     0
SMALL
bcc


@<TRIPOS>ATOM
      1 C4          2.9120    3.9720    0.8950 c2        1 2QF     -0.145000
      2 C5          3.3460   -0.7590   -1.1120 c2        1 2QF     -0.378000
      3 C6          3.5960   -0.2510    0.1700 c2        1 2QF      0.106000
      4 C7          2.9210    0.7430    0.7320 c1        1 2QF     -0.010000
      5 C10         4.0600   -1.8380   -1.6590 c2        1 2QF      0.324000
      6 N12         4.8500   -2.7030   -0.9840 n8        1 2QF     -0.340000
      7 C13         7.8780   -3.6560   -5.0410 c1        1 2QF     -0.122000
      8 C15         4.3720   -3.9850   -4.1880 c2        1 2QF     -0.139000
      9 C17         7.5390   -1.3950   -2.2210 c2        1 2QF     -0.913000
     10 C24         7.2960    1.8850   -1.4060 ca        1 2QF     -0.079500
     11 C26         8.9860    3.5380   -2.0140 ca        1 2QF     -0.134000
     12 C28         9.6230    1.2430   -1.4680 ca        1 2QF     -0.079500
     13 C1          0.2340    1.5850    3.0800 c3        1 2QF     -0.347000
     14 C2          1.8320    4.1940    1.8350 c1        1 2QF      0.172000
     15 C3          2.2750    2.8830    1.3960 c2        1 2QF     -0.225000
     16 N8          2.1400    1.4960    1.4500 n3        1 2QF      0.062000
     17 C9          1.1810    0.8510    2.2600 c1        1 2QF      0.117000
     18 O11         3.8140   -2.0200   -3.0110 os        1 2QF     -0.157000
     19 C14         7.0230   -2.9380   -4.6120 c1        1 2QF     -0.226000
     20 C16         4.7470   -2.7790   -3.7510 c2        1 2QF     -0.058000
     21 C18         6.4640   -1.1910   -2.9850 c2        1 2QF      0.022000
     22 C19         6.0080   -2.0390   -4.1310 c3        1 2QF      0.052000
     23 O21         6.6550   -0.6240   -0.0460 o         1 2QF     -0.950500
     24 O22         8.9580   -1.2790   -0.1550 o         1 2QF     -0.950500
     25 C23         8.2850    0.9090   -1.2510 ca        1 2QF     -0.777000
     26 C25         7.6430    3.1920   -1.7830 ca        1 2QF      0.109000
     27 C27         9.9730    2.5530   -1.8520 ca        1 2QF      0.109000
     28 F29        11.2710    2.8630   -2.0640 f         1 2QF     -0.083000
     29 F30         6.6730    4.1270   -1.9220 f         1 2QF     -0.083000
     30 H1          3.6820    4.3510    0.2460 ha        1 2QF      0.214000
     31 H2          2.5700   -0.3090   -1.7490 ha        1 2QF      0.183000
     32 H3          4.5080   -0.5750    0.7410 ha        1 2QF      0.232000
     33 H4          5.1350   -2.4810   -0.0540 hn        1 2QF      0.264000
     34 H5          5.3550   -3.4100   -1.4710 hn        1 2QF      0.264000
     35 H6          8.6370   -4.2940   -5.4270 ha        1 2QF      0.244000
     36 H7          3.4140   -4.4440   -3.9020 ha        1 2QF      0.159000
     37 H10        10.4200    0.4900   -1.3250 ha        1 2QF      0.170000
     38 H11        -0.7980    1.2500    2.7670 hc        1 2QF      0.161000
     39 H12         0.3710    1.2260    4.1410 hc        1 2QF      0.161000
     40 H13         0.2730    2.7040    3.0670 hc        1 2QF      0.161000
     41 H14         5.0040   -4.5630   -4.8790 ha        1 2QF      0.159000
     42 H15         8.2480   -2.2000   -2.5150 h4        1 2QF      0.207000
     43 H16         5.7730   -0.3490   -2.7670 ha        1 2QF      0.138000
     44 H8          6.2390    1.6370   -1.2180 ha        1 2QF      0.170000
     45 H122        5.7300   -1.3350   -4.9840 hc        1 2QF      0.159000
     46 S20         7.8800   -0.6430   -0.7710 s6        1 2QF      2.893000
     47 H9          9.2580    4.5630   -2.3130 ha        1 2QF      0.186000
@<TRIPOS>BOND
     1    1   14 1   
     2    1   15 1   
     3    1   30 1   
     4    2    3 1   
     5    2    5 1   
     6    2   31 1   
     7    3    4 1   
     8    3   32 1   
     9    4   16 1   
    10    5    6 1   
    11    5   18 1   
    12    6   33 1   
    13    6   34 1   
    14    7   19 1   
    15    7   35 1   
    16    8   20 1   
    17    8   36 1   
    18    8   41 1   
    19    9   21 1   
    20    9   42 1   
    21    9   46 1   
    22   10   25 1   
    23   10   26 1   
    24   10   44 1   
    25   11   26 1   
    26   11   27 1   
    27   11   47 1   
    28   12   25 1   
    29   12   27 1   
    30   12   37 1   
    31   13   17 1   
    32   13   38 1   
    33   13   39 1   
    34   13   40 1   
    35   14   15 1   
    36   15   16 1   
    37   16   17 1   
    38   18   20 1   
    39   19   22 1   
    40   20   22 1   
    41   21   22 1   
    42   21   43 1   
    43   22   45 1   
    44   23   46 1   
    45   24   46 1   
    46   25   46 1   
    47   26   29 1   
    48   27   28 1   
@<TRIPOS>SUBSTRUCTURE
     1 2QF         1 TEMP              0 ****  ****    0 ROOT
