@<TRIPOS>MOLECULE
2QF
   47    46     1     0     0
SMALL
bcc


@<TRIPOS>ATOM
      1 C4          2.8620    0.6710   -1.3460 c2        1 2QF      0.315000
      2 C5          2.4250   -0.5300    1.3330 c3        1 2QF     -0.145000
      3 C6          2.5790   -1.0860    2.6990 c2        1 2QF     -0.287000
      4 C7          1.8700   -2.0560    3.2510 c1        1 2QF     -0.212000
      5 C10         3.7040   -0.5880    0.5500 c2        1 2QF      0.300000
      6 N12         4.7730   -1.2770    0.8930 n3        1 2QF     -0.207000
      7 C13         8.0280    4.1660   -5.7400 c1        1 2QF     -0.163500
      8 C15         4.3090    2.3310   -4.3360 c1        1 2QF     -0.163500
      9 C17         7.2080    1.3670   -2.4220 c2        1 2QF     -0.961000
     10 C24        10.4050   -0.1060   -2.3190 ca        1 2QF     -0.079000
     11 C26        10.8320   -1.9040   -3.9160 ca        1 2QF     -0.136000
     12 C28         8.5800   -1.4980   -3.0670 ca        1 2QF     -0.079000
     13 C1         -1.6410   -2.1950    2.7790 c2        1 2QF     -0.087000
     14 C2          0.2970    0.4170   -1.0610 c1        1 2QF      0.333000
     15 C3          1.5730    0.5090   -1.1430 c1        1 2QF     -0.682000
     16 N8          0.8330   -2.8770    2.9160 n3        1 2QF      0.099000
     17 C9         -0.3970   -2.5600    2.7110 c1        1 2QF     -0.196000
     18 O11         3.8960    0.1320   -0.6080 os        1 2QF     -0.181000
     19 C14         7.3800    3.8450   -4.7880 c1        1 2QF     -0.185500
     20 C16         5.3470    2.8370   -4.0230 c1        1 2QF     -0.185500
     21 C18         7.4080    2.6620   -2.6890 c2        1 2QF      0.082000
     22 C19         6.5820    3.4810   -3.6410 c3        1 2QF      0.130000
     23 O21         8.7060    1.2280   -0.4020 o         1 2QF     -0.972000
     24 O22         7.0480   -0.4440   -0.7380 o         1 2QF     -0.972000
     25 C23         9.0480   -0.4350   -2.2920 ca        1 2QF     -0.776000
     26 C25        11.2940   -0.8370   -3.1290 ca        1 2QF      0.109500
     27 C27         9.4660   -2.2310   -3.8760 ca        1 2QF      0.109500
     28 F29         8.9990   -3.2580   -4.6210 f         1 2QF     -0.081000
     29 F30        12.6060   -0.5080   -3.1490 f         1 2QF     -0.081000
     30 H1          1.6380   -1.0820    0.7420 hc        1 2QF      0.156500
     31 H2          2.1050    0.5510    1.3850 hc        1 2QF      0.156500
     32 H3          3.3210   -0.5840    3.3450 ha        1 2QF      0.164000
     33 H4          4.7740   -1.7820    1.7620 hn        1 2QF      0.313500
     34 H5          5.6250   -1.2590    0.3440 hn        1 2QF      0.313500
     35 H6          8.6050    4.4560   -6.5840 ha        1 2QF      0.235500
     36 H7          3.3570    1.2490   -2.1680 h4        1 2QF      0.218000
     37 H10         7.5140   -1.7800   -3.0440 ha        1 2QF      0.170500
     38 H11         1.0490   -3.8630    3.0160 hn        1 2QF      0.273000
     39 H12        -2.1380   -1.9660    3.7380 ha        1 2QF      0.170500
     40 H13        -2.2620   -2.1050    1.8730 ha        1 2QF      0.170500
     41 H14         3.3910    1.9060   -4.6590 ha        1 2QF      0.235500
     42 H15         6.4050    0.8470   -2.9850 h4        1 2QF      0.183000
     43 H16         8.2190    3.2330   -2.1920 ha        1 2QF      0.161000
     44 H8         10.7940    0.7210   -1.6960 ha        1 2QF      0.170500
     45 H122        6.3070    4.4440   -3.0910 hc        1 2QF      0.149000
     46 S20         8.0020    0.4350   -1.3140 s6        1 2QF      2.928000
     47 H9         11.5280   -2.4770   -4.5500 ha        1 2QF      0.184000
@<TRIPOS>BOND
     1    1   15 1   
     2    1   18 1   
     3    1   36 1   
     4    2    3 1   
     5    2    5 1   
     6    2   30 1   
     7    2   31 1   
     8    3    4 1   
     9    3   32 1   
    10    4   16 1   
    11    5    6 1   
    12    5   18 1   
    13    6   33 1   
    14    6   34 1   
    15    7   19 1   
    16    7   35 1   
    17    8   20 1   
    18    8   41 1   
    19    9   21 1   
    20    9   42 1   
    21    9   46 1   
    22   10   25 1   
    23   10   26 1   
    24   10   44 1   
    25   11   26 1   
    26   11   27 1   
    27   11   47 1   
    28   12   25 1   
    29   12   27 1   
    30   12   37 1   
    31   13   17 1   
    32   13   39 1   
    33   13   40 1   
    34   14   15 1   
    35   16   17 1   
    36   16   38 1   
    37   19   22 1   
    38   20   22 1   
    39   21   22 1   
    40   21   43 1   
    41   22   45 1   
    42   23   46 1   
    43   24   46 1   
    44   25   46 1   
    45   26   29 1   
    46   27   28 1   
@<TRIPOS>SUBSTRUCTURE
     1 2QF         1 TEMP              0 ****  ****    0 ROOT
