@<TRIPOS>MOLECULE
2QF
   47    46     1     0     0
SMALL
bcc


@<TRIPOS>ATOM
      1 C4          1.1210   -1.5400    0.5490 c1        1 2QF     -0.063000
      2 C5          1.3220   -0.1750    0.1060 c3        1 2QF     -0.050000
      3 C6          1.5520    0.8480    1.2200 c3        1 2QF     -0.204000
      4 C7          0.2000    1.3430    1.6330 c1        1 2QF     -0.092000
      5 C10         2.4900   -0.1590   -0.8940 c2        1 2QF      0.273000
      6 N12         3.1540   -1.2360   -1.2470 n3        1 2QF     -0.281000
      7 C13         3.6750    1.3470   -2.4050 c3        1 2QF      0.082000
      8 C15         6.1330   -2.9630   -3.2340 c2        1 2QF     -0.444000
      9 C17         8.2640   -0.1390   -2.3030 c2        1 2QF     -0.876000
     10 C24        11.5680    0.7730   -2.4980 ca        1 2QF     -0.076000
     11 C26        12.6350    1.0240   -4.6810 ca        1 2QF     -0.135000
     12 C28        10.8870   -0.6450   -4.3330 ca        1 2QF     -0.076000
     13 C1         -2.2640    2.8420    3.5010 c1        1 2QF     -0.127000
     14 C2         -0.4350   -2.6670    2.2260 c1        1 2QF     -0.026000
     15 C3          0.2830   -2.0570    1.4530 c1        1 2QF     -0.178000
     16 N8          0.0220    1.9320    2.7990 n3        1 2QF     -0.063000
     17 C9         -1.1940    2.4170    3.1750 c1        1 2QF     -0.108000
     18 O11         2.7010    1.0910   -1.3700 os        1 2QF     -0.183000
     19 C14         5.0170    1.0730   -1.9930 c1        1 2QF     -0.207000
     20 C16         5.2050   -2.2220   -2.7370 c1        1 2QF      0.023000
     21 C18         7.4620    0.4210   -1.3870 c2        1 2QF      0.101000
     22 C19         6.1580    0.8460   -1.7020 c1        1 2QF     -0.059000
     23 O21        10.0150   -0.8700   -0.6500 o         1 2QF     -0.929500
     24 O22         9.3690   -2.3120   -2.4650 o         1 2QF     -0.929500
     25 C23        10.7560   -0.2480   -2.9990 ca        1 2QF     -0.786000
     26 C25        12.5020    1.4090   -3.3360 ca        1 2QF      0.108000
     27 C27        11.8200   -0.0110   -5.1710 ca        1 2QF      0.108000
     28 F29        11.9360   -0.3990   -6.4620 f         1 2QF     -0.081000
     29 F30        13.2790    2.3990   -2.8420 f         1 2QF     -0.081000
     30 H1          0.3990    0.1540   -0.4820 hc        1 2QF      0.214000
     31 H2          2.1300    1.7270    0.8170 hc        1 2QF      0.115000
     32 H3          2.1600    0.3860    2.0420 hc        1 2QF      0.115000
     33 H4          2.8660   -2.1020   -0.8090 hn        1 2QF      0.314000
     34 H5          3.9580   -1.3130   -1.9230 hn        1 2QF      0.314000
     35 H6          3.5130    2.4530   -2.5910 h1        1 2QF      0.154000
     36 H7          5.9830   -3.7510   -3.9990 ha        1 2QF      0.249500
     37 H10        10.2760   -1.4730   -4.7320 ha        1 2QF      0.175000
     38 H11         0.7410    2.0800    3.4900 hn        1 2QF      0.195000
     39 H12        -3.2070    3.2260    3.8030 ha        1 2QF      0.253000
     40 H13        -1.0590   -3.2090    2.8980 ha        1 2QF      0.251000
     41 H14         7.2130   -2.9070   -2.9470 ha        1 2QF      0.249500
     42 H15         7.9420   -0.1350   -3.3620 h4        1 2QF      0.179000
     43 H16         7.7640    0.5090   -0.3210 ha        1 2QF      0.182000
     44 H8         11.4960    1.0760   -1.4380 ha        1 2QF      0.175000
     45 H122        3.4020    0.7550   -3.3230 h1        1 2QF      0.154000
     46 S20         9.6670   -1.0180   -1.9950 s6        1 2QF      2.890000
     47 H9         13.3690    1.5200   -5.3360 ha        1 2QF      0.183000
@<TRIPOS>BOND
     1    1    2 1   
     2    1   15 1   
     3    2    3 1   
     4    2    5 1   
     5    2   30 1   
     6    3    4 1   
     7    3   31 1   
     8    3   32 1   
     9    4   16 1   
    10    5    6 1   
    11    5   18 1   
    12    6   33 1   
    13    6   34 1   
    14    7   18 1   
    15    7   19 1   
    16    7   35 1   
    17    7   45 1   
    18    8   20 1   
    19    8   36 1   
    20    8   41 1   
    21    9   21 1   
    22    9   42 1   
    23    9   46 1   
    24   10   25 1   
    25   10   26 1   
    26   10   44 1   
    27   11   26 1   
    28   11   27 1   
    29   11   47 1   
    30   12   25 1   
    31   12   27 1   
    32   12   37 1   
    33   13   17 1   
    34   13   39 1   
    35   14   15 1   
    36   14   40 1   
    37   16   17 1   
    38   16   38 1   
    39   19   22 1   
    40   21   22 1   
    41   21   43 1   
    42   23   46 1   
    43   24   46 1   
    44   25   46 1   
    45   26   29 1   
    46   27   28 1   
@<TRIPOS>SUBSTRUCTURE
     1 2QF         1 TEMP              0 ****  ****    0 ROOT
