@<TRIPOS>MOLECULE
2QG
   49    50     1     0     0
SMALL
bcc


@<TRIPOS>ATOM
      1 C1         -0.0680    0.6360    0.0200 ca        1 2QG     -0.170500
      2 C2          1.3160    0.6180   -0.0870 ca        1 2QG     -0.089500
      3 C3          2.0980    0.2470    1.0160 ca        1 2QG     -0.012600
      4 C4          1.4960   -0.1070    2.2250 ca        1 2QG     -0.089500
      5 C5          0.1060   -0.0910    2.3430 ca        1 2QG     -0.170500
      6 C6         -0.6710    0.2800    1.2410 ca        1 2QG      0.118100
      7 C8         -2.6990   -0.0510    2.4510 c3        1 2QG      0.131400
      8 C9         -4.1890    0.0630    2.1710 c3        1 2QG     -0.088400
      9 C10        -4.9840   -0.2140    3.4270 c3        1 2QG     -0.077400
     10 C11        -6.4700   -0.1350    3.1450 c3        1 2QG     -0.084400
     11 C12        -7.2730   -0.3590    4.4110 c3        1 2QG     -0.086400
     12 C13        -8.7670   -0.3070    4.0820 c3        1 2QG      0.093800
     13 C15       -10.0290    0.2300    6.1110 c2        1 2QG      0.757100
     14 C17       -10.2310    2.6730    5.8060 c1        1 2QG      0.208600
     15 C20       -10.7330   -0.0910    8.4190 ca        1 2QG      0.127600
     16 C21        -9.4040   -0.1950    8.8790 ca        1 2QG     -0.291300
     17 O7         -2.0540    0.3390    1.2350 os        1 2QG     -0.329900
     18 N14        -9.6510   -0.5510    5.1790 n2        1 2QG     -0.529900
     19 N16        -9.3760    1.6840    6.3100 ny        1 2QG     -0.618600
     20 N18       -10.9570    3.4810    5.3890 n1        1 2QG     -0.145800
     21 N19       -11.0580    0.0530    7.0460 nu        1 2QG     -0.693600
     22 C22        -9.1830   -0.2760   10.2650 ca        1 2QG      0.444700
     23 N23       -10.1690   -0.2640   11.1810 nb        1 2QG     -0.638000
     24 C24       -11.4340   -0.1820   10.7290 ca        1 2QG      0.444700
     25 C25       -11.7770   -0.0920    9.3670 ca        1 2QG     -0.291300
     26 Cl1         3.7900    0.2270    0.8780 cl        1 2QG     -0.081400
     27 H1         -0.6990    0.9230   -0.8340 ha        1 2QG      0.145500
     28 H2          1.7970    0.8950   -1.0380 ha        1 2QG      0.153000
     29 H3          2.1130   -0.3990    3.0890 ha        1 2QG      0.153000
     30 H4         -0.3550   -0.3720    3.3000 ha        1 2QG      0.145500
     31 H5         -2.4170   -1.1040    2.7120 h1        1 2QG      0.041200
     32 H6         -2.3890    0.6390    3.2790 h1        1 2QG      0.041200
     33 H7         -4.4700   -0.6630    1.3630 hc        1 2QG      0.063700
     34 H8         -4.4150    1.0920    1.7850 hc        1 2QG      0.063700
     35 H9         -4.7280   -1.2340    3.8210 hc        1 2QG      0.045700
     36 H10        -4.7080    0.5290    4.2210 hc        1 2QG      0.045700
     37 H11        -6.7470   -0.9090    2.3810 hc        1 2QG      0.058200
     38 H12        -6.7180    0.8680    2.7080 hc        1 2QG      0.058200
     39 H13        -7.0060    0.4230    5.1690 hc        1 2QG      0.048700
     40 H14        -7.0110   -1.3570    4.8510 hc        1 2QG      0.048700
     41 H15        -8.9980   -1.1410    3.3470 h1        1 2QG      0.096700
     42 H16        -9.0060    0.6700    3.5680 h1        1 2QG      0.096700
     43 H17        -8.5500   -0.2750    8.1930 ha        1 2QG      0.152000
     44 H18        -8.4730    1.7330    5.8170 hn        1 2QG      0.480800
     45 H19       -11.8490   -0.4730    6.7190 hn        1 2QG      0.487800
     46 H20        -8.1550   -0.3640   10.6660 h4        1 2QG      0.051600
     47 H21       -12.2260   -0.1880   11.5050 h4        1 2QG      0.051600
     48 H22       -12.8340   -0.0290    9.0710 ha        1 2QG      0.152000
     49 H162       -9.2260    1.8510    7.3200 hn        1 2QG      0.480800
@<TRIPOS>BOND
     1    1    2 ar  
     2    1    6 ar  
     3    1   27 1   
     4    2    3 ar  
     5    2   28 1   
     6    3    4 ar  
     7    3   26 1   
     8    4    5 ar  
     9    4   29 1   
    10    5    6 ar  
    11    5   30 1   
    12    6   17 1   
    13    7    8 1   
    14    7   17 1   
    15    7   31 1   
    16    7   32 1   
    17    8    9 1   
    18    8   33 1   
    19    8   34 1   
    20    9   10 1   
    21    9   35 1   
    22    9   36 1   
    23   10   11 1   
    24   10   37 1   
    25   10   38 1   
    26   11   12 1   
    27   11   39 1   
    28   11   40 1   
    29   12   18 1   
    30   12   41 1   
    31   12   42 1   
    32   13   18 2   
    33   13   19 1   
    34   13   21 1   
    35   14   19 1   
    36   14   20 3   
    37   15   16 ar  
    38   15   21 1   
    39   15   25 ar  
    40   16   22 ar  
    41   16   43 1   
    42   19   44 1   
    43   19   49 1   
    44   21   45 1   
    45   22   23 ar  
    46   22   46 1   
    47   23   24 ar  
    48   24   25 ar  
    49   24   47 1   
    50   25   48 1   
@<TRIPOS>SUBSTRUCTURE
     1 2QG         1 TEMP              0 ****  ****    0 ROOT
