@<TRIPOS>MOLECULE
2QG
   50    51     1     0     0
SMALL
bcc


@<TRIPOS>ATOM
      1 C1          0.0860   -0.5840   -0.2790 ca        1 2QG     -0.168000
      2 C2          1.2700   -0.1590   -0.8660 ca        1 2QG     -0.088500
      3 C3          1.9080    0.9990   -0.4000 ca        1 2QG     -0.007600
      4 C4          1.3600    1.7330    0.6540 ca        1 2QG     -0.088500
      5 C5          0.1700    1.3160    1.2520 ca        1 2QG     -0.168000
      6 C6         -0.4610    0.1600    0.7830 ca        1 2QG      0.109100
      7 C8         -2.1920    0.3410    2.4130 c3        1 2QG      0.133400
      8 C9         -3.4300   -0.4510    2.8060 c3        1 2QG     -0.089400
      9 C10        -4.1680    0.2440    3.9290 c3        1 2QG     -0.077400
     10 C11        -5.3930   -0.5570    4.3260 c3        1 2QG     -0.086400
     11 C12        -6.1610    0.1620    5.4180 c3        1 2QG     -0.067400
     12 C13        -7.3960   -0.6880    5.7820 c3        1 2QG      0.083800
     13 C15        -9.3350    0.2880    6.9540 c2        1 2QG      0.552100
     14 C17       -10.3700    1.6370    5.2330 c1        1 2QG      0.149600
     15 C20       -11.1360    0.2140    8.6530 ca        1 2QG     -0.072400
     16 C21       -11.1770   -1.0140    9.3300 ca        1 2QG     -0.242800
     17 O7         -1.6490   -0.3490    1.2860 os        1 2QG     -0.331900
     18 N14        -8.1410   -0.1550    6.8720 n2        1 2QG     -0.425900
     19 N16       -10.3740    0.3650    5.8370 n4        1 2QG     -0.549600
     20 N18       -10.3720    2.6790    4.7120 n1        1 2QG     -0.038800
     21 N19        -9.8430    0.8010    8.2720 n4        1 2QG     -0.588400
     22 C22       -12.4480   -1.4820    9.7450 ca        1 2QG      0.463200
     23 N23       -13.5930   -0.8180    9.5220 nb        1 2QG     -0.565000
     24 C24       -13.5290    0.3630    8.8740 ca        1 2QG      0.463200
     25 C25       -12.3250    0.9320    8.4100 ca        1 2QG     -0.242800
     26 CL1         3.3540    1.5110   -1.1230 cl        1 2QG     -0.070400
     27 H1         -0.4280   -1.4900   -0.6300 ha        1 2QG      0.144000
     28 H2          1.7070   -0.7350   -1.6980 ha        1 2QG      0.156000
     29 H3          1.8630    2.6420    1.0190 ha        1 2QG      0.156000
     30 H4         -0.2490    1.9040    2.0790 ha        1 2QG      0.144000
     31 H5         -2.4590    1.3910    2.1210 h1        1 2QG      0.042700
     32 H6         -1.4430    0.3610    3.2490 h1        1 2QG      0.042700
     33 H7         -4.0950   -0.5600    1.9090 hc        1 2QG      0.064700
     34 H8         -3.1230   -1.4830    3.1200 hc        1 2QG      0.064700
     35 H9         -4.4750    1.2720    3.6010 hc        1 2QG      0.053700
     36 H10        -3.4880    0.3620    4.8140 hc        1 2QG      0.053700
     37 H11        -6.0490   -0.7070    3.4280 hc        1 2QG      0.059700
     38 H12        -5.0730   -1.5710    4.6850 hc        1 2QG      0.059700
     39 H13        -6.4840    1.1730    5.0590 hc        1 2QG      0.077700
     40 H14        -5.5050    0.3000    6.3180 hc        1 2QG      0.077700
     41 H15        -8.0060   -0.8640    4.8500 h1        1 2QG      0.111200
     42 H16        -7.0180   -1.6940    6.1650 h1        1 2QG      0.111200
     43 H17       -10.2790   -1.6070    9.5680 ha        1 2QG      0.182500
     44 H18       -10.1460   -0.3470    5.1110 hn        1 2QG      0.514300
     45 H19        -9.1410    0.5660    9.0070 hn        1 2QG      0.508300
     46 H20       -12.5380   -2.4450   10.2980 h4        1 2QG      0.093600
     47 H21       -14.4970    0.8910    8.7270 h4        1 2QG      0.093600
     48 H22       -12.3460    1.9260    7.9390 ha        1 2QG      0.182500
     49 H162      -11.3310    0.1640    6.1990 hn        1 2QG      0.514300
     50 H192       -9.9230    1.8310    8.2200 hn        1 2QG      0.508300
@<TRIPOS>BOND
     1    1    2 ar  
     2    1    6 ar  
     3    1   27 1   
     4    2    3 ar  
     5    2   28 1   
     6    3    4 ar  
     7    3   26 1   
     8    4    5 ar  
     9    4   29 1   
    10    5    6 ar  
    11    5   30 1   
    12    6   17 1   
    13    7    8 1   
    14    7   17 1   
    15    7   31 1   
    16    7   32 1   
    17    8    9 1   
    18    8   33 1   
    19    8   34 1   
    20    9   10 1   
    21    9   35 1   
    22    9   36 1   
    23   10   11 1   
    24   10   37 1   
    25   10   38 1   
    26   11   12 1   
    27   11   39 1   
    28   11   40 1   
    29   12   18 1   
    30   12   41 1   
    31   12   42 1   
    32   13   18 2   
    33   13   19 1   
    34   13   21 1   
    35   14   19 1   
    36   14   20 3   
    37   15   16 ar  
    38   15   21 1   
    39   15   25 ar  
    40   16   22 ar  
    41   16   43 1   
    42   19   44 1   
    43   19   49 1   
    44   21   45 1   
    45   21   50 1   
    46   22   23 ar  
    47   22   46 1   
    48   23   24 ar  
    49   24   25 ar  
    50   24   47 1   
    51   25   48 1   
@<TRIPOS>SUBSTRUCTURE
     1 2QG         1 TEMP              0 ****  ****    0 ROOT
