@<TRIPOS>MOLECULE
2QG
   49    49     1     0     0
SMALL
bcc


@<TRIPOS>ATOM
      1 C1         -0.0120    0.6330    0.5580 ca        1 2QG     -0.170000
      2 C2          1.3690    0.7400    0.6500 ca        1 2QG     -0.089000
      3 C3          2.0100    0.5020    1.8730 ca        1 2QG     -0.011600
      4 C4          1.2710    0.1570    3.0060 ca        1 2QG     -0.089000
      5 C5         -0.1180    0.0470    2.9260 ca        1 2QG     -0.170000
      6 C6         -0.7540    0.2860    1.7040 ca        1 2QG      0.116100
      7 C8         -2.9010   -0.1730    2.6330 c3        1 2QG      0.131400
      8 C9         -4.3380   -0.2170    2.1360 c3        1 2QG     -0.088400
      9 C10        -5.2840   -0.5060    3.2810 c3        1 2QG     -0.085400
     10 C11        -6.7110   -0.5910    2.7830 c3        1 2QG     -0.087400
     11 C12        -7.6960   -0.8340    3.9110 c3        1 2QG     -0.208700
     12 C13        -7.8030    0.3520    4.8010 c2        1 2QG      0.502200
     13 C15        -8.1560    1.5490    6.7980 c1        1 2QG      0.073000
     14 C17       -11.6610    0.8840    4.0310 c1        1 2QG      0.398600
     15 C20        -9.0100    0.6140    8.9330 ca        1 2QG     -0.068200
     16 C21        -8.2500   -0.5550    9.1400 ca        1 2QG     -0.254800
     17 O7         -2.1210    0.2150    1.4990 os        1 2QG     -0.328900
     18 N14        -8.0970    0.3010    6.0840 nh        1 2QG     -0.276400
     19 N16       -12.8110    1.0910    3.3600 n3        1 2QG     -0.744400
     20 N18       -10.6190    0.6660    4.5230 n1        1 2QG     -0.534800
     21 N19        -8.5590    1.6420    8.0520 nh        1 2QG     -0.187500
     22 C22        -8.7530   -1.5260   10.0240 ca        1 2QG      0.426200
     23 N23        -9.9180   -1.4040   10.6860 nb        1 2QG     -0.627000
     24 C24       -10.6270   -0.2780   10.4900 ca        1 2QG      0.426200
     25 C25       -10.2250    0.7610    9.6290 ca        1 2QG     -0.254800
     26 CL1         3.7000    0.6340    1.9770 cl        1 2QG     -0.079400
     27 H1         -0.5340    0.8160   -0.3920 ha        1 2QG      0.145000
     28 H2          1.9580    1.0110   -0.2410 ha        1 2QG      0.153500
     29 H3          1.7770   -0.0310    3.9650 ha        1 2QG      0.153500
     30 H4         -0.6870   -0.2250    3.8240 ha        1 2QG      0.145000
     31 H5         -2.5690   -1.1800    2.9990 h1        1 2QG      0.040200
     32 H6         -2.7790    0.5850    3.4510 h1        1 2QG      0.040200
     33 H7         -4.4310   -1.0070    1.3460 hc        1 2QG      0.068200
     34 H8         -4.5940    0.7640    1.6570 hc        1 2QG      0.068200
     35 H9         -5.1990    0.3040    4.0540 hc        1 2QG      0.041200
     36 H10        -4.9950   -1.4720    3.7750 hc        1 2QG      0.041200
     37 H11        -6.9810    0.3500    2.2330 hc        1 2QG      0.076700
     38 H12        -6.8020   -1.4390    2.0510 hc        1 2QG      0.076700
     39 H13        -8.7240   -1.0140    3.4740 hc        1 2QG      0.114700
     40 H14        -7.4110   -1.7640    4.4760 hc        1 2QG      0.114700
     41 H15        -7.6170    1.3600    4.3510 h4        1 2QG      0.085800
     42 H16        -8.3080   -0.5880    6.5150 hn        1 2QG      0.279700
     43 H17        -7.2670   -0.7040    8.6720 ha        1 2QG      0.156000
     44 H18       -13.5690    0.4970    3.6270 hn        1 2QG      0.440800
     45 H19        -8.5750    2.5760    8.4310 hn        1 2QG      0.344700
     46 H20        -8.1840   -2.4560   10.2190 h4        1 2QG      0.050100
     47 H21       -11.5750   -0.1980   11.0580 h4        1 2QG      0.050100
     48 H22       -10.8530    1.6570    9.5210 ha        1 2QG      0.156000
     49 H162      -13.0500    2.0510    3.2190 hn        1 2QG      0.440800
@<TRIPOS>BOND
     1    1    2 ar  
     2    1    6 ar  
     3    1   27 1   
     4    2    3 ar  
     5    2   28 1   
     6    3    4 ar  
     7    3   26 1   
     8    4    5 ar  
     9    4   29 1   
    10    5    6 ar  
    11    5   30 1   
    12    6   17 1   
    13    7    8 1   
    14    7   17 1   
    15    7   31 1   
    16    7   32 1   
    17    8    9 1   
    18    8   33 1   
    19    8   34 1   
    20    9   10 1   
    21    9   35 1   
    22    9   36 1   
    23   10   11 1   
    24   10   37 1   
    25   10   38 1   
    26   11   12 1   
    27   11   39 1   
    28   11   40 1   
    29   12   18 2   
    30   12   41 1   
    31   13   18 2   
    32   13   21 2   
    33   14   19 1   
    34   14   20 3   
    35   15   16 ar  
    36   15   21 1   
    37   15   25 ar  
    38   16   22 ar  
    39   16   43 1   
    40   18   42 1   
    41   19   44 1   
    42   19   49 1   
    43   21   45 1   
    44   22   23 ar  
    45   22   46 1   
    46   23   24 ar  
    47   24   25 ar  
    48   24   47 1   
    49   25   48 1   
@<TRIPOS>SUBSTRUCTURE
     1 2QG         1 TEMP              0 ****  ****    0 ROOT
