@<TRIPOS>MOLECULE
2QH
   57    61     1     0     0
SMALL
bcc


@<TRIPOS>ATOM
      1 C1          0.2900    1.3290    0.2560 c3        1 2QH     -0.047800
      2 C2          1.5630    0.5850    0.3810 ca        1 2QH     -0.099300
      3 C3          2.3650    0.7040    1.5140 ca        1 2QH     -0.084000
      4 C4          3.5660   -0.0090    1.6270 ca        1 2QH     -0.163300
      5 C5          3.9610   -0.8610    0.5880 ca        1 2QH     -0.050000
      6 C6          3.1800   -0.9930   -0.5560 ca        1 2QH     -0.201000
      7 C7          1.9830   -0.2730   -0.6650 ca        1 2QH      0.159100
      8 O8          1.1400   -0.3280   -1.7480 os        1 2QH     -0.313900
      9 C9          1.5220   -1.1990   -2.8120 c3        1 2QH      0.107700
     10 C10         4.4730    0.1010    2.8270 c3        1 2QH      0.252500
     11 C11         5.7560    0.9190    2.4140 c2        1 2QH      0.551200
     12 N12         6.5030    0.7410    1.3850 n2        1 2QH     -0.519900
     13 C13         7.5310    1.6980    1.0940 c3        1 2QH      0.062800
     14 C14         7.2320    3.1560    1.5850 c3        1 2QH      0.388600
     15 C15         6.5930    3.1930    3.0340 c3        1 2QH      0.122800
     16 N16         5.9130    1.9840    3.4040 nh        1 2QH     -0.722600
     17 C17         4.6960    1.9410    4.1600 c2        1 2QH      0.599100
     18 N18         3.8880    0.9250    3.9410 n2        1 2QH     -0.506900
     19 N19         4.4510    2.9260    5.2370 n4        1 2QH     -0.779600
     20 F20         8.3750    3.9230    1.5840 f         1 2QH     -0.211800
     21 F21         6.4150    3.8270    0.7020 f         1 2QH     -0.211800
     22 C22         4.8330   -1.2560    3.3840 ca        1 2QH     -0.129300
     23 C23         6.1410   -1.5830    3.7540 ca        1 2QH     -0.085000
     24 C24         6.4250   -2.8390    4.2740 ca        1 2QH     -0.168000
     25 C25         5.3940   -3.7840    4.4480 ca        1 2QH      0.166900
     26 C26         4.0620   -3.4610    4.0930 cp        1 2QH     -0.053000
     27 C27         3.8070   -2.1900    3.5610 ca        1 2QH     -0.061000
     28 C28         2.9580   -4.3950    4.2700 cp        1 2QH     -0.178300
     29 C29         3.0710   -5.7570    3.9510 ca        1 2QH     -0.065000
     30 C30         1.9660   -6.5890    4.1280 ca        1 2QH     -0.239300
     31 C31         0.7730   -6.0320    4.6250 ca        1 2QH      0.411200
     32 N32         0.6430   -4.7290    4.9430 nb        1 2QH     -0.660000
     33 C33         1.7140   -3.9370    4.7660 ca        1 2QH      0.410200
     34 F34         5.7050   -4.9920    4.9660 f         1 2QH     -0.117900
     35 H1         -0.5590    0.6110    0.1250 hc        1 2QH      0.054367
     36 H2          0.0920    1.9600    1.1560 hc        1 2QH      0.054367
     37 H3          0.3190    1.9870   -0.6490 hc        1 2QH      0.054367
     38 H4          2.0120    1.3650    2.3190 ha        1 2QH      0.127000
     39 H5          4.8990   -1.4340    0.6700 ha        1 2QH      0.155000
     40 H6          3.5100   -1.6650   -1.3610 ha        1 2QH      0.155000
     41 H7          2.4950   -0.8750   -3.2530 h1        1 2QH      0.055367
     42 H8          1.5800   -2.2550   -2.4530 h1        1 2QH      0.055367
     43 H9          0.6900   -1.0760   -3.5520 h1        1 2QH      0.055367
     44 H10         8.5120    1.3690    1.5420 h1        1 2QH      0.120200
     45 H11         7.6440    1.7250   -0.0300 h1        1 2QH      0.120200
     46 H12         5.9190    4.0950    3.0670 h1        1 2QH      0.079200
     47 H13         7.4420    3.3440    3.7640 h1        1 2QH      0.079200
     48 H14         5.1940    2.8400    5.9440 hn        1 2QH      0.483467
     49 H15         3.5370    2.7400    5.6770 hn        1 2QH      0.483467
     50 H16         6.9640   -0.8620    3.6320 ha        1 2QH      0.140000
     51 H17         7.4540   -3.1100    4.5560 ha        1 2QH      0.164000
     52 H18         2.7760   -1.9300    3.2640 ha        1 2QH      0.162000
     53 H19         4.0210   -6.1610    3.5710 ha        1 2QH      0.150000
     54 H20         2.0220   -7.6600    3.8870 ha        1 2QH      0.156000
     55 H21        -0.1250   -6.6570    4.7810 h4        1 2QH      0.034100
     56 H22         1.5760   -2.8760    5.0420 h4        1 2QH      0.017100
     57 H193        4.4550    3.8740    4.8400 hn        1 2QH      0.483467
@<TRIPOS>BOND
     1    1    2 1   
     2    1   35 1   
     3    1   36 1   
     4    1   37 1   
     5    2    3 ar  
     6    2    7 ar  
     7    3    4 ar  
     8    3   38 1   
     9    4    5 ar  
    10    4   10 1   
    11    5    6 ar  
    12    5   39 1   
    13    6    7 ar  
    14    6   40 1   
    15    7    8 1   
    16    8    9 1   
    17    9   41 1   
    18    9   42 1   
    19    9   43 1   
    20   10   11 1   
    21   10   18 1   
    22   10   22 1   
    23   11   12 2   
    24   11   16 1   
    25   12   13 1   
    26   13   14 1   
    27   13   44 1   
    28   13   45 1   
    29   14   15 1   
    30   14   20 1   
    31   14   21 1   
    32   15   16 1   
    33   15   46 1   
    34   15   47 1   
    35   16   17 1   
    36   17   18 2   
    37   17   19 1   
    38   19   48 1   
    39   19   49 1   
    40   19   57 1   
    41   22   23 ar  
    42   22   27 ar  
    43   23   24 ar  
    44   23   50 1   
    45   24   25 ar  
    46   24   51 1   
    47   25   26 ar  
    48   25   34 1   
    49   26   27 ar  
    50   26   28 1   
    51   27   52 1   
    52   28   29 ar  
    53   28   33 ar  
    54   29   30 ar  
    55   29   53 1   
    56   30   31 ar  
    57   30   54 1   
    58   31   32 ar  
    59   31   55 1   
    60   32   33 ar  
    61   33   56 1   
@<TRIPOS>SUBSTRUCTURE
     1 2QH         1 TEMP              0 ****  ****    0 ROOT
