@<TRIPOS>MOLECULE
2QH
   57    61     1     0     0
SMALL
bcc


@<TRIPOS>ATOM
      1 C1          0.3050    1.3210    0.2310 c3        1 2QH     -0.047800
      2 C2          1.5750    0.5730    0.3660 ca        1 2QH     -0.099300
      3 C3          2.3760    0.7010    1.4980 ca        1 2QH     -0.084000
      4 C4          3.5730   -0.0160    1.6220 ca        1 2QH     -0.163300
      5 C5          3.9660   -0.8810    0.5920 ca        1 2QH     -0.050000
      6 C6          3.1860   -1.0230   -0.5500 ca        1 2QH     -0.201000
      7 C7          1.9930   -0.2980   -0.6690 ca        1 2QH      0.159100
      8 O8          1.1510   -0.3620   -1.7530 os        1 2QH     -0.313900
      9 C9          1.5300   -1.2470   -2.8060 c3        1 2QH      0.107700
     10 C10         4.4800    0.1030    2.8210 c3        1 2QH      0.252500
     11 C11         5.7660    0.9110    2.4010 c2        1 2QH      0.551200
     12 N12         6.5140    0.7180    1.3750 n2        1 2QH     -0.519900
     13 C13         7.5470    1.6680    1.0740 c3        1 2QH      0.062800
     14 C14         7.2530    3.1330    1.5490 c3        1 2QH      0.388600
     15 C15         6.6120    3.1890    2.9960 c3        1 2QH      0.122800
     16 N16         5.9270    1.9860    3.3790 nh        1 2QH     -0.722600
     17 C17         4.7080    1.9570    4.1340 c2        1 2QH      0.599100
     18 N18         3.8970    0.9420    3.9250 n2        1 2QH     -0.506900
     19 N19         4.4670    2.9560    5.1990 n4        1 2QH     -0.779600
     20 F20         8.3990    3.8950    1.5400 f         1 2QH     -0.211800
     21 F21         6.4400    3.7970    0.6570 f         1 2QH     -0.211800
     22 C22         4.8330   -1.2490    3.3940 ca        1 2QH     -0.129300
     23 C23         6.1390   -1.5760    3.7700 ca        1 2QH     -0.085000
     24 C24         6.4170   -2.8280    4.3040 ca        1 2QH     -0.168000
     25 C25         5.3820   -3.7670    4.4870 ca        1 2QH      0.166900
     26 C26         4.0520   -3.4430    4.1250 cp        1 2QH     -0.053000
     27 C27         3.8040   -2.1770    3.5790 ca        1 2QH     -0.061000
     28 C28         2.9440   -4.3710    4.3100 cp        1 2QH     -0.178300
     29 C29         3.0530   -5.7360    4.0060 ca        1 2QH     -0.065000
     30 C30         1.9450   -6.5620    4.1900 ca        1 2QH     -0.239300
     31 C31         0.7530   -5.9960    4.6780 ca        1 2QH      0.411200
     32 N32         0.6270   -4.6880    4.9810 nb        1 2QH     -0.660000
     33 C33         1.7010   -3.9020    4.7980 ca        1 2QH      0.410200
     34 F34         5.6880   -4.9710    5.0190 f         1 2QH     -0.117900
     35 H1          0.3390    1.9690   -0.6820 hc        1 2QH      0.054367
     36 H2         -0.5470    0.6060    0.1070 hc        1 2QH      0.054367
     37 H3          0.1090    1.9640    1.1230 hc        1 2QH      0.054367
     38 H4          2.0250    1.3730    2.2960 ha        1 2QH      0.127000
     39 H5          4.9010   -1.4580    0.6820 ha        1 2QH      0.155000
     40 H6          3.5140   -1.7050   -1.3480 ha        1 2QH      0.155000
     41 H7          2.5050   -0.9330   -3.2500 h1        1 2QH      0.055367
     42 H8          0.6990   -1.1290   -3.5490 h1        1 2QH      0.055367
     43 H9          1.5820   -2.2990   -2.4350 h1        1 2QH      0.055367
     44 H10         8.5250    1.3400    1.5270 h1        1 2QH      0.120200
     45 H11         7.6610    1.6820   -0.0490 h1        1 2QH      0.120200
     46 H12         7.4600    3.3450    3.7250 h1        1 2QH      0.079200
     47 H13         5.9420    4.0940    3.0180 h1        1 2QH      0.079200
     48 H14         3.5510    2.7780    5.6400 hn        1 2QH      0.483467
     49 H15         4.4750    3.8990    4.7920 hn        1 2QH      0.483467
     50 H16         6.9650   -0.8600    3.6410 ha        1 2QH      0.140000
     51 H17         7.4450   -3.1000    4.5910 ha        1 2QH      0.164000
     52 H18         2.7740   -1.9160    3.2770 ha        1 2QH      0.162000
     53 H19         4.0030   -6.1480    3.6320 ha        1 2QH      0.150000
     54 H20         1.9970   -7.6360    3.9610 ha        1 2QH      0.156000
     55 H21        -0.1480   -6.6150    4.8390 h4        1 2QH      0.034100
     56 H22         1.5660   -2.8380    5.0630 h4        1 2QH      0.017100
     57 H193        5.2080    2.8740    5.9080 hn        1 2QH      0.483467
@<TRIPOS>BOND
     1    1    2 1   
     2    1   35 1   
     3    1   36 1   
     4    1   37 1   
     5    2    3 ar  
     6    2    7 ar  
     7    3    4 ar  
     8    3   38 1   
     9    4    5 ar  
    10    4   10 1   
    11    5    6 ar  
    12    5   39 1   
    13    6    7 ar  
    14    6   40 1   
    15    7    8 1   
    16    8    9 1   
    17    9   41 1   
    18    9   42 1   
    19    9   43 1   
    20   10   11 1   
    21   10   18 1   
    22   10   22 1   
    23   11   12 2   
    24   11   16 1   
    25   12   13 1   
    26   13   14 1   
    27   13   44 1   
    28   13   45 1   
    29   14   15 1   
    30   14   20 1   
    31   14   21 1   
    32   15   16 1   
    33   15   46 1   
    34   15   47 1   
    35   16   17 1   
    36   17   18 2   
    37   17   19 1   
    38   19   48 1   
    39   19   49 1   
    40   19   57 1   
    41   22   23 ar  
    42   22   27 ar  
    43   23   24 ar  
    44   23   50 1   
    45   24   25 ar  
    46   24   51 1   
    47   25   26 ar  
    48   25   34 1   
    49   26   27 ar  
    50   26   28 1   
    51   27   52 1   
    52   28   29 ar  
    53   28   33 ar  
    54   29   30 ar  
    55   29   53 1   
    56   30   31 ar  
    57   30   54 1   
    58   31   32 ar  
    59   31   55 1   
    60   32   33 ar  
    61   33   56 1   
@<TRIPOS>SUBSTRUCTURE
     1 2QH         1 TEMP              0 ****  ****    0 ROOT
