@<TRIPOS>MOLECULE
2QH
   57    61     1     0     0
SMALL
bcc


@<TRIPOS>ATOM
      1 C1          0.3030    1.2840    0.1970 c3        1 2QH     -0.047800
      2 C2          1.5790    0.5500    0.3440 ca        1 2QH     -0.099300
      3 C3          2.3670    0.6850    1.4850 ca        1 2QH     -0.084000
      4 C4          3.5710   -0.0180    1.6200 ca        1 2QH     -0.163300
      5 C5          3.9850   -0.8770    0.5930 ca        1 2QH     -0.050000
      6 C6          3.2180   -1.0260   -0.5580 ca        1 2QH     -0.201000
      7 C7          2.0180   -0.3150   -0.6880 ca        1 2QH      0.159100
      8 O8          1.1890   -0.3860   -1.7810 os        1 2QH     -0.313900
      9 C9          1.5890   -1.2650   -2.8320 c3        1 2QH      0.107700
     10 C10         4.4630    0.1090    2.8290 c3        1 2QH      0.252500
     11 C11         5.7450    0.9330    2.4240 c2        1 2QH      0.551200
     12 N12         6.5060    0.7500    1.4060 n2        1 2QH     -0.519900
     13 C13         7.5310    1.7110    1.1180 c3        1 2QH      0.062800
     14 C14         7.2150    3.1720    1.5920 c3        1 2QH      0.388600
     15 C15         6.5580    3.2190    3.0320 c3        1 2QH      0.122800
     16 N16         5.8830    2.0070    3.4060 nh        1 2QH     -0.722600
     17 C17         4.6560    1.9630    4.1470 c2        1 2QH      0.599100
     18 N18         3.8590    0.9390    3.9280 n2        1 2QH     -0.506900
     19 N19         4.3920    2.9570    5.2120 nz        1 2QH     -0.779600
     20 F20         8.3520    3.9470    1.5970 f         1 2QH     -0.211800
     21 F21         6.4040    3.8290    0.6920 f         1 2QH     -0.211800
     22 C22         4.8260   -1.2400    3.4040 ca        1 2QH     -0.129300
     23 C23         6.1320   -1.5530    3.7930 ca        1 2QH     -0.085000
     24 C24         6.4180   -2.8020    4.3280 ca        1 2QH     -0.168000
     25 C25         5.3930   -3.7540    4.4970 ca        1 2QH      0.166900
     26 C26         4.0620   -3.4440    4.1220 cp        1 2QH     -0.053000
     27 C27         3.8050   -2.1800    3.5760 ca        1 2QH     -0.061000
     28 C28         2.9640   -4.3850    4.2940 cp        1 2QH     -0.178300
     29 C29         3.0910   -5.7490    3.9880 ca        1 2QH     -0.065000
     30 C30         1.9910   -6.5880    4.1580 ca        1 2QH     -0.239300
     31 C31         0.7870   -6.0360    4.6350 ca        1 2QH      0.411200
     32 N32         0.6430   -4.7310    4.9390 nb        1 2QH     -0.660000
     33 C33         1.7100   -3.9320    4.7690 ca        1 2QH      0.410200
     34 F34         5.7060   -4.9550    5.0310 f         1 2QH     -0.117900
     35 H1          0.0900    1.9220    1.0880 hc        1 2QH      0.054367
     36 H2          0.3390    1.9330   -0.7150 hc        1 2QH      0.054367
     37 H3         -0.5400    0.5580    0.0620 hc        1 2QH      0.054367
     38 H4          2.0000    1.3510    2.2800 ha        1 2QH      0.127000
     39 H5          4.9260   -1.4430    0.6930 ha        1 2QH      0.155000
     40 H6          3.5630   -1.7030   -1.3530 ha        1 2QH      0.155000
     41 H7          2.5660   -0.9380   -3.2650 h1        1 2QH      0.055367
     42 H8          1.6500   -2.3170   -2.4620 h1        1 2QH      0.055367
     43 H9          0.7650   -1.1550   -3.5830 h1        1 2QH      0.055367
     44 H10         7.6570    1.7290   -0.0040 h1        1 2QH      0.120200
     45 H11         8.5080    1.3950    1.5810 h1        1 2QH      0.120200
     46 H12         7.3960    3.3830    3.7710 h1        1 2QH      0.079200
     47 H13         5.8770    4.1150    3.0490 h1        1 2QH      0.079200
     48 H14         4.3940    3.9010    4.8060 hn        1 2QH      0.483467
     49 H15         5.1270    2.8830    5.9280 hn        1 2QH      0.483467
     50 H16         6.9500   -0.8270    3.6750 ha        1 2QH      0.140000
     51 H17         7.4460   -3.0630    4.6250 ha        1 2QH      0.164000
     52 H18         2.7760   -1.9300    3.2630 ha        1 2QH      0.162000
     53 H19         4.0500   -6.1490    3.6240 ha        1 2QH      0.150000
     54 H20         2.0580   -7.6600    3.9280 ha        1 2QH      0.156000
     55 H21        -0.1080   -6.6670    4.7850 h4        1 2QH      0.034100
     56 H22         1.5600   -2.8700    5.0340 h4        1 2QH      0.017100
     57 H193        3.4740    2.7680    5.6430 hn        1 2QH      0.483467
@<TRIPOS>BOND
     1    1    2 1   
     2    1   35 1   
     3    1   36 1   
     4    1   37 1   
     5    2    3 ar  
     6    2    7 ar  
     7    3    4 ar  
     8    3   38 1   
     9    4    5 ar  
    10    4   10 1   
    11    5    6 ar  
    12    5   39 1   
    13    6    7 ar  
    14    6   40 1   
    15    7    8 1   
    16    8    9 1   
    17    9   41 1   
    18    9   42 1   
    19    9   43 1   
    20   10   11 1   
    21   10   18 1   
    22   10   22 1   
    23   11   12 2   
    24   11   16 1   
    25   12   13 1   
    26   13   14 1   
    27   13   44 1   
    28   13   45 1   
    29   14   15 1   
    30   14   20 1   
    31   14   21 1   
    32   15   16 1   
    33   15   46 1   
    34   15   47 1   
    35   16   17 1   
    36   17   18 2   
    37   17   19 1   
    38   19   48 1   
    39   19   49 1   
    40   19   57 1   
    41   22   23 ar  
    42   22   27 ar  
    43   23   24 ar  
    44   23   50 1   
    45   24   25 ar  
    46   24   51 1   
    47   25   26 ar  
    48   25   34 1   
    49   26   27 ar  
    50   26   28 1   
    51   27   52 1   
    52   28   29 ar  
    53   28   33 ar  
    54   29   30 ar  
    55   29   53 1   
    56   30   31 ar  
    57   30   54 1   
    58   31   32 ar  
    59   31   55 1   
    60   32   33 ar  
    61   33   56 1   
@<TRIPOS>SUBSTRUCTURE
     1 2QH         1 TEMP              0 ****  ****    0 ROOT
