@<TRIPOS>MOLECULE
2QJ
   39    40     1     0     0
SMALL
bcc


@<TRIPOS>ATOM
      1 C1          1.4690    0.8340   -0.3650 c3        1 2QJ     -0.130100
      2 C2          0.3500   -0.0870    0.0880 c3        1 2QJ      0.060800
      3 C3          0.1200    0.0630    1.6150 c         1 2QJ      0.684100
      4 O4          0.6670    0.9970    2.2200 o         1 2QJ     -0.551100
      5 N5         -0.7190   -0.8730    2.1950 ns        1 2QJ     -0.446100
      6 C6         -1.0600   -0.9760    3.5460 ca        1 2QJ      0.142600
      7 C7         -0.6610   -0.0300    4.5180 ca        1 2QJ     -0.182000
      8 C8         -1.0480   -0.1760    5.8420 ca        1 2QJ      0.011000
      9 C9         -1.8420   -1.2480    6.2660 ca        1 2QJ     -0.398500
     10 C10        -2.2290   -2.1970    5.3150 ca        1 2QJ      0.017000
     11 C11        -1.8550   -2.0750    3.9810 ca        1 2QJ     -0.064600
     12 Cl1        -2.3700   -3.2710    2.8840 cl        1 2QJ     -0.079400
     13 S13        -2.2790   -1.4150    7.8780 sy        1 2QJ      1.445600
     14 O14        -2.5140   -2.7700    8.1570 o         1 2QJ     -0.653300
     15 O15        -1.3580   -0.7260    8.6820 o         1 2QJ     -0.653300
     16 C16        -3.7470   -0.5850    7.8900 ca        1 2QJ     -0.367500
     17 C17        -3.7900    0.7810    8.1950 ca        1 2QJ     -0.008000
     18 C18        -5.0020    1.4660    8.2240 ca        1 2QJ     -0.154000
     19 C19        -6.1910    0.7930    7.9490 ca        1 2QJ     -0.043000
     20 C20        -6.1660   -0.5740    7.6520 ca        1 2QJ     -0.054900
     21 C21        -4.9470   -1.2550    7.6280 ca        1 2QJ      0.007000
     22 Br2        -7.7590   -1.4860    7.2920 br        1 2QJ     -0.071100
     23 C23        -0.9760    0.2780   -0.7040 c3        1 2QJ      0.593900
     24 F24        -2.0540   -0.5050   -0.3860 f         1 2QJ     -0.227967
     25 F25        -1.4010    1.5670   -0.5390 f         1 2QJ     -0.227967
     26 F26        -0.8210    0.1170   -2.0590 f         1 2QJ     -0.227967
     27 O27         0.6310   -1.4470   -0.1690 oh        1 2QJ     -0.574800
     28 H1          1.6050    0.7550   -1.4700 hc        1 2QJ      0.077367
     29 H2          1.2200    1.8900   -0.0960 hc        1 2QJ      0.077367
     30 H3          2.4170    0.5470    0.1510 hc        1 2QJ      0.077367
     31 H4         -1.0530   -1.6030    1.5920 hn        1 2QJ      0.354500
     32 H5         -0.0350    0.8340    4.2370 ha        1 2QJ      0.183000
     33 H6         -0.7090    0.5690    6.5860 ha        1 2QJ      0.160000
     34 H7         -2.8320   -3.0680    5.6360 ha        1 2QJ      0.169000
     35 H8         -2.8500    1.3110    8.4300 ha        1 2QJ      0.157000
     36 H9         -5.0230    2.5390    8.4660 ha        1 2QJ      0.148000
     37 H10        -7.1470    1.3420    7.9710 ha        1 2QJ      0.152000
     38 H11        -4.9180   -2.3400    7.4150 ha        1 2QJ      0.166000
     39 H12         0.9800   -1.5060   -1.0710 ho        1 2QJ      0.436000
@<TRIPOS>BOND
     1    1    2 1   
     2    1   28 1   
     3    1   29 1   
     4    1   30 1   
     5    2    3 1   
     6    2   23 1   
     7    2   27 1   
     8    3    4 2   
     9    3    5 1   
    10    5    6 1   
    11    5   31 1   
    12    6    7 ar  
    13    6   11 ar  
    14    7    8 ar  
    15    7   32 1   
    16    8    9 ar  
    17    8   33 1   
    18    9   10 ar  
    19    9   13 1   
    20   10   11 ar  
    21   10   34 1   
    22   11   12 1   
    23   13   14 2   
    24   13   15 2   
    25   13   16 1   
    26   16   17 ar  
    27   16   21 ar  
    28   17   18 ar  
    29   17   35 1   
    30   18   19 ar  
    31   18   36 1   
    32   19   20 ar  
    33   19   37 1   
    34   20   21 ar  
    35   20   22 1   
    36   21   38 1   
    37   23   24 1   
    38   23   25 1   
    39   23   26 1   
    40   27   39 1   
@<TRIPOS>SUBSTRUCTURE
     1 2QJ         1 TEMP              0 ****  ****    0 ROOT
