@<TRIPOS>MOLECULE
2QJ
   40    41     1     0     0
SMALL
bcc


@<TRIPOS>ATOM
      1 C1          0.0000    1.7560   -0.1770 c3        1 2QJ     -0.145100
      2 C2          0.1230    0.2980    0.2280 c3        1 2QJ      0.067800
      3 C3         -0.6710    0.0370    1.5170 c         1 2QJ      0.534100
      4 O4         -1.5630    0.7370    1.9540 o         1 2QJ     -0.346100
      5 N5         -0.2740   -1.2180    2.2610 n4        1 2QJ     -0.539200
      6 C6         -0.8810   -1.3670    3.5850 ca        1 2QJ     -0.012400
      7 C7         -0.2490   -0.7970    4.7040 ca        1 2QJ     -0.110000
      8 C8         -0.8140   -0.9680    5.9650 ca        1 2QJ     -0.010000
      9 C9         -1.9970   -1.6920    6.1330 ca        1 2QJ     -0.255500
     10 C10        -2.6160   -2.2610    5.0220 ca        1 2QJ     -0.002000
     11 C11        -2.0740   -2.1030    3.7410 ca        1 2QJ      0.013400
     12 CL1        -2.8440   -2.8070    2.4090 cl        1 2QJ     -0.026400
     13 S13        -2.6520   -1.9450    7.7270 sy        1 2QJ      1.436600
     14 O14        -3.3340   -3.1600    7.6760 o         1 2QJ     -0.627800
     15 O15        -1.5890   -1.7740    8.6150 o         1 2QJ     -0.627800
     16 C16        -3.7060   -0.6670    7.8070 ca        1 2QJ     -0.421500
     17 C17        -3.3310    0.5330    8.4310 ca        1 2QJ     -0.004000
     18 C18        -4.2300    1.5880    8.5440 ca        1 2QJ     -0.149000
     19 C19        -5.5240    1.4640    8.0370 ca        1 2QJ     -0.022000
     20 C20        -5.9190    0.2720    7.4170 ca        1 2QJ     -0.057900
     21 C21        -5.0140   -0.7850    7.3150 ca        1 2QJ      0.010000
     22 BR2        -7.6500    0.0920    6.7390 br        1 2QJ     -0.040100
     23 C23        -0.4410   -0.6370   -0.9350 c3        1 2QJ      0.607900
     24 F24        -0.5660   -1.9470   -0.5440 f         1 2QJ     -0.207633
     25 F25        -1.6710   -0.2700   -1.3940 f         1 2QJ     -0.207633
     26 F26         0.3980   -0.6480   -2.0120 f         1 2QJ     -0.207633
     27 O27         1.4540   -0.0980    0.4830 oh        1 2QJ     -0.604800
     28 H1          0.5060    2.4080    0.5760 hc        1 2QJ      0.098700
     29 H2         -1.0770    2.0490   -0.2520 hc        1 2QJ      0.098700
     30 H3          0.4840    1.9060   -1.1750 hc        1 2QJ      0.098700
     31 H4         -0.5340   -2.0290    1.6690 hn        1 2QJ      0.487800
     32 H5          0.6880   -0.2240    4.6040 ha        1 2QJ      0.163000
     33 H6         -0.3030   -0.5410    6.8510 ha        1 2QJ      0.191000
     34 H7         -3.5370   -2.8650    5.1540 ha        1 2QJ      0.198000
     35 H8         -2.3140    0.6280    8.8550 ha        1 2QJ      0.161000
     36 H9         -3.9250    2.5210    9.0450 ha        1 2QJ      0.161000
     37 H10        -6.2320    2.3050    8.1330 ha        1 2QJ      0.166000
     38 H11        -5.3290   -1.7420    6.8580 ha        1 2QJ      0.164000
     39 H12         2.0250    0.2920   -0.2000 ho        1 2QJ      0.480000
     40 H52         0.7550   -1.2100    2.3580 hn        1 2QJ      0.487800
@<TRIPOS>BOND
     1    1    2 1   
     2    1   28 1   
     3    1   29 1   
     4    1   30 1   
     5    2    3 1   
     6    2   23 1   
     7    2   27 1   
     8    3    4 2   
     9    3    5 1   
    10    5    6 1   
    11    5   31 1   
    12    5   40 1   
    13    6    7 ar  
    14    6   11 ar  
    15    7    8 ar  
    16    7   32 1   
    17    8    9 ar  
    18    8   33 1   
    19    9   10 ar  
    20    9   13 1   
    21   10   11 ar  
    22   10   34 1   
    23   11   12 1   
    24   13   14 2   
    25   13   15 2   
    26   13   16 1   
    27   16   17 ar  
    28   16   21 ar  
    29   17   18 ar  
    30   17   35 1   
    31   18   19 ar  
    32   18   36 1   
    33   19   20 ar  
    34   19   37 1   
    35   20   21 ar  
    36   20   22 1   
    37   21   38 1   
    38   23   24 1   
    39   23   25 1   
    40   23   26 1   
    41   27   39 1   
@<TRIPOS>SUBSTRUCTURE
     1 2QJ         1 TEMP              0 ****  ****    0 ROOT
