@<TRIPOS>MOLECULE
2QJ
   39    40     1     0     0
SMALL
bcc


@<TRIPOS>ATOM
      1 C1          1.4840    0.8220   -0.3560 c3        1 2QJ     -0.130100
      2 C2          0.3600   -0.0940    0.0940 c3        1 2QJ      0.060800
      3 C3          0.1280    0.0560    1.6200 c         1 2QJ      0.684100
      4 O4          0.6780    0.9860    2.2270 o         1 2QJ     -0.551100
      5 N5         -0.7160   -0.8770    2.1970 n         1 2QJ     -0.446100
      6 C6         -1.0600   -0.9790    3.5480 ca        1 2QJ      0.142600
      7 C7         -0.6600   -0.0360    4.5210 ca        1 2QJ     -0.182000
      8 C8         -1.0500   -0.1810    5.8450 ca        1 2QJ      0.011000
      9 C9         -1.8480   -1.2510    6.2670 ca        1 2QJ     -0.398500
     10 C10        -2.2380   -2.1970    5.3140 ca        1 2QJ      0.017000
     11 C11        -1.8610   -2.0750    3.9810 ca        1 2QJ     -0.064600
     12 CL1        -2.3780   -3.2690    2.8820 cl        1 2QJ     -0.079400
     13 S13        -2.2890   -1.4170    7.8780 sy        1 2QJ      1.445600
     14 O14        -2.5290   -2.7710    8.1560 o         1 2QJ     -0.653300
     15 O15        -1.3670   -0.7310    8.6840 o         1 2QJ     -0.653300
     16 C16        -3.7540   -0.5830    7.8870 ca        1 2QJ     -0.367500
     17 C17        -3.7940    0.7830    8.1940 ca        1 2QJ     -0.008000
     18 C18        -5.0040    1.4720    8.2210 ca        1 2QJ     -0.154000
     19 C19        -6.1950    0.8030    7.9430 ca        1 2QJ     -0.043000
     20 C20        -6.1730   -0.5640    7.6440 ca        1 2QJ     -0.054900
     21 C21        -4.9560   -1.2480    7.6220 ca        1 2QJ      0.007000
     22 BR2        -7.7680   -1.4710    7.2790 br        1 2QJ     -0.071100
     23 C23        -0.9630    0.2790   -0.7010 c3        1 2QJ      0.593900
     24 F24        -2.0450   -0.4990   -0.3860 f         1 2QJ     -0.227967
     25 F25        -1.3820    1.5690   -0.5350 f         1 2QJ     -0.227967
     26 F26        -0.8060    0.1180   -2.0550 f         1 2QJ     -0.227967
     27 O27         0.6340   -1.4550   -0.1640 oh        1 2QJ     -0.574800
     28 H1          1.6220    0.7430   -1.4620 hc        1 2QJ      0.077367
     29 H2          1.2410    1.8790   -0.0870 hc        1 2QJ      0.077367
     30 H3          2.4300    0.5290    0.1600 hc        1 2QJ      0.077367
     31 H4         -1.0530   -1.6050    1.5930 hn        1 2QJ      0.354500
     32 H5         -0.0300    0.8260    4.2420 ha        1 2QJ      0.183000
     33 H6         -0.7090    0.5610    6.5900 ha        1 2QJ      0.160000
     34 H7         -2.8440   -3.0660    5.6330 ha        1 2QJ      0.169000
     35 H8         -2.8530    1.3110    8.4310 ha        1 2QJ      0.157000
     36 H9         -5.0220    2.5450    8.4640 ha        1 2QJ      0.148000
     37 H10        -7.1490    1.3550    7.9630 ha        1 2QJ      0.152000
     38 H11        -4.9300   -2.3330    7.4080 ha        1 2QJ      0.166000
     39 H12         0.9850   -1.5150   -1.0650 ho        1 2QJ      0.436000
@<TRIPOS>BOND
     1    1    2 1   
     2    1   28 1   
     3    1   29 1   
     4    1   30 1   
     5    2    3 1   
     6    2   23 1   
     7    2   27 1   
     8    3    4 2   
     9    3    5 1   
    10    5    6 1   
    11    5   31 1   
    12    6    7 ar  
    13    6   11 ar  
    14    7    8 ar  
    15    7   32 1   
    16    8    9 ar  
    17    8   33 1   
    18    9   10 ar  
    19    9   13 1   
    20   10   11 ar  
    21   10   34 1   
    22   11   12 1   
    23   13   14 2   
    24   13   15 2   
    25   13   16 1   
    26   16   17 ar  
    27   16   21 ar  
    28   17   18 ar  
    29   17   35 1   
    30   18   19 ar  
    31   18   36 1   
    32   19   20 ar  
    33   19   37 1   
    34   20   21 ar  
    35   20   22 1   
    36   21   38 1   
    37   23   24 1   
    38   23   25 1   
    39   23   26 1   
    40   27   39 1   
@<TRIPOS>SUBSTRUCTURE
     1 2QJ         1 TEMP              0 ****  ****    0 ROOT
