@<TRIPOS>MOLECULE
2QK
   68    72     1     0     0
SMALL
bcc


@<TRIPOS>ATOM
      1 C01        -0.2040   -0.5050    0.4320 c3        1 2QK     -0.115100
      2 C02         1.2790   -0.4980    0.1680 c3        1 2QK     -0.100400
      3 C03         2.0990   -0.2070    1.4270 c3        1 2QK      0.187800
      4 N04         2.0030   -1.3390    2.4320 ny        1 2QK     -0.675800
      5 C05         0.7680   -1.3060    3.3160 c         1 2QK      0.577700
      6 O06         0.2540   -0.2070    3.4900 o         1 2QK     -0.448100
      7 C07         0.3330   -2.5880    3.8540 ca        1 2QK     -0.265600
      8 C08         1.1900   -3.7160    3.9540 ca        1 2QK     -0.079000
      9 C09         0.7520   -4.9170    4.4680 ca        1 2QK     -0.127000
     10 C10        -0.5880   -4.9990    4.9000 ca        1 2QK     -0.001200
     11 N11        -1.3520   -6.0280    5.4270 na        1 2QK      0.015900
     12 N12        -2.6070   -5.6370    5.7070 nc        1 2QK     -0.488100
     13 C13        -2.7420   -4.3280    5.3680 cd        1 2QK      0.464500
     14 C14        -3.9580   -3.5530    5.5160 ca        1 2QK     -0.181900
     15 C15        -5.2120   -4.1490    5.2880 ca        1 2QK     -0.061500
     16 C16        -6.3770   -3.4120    5.4310 ca        1 2QK     -0.191000
     17 C17        -6.3030   -2.0550    5.8180 ca        1 2QK      0.170100
     18 O18        -7.5210   -1.4340    5.9280 os        1 2QK     -0.320900
     19 C19        -7.5460   -0.0820    6.4340 c3        1 2QK      0.140100
     20 C20        -8.9600    0.1250    6.9680 c3        1 2QK     -0.089900
     21 C21        -9.9910    0.2250    5.8480 c3        1 2QK      0.170300
     22 N22        -9.6390    1.2140    4.8370 n3        1 2QK     -0.731600
     23 C23       -10.6570    1.3440    3.8180 c3        1 2QK      0.156100
     24 C24        -8.3170    0.9800    4.2730 c3        1 2QK      0.170300
     25 C25        -7.2210    0.9170    5.3330 c3        1 2QK     -0.089900
     26 C26        -5.0570   -1.4560    6.0520 ca        1 2QK     -0.191000
     27 C27        -3.8960   -2.2090    5.9030 ca        1 2QK     -0.061500
     28 C28        -1.4660   -3.8420    4.8300 ca        1 2QK     -0.238900
     29 C29        -0.9960   -2.6500    4.3080 ca        1 2QK      0.059000
     30 C30         3.5490    0.0670    1.1380 ca        1 2QK     -0.172300
     31 C31         4.1350   -0.3050   -0.0770 ca        1 2QK     -0.091000
     32 C32         5.4630    0.0180   -0.3540 ca        1 2QK     -0.118000
     33 C33         6.2260    0.7130    0.5830 ca        1 2QK     -0.078000
     34 C34         5.6650    1.0790    1.8060 ca        1 2QK     -0.110000
     35 C35         4.3350    0.7500    2.0850 ca        1 2QK      0.016400
     36 Cl          3.6920    1.1930    3.5980 cl        1 2QK     -0.076400
     37 H1         -0.5020   -1.3870    1.0500 hc        1 2QK      0.055700
     38 H2         -0.5210    0.4230    0.9690 hc        1 2QK      0.055700
     39 H3         -0.7590   -0.5570   -0.5380 hc        1 2QK      0.055700
     40 H4          1.5220    0.3180   -0.5670 hc        1 2QK      0.078700
     41 H5          1.5880   -1.4720   -0.2970 hc        1 2QK      0.078700
     42 H6          1.6490    0.7080    1.9330 hx        1 2QK      0.139700
     43 H7          2.0190   -2.2310    1.9280 hn        1 2QK      0.454800
     44 H8          2.2450   -3.6480    3.6480 ha        1 2QK      0.123000
     45 H9          1.4240   -5.7840    4.5460 ha        1 2QK      0.165000
     46 H10        -1.0610   -6.9560    5.6410 hn        1 2QK      0.347700
     47 H11        -5.2730   -5.2090    4.9960 ha        1 2QK      0.140000
     48 H12        -7.3630   -3.8660    5.2540 ha        1 2QK      0.155500
     49 H13        -6.8100    0.0100    7.2800 h1        1 2QK      0.051700
     50 H14        -9.2400   -0.7310    7.6330 hc        1 2QK      0.060450
     51 H15        -8.9580    1.0650    7.5780 hc        1 2QK      0.060450
     52 H16       -10.9780    0.5310    6.2960 h1        1 2QK      0.039200
     53 H17       -10.1190   -0.8030    5.3950 h1        1 2QK      0.039200
     54 H19       -10.3700    2.1780    3.1260 h1        1 2QK      0.035367
     55 H20       -10.8020    0.4080    3.2110 h1        1 2QK      0.035367
     56 H21       -11.6300    1.6040    4.3110 h1        1 2QK      0.035367
     57 H22        -8.0900    1.8300    3.5710 h1        1 2QK      0.039200
     58 H23        -8.2850    0.0200    3.6760 h1        1 2QK      0.039200
     59 H24        -6.2620    0.6330    4.8290 hc        1 2QK      0.060450
     60 H25        -7.0880    1.9250    5.8050 hc        1 2QK      0.060450
     61 H26        -4.9820   -0.4030    6.3570 ha        1 2QK      0.155500
     62 H27        -2.9210   -1.7410    6.1110 ha        1 2QK      0.140000
     63 H28        -1.6520   -1.7630    4.2420 ha        1 2QK      0.174000
     64 H29         3.5520   -0.8470   -0.8380 ha        1 2QK      0.148000
     65 H30         5.9060   -0.2740   -1.3200 ha        1 2QK      0.162000
     66 H31         7.2730    0.9770    0.3600 ha        1 2QK      0.165000
     67 H32         6.2670    1.6280    2.5490 ha        1 2QK      0.172000
     68 H042        2.8250   -1.2950    3.0480 hn        1 2QK      0.454800
@<TRIPOS>BOND
     1    1    2 1   
     2    1   37 1   
     3    1   38 1   
     4    1   39 1   
     5    2    3 1   
     6    2   40 1   
     7    2   41 1   
     8    3    4 1   
     9    3   30 1   
    10    3   42 1   
    11    4    5 1   
    12    4   43 1   
    13    4   68 1   
    14    5    6 2   
    15    5    7 1   
    16    7    8 ar  
    17    7   29 ar  
    18    8    9 ar  
    19    8   44 1   
    20    9   10 ar  
    21    9   45 1   
    22   10   11 1   
    23   10   28 ar  
    24   11   12 1   
    25   11   46 1   
    26   12   13 2   
    27   13   14 1   
    28   13   28 1   
    29   14   15 ar  
    30   14   27 ar  
    31   15   16 ar  
    32   15   47 1   
    33   16   17 ar  
    34   16   48 1   
    35   17   18 1   
    36   17   26 ar  
    37   18   19 1   
    38   19   20 1   
    39   19   25 1   
    40   19   49 1   
    41   20   21 1   
    42   20   50 1   
    43   20   51 1   
    44   21   22 1   
    45   21   52 1   
    46   21   53 1   
    47   22   23 1   
    48   22   24 1   
    49   23   54 1   
    50   23   55 1   
    51   23   56 1   
    52   24   25 1   
    53   24   57 1   
    54   24   58 1   
    55   25   59 1   
    56   25   60 1   
    57   26   27 ar  
    58   26   61 1   
    59   27   62 1   
    60   28   29 ar  
    61   29   63 1   
    62   30   31 ar  
    63   30   35 ar  
    64   31   32 ar  
    65   31   64 1   
    66   32   33 ar  
    67   32   65 1   
    68   33   34 ar  
    69   33   66 1   
    70   34   35 ar  
    71   34   67 1   
    72   35   36 1   
@<TRIPOS>SUBSTRUCTURE
     1 2QK         1 TEMP              0 ****  ****    0 ROOT
