@<TRIPOS>MOLECULE
2QK
   68    72     1     0     0
SMALL
bcc


@<TRIPOS>ATOM
      1 C01        -0.2020   -0.5280    0.4130 c3        1 2QK     -0.115100
      2 C02         1.2810   -0.5190    0.1530 c3        1 2QK     -0.100400
      3 C03         2.0970   -0.2140    1.4120 c3        1 2QK      0.187800
      4 N04         2.0020   -1.3370    2.4250 n4        1 2QK     -0.675800
      5 C05         0.7660   -1.3010    3.3080 c         1 2QK      0.577700
      6 O06         0.2470   -0.2020    3.4690 o         1 2QK     -0.448100
      7 C07         0.3360   -2.5790    3.8590 ca        1 2QK     -0.265600
      8 C08         1.1960   -3.7030    3.9690 ca        1 2QK     -0.079000
      9 C09         0.7630   -4.9010    4.4950 ca        1 2QK     -0.127000
     10 C10        -0.5760   -4.9820    4.9300 ca        1 2QK     -0.001200
     11 N11        -1.3370   -6.0080    5.4680 na        1 2QK      0.015900
     12 N12        -2.5920   -5.6190    5.7450 nc        1 2QK     -0.488100
     13 C13        -2.7310   -4.3140    5.3940 cd        1 2QK      0.464500
     14 C14        -3.9500   -3.5410    5.5360 ca        1 2QK     -0.181900
     15 C15        -5.2020   -4.1430    5.3160 ca        1 2QK     -0.061500
     16 C16        -6.3690   -3.4080    5.4540 ca        1 2QK     -0.191000
     17 C17        -6.3000   -2.0480    5.8280 ca        1 2QK      0.170100
     18 O18        -7.5190   -1.4300    5.9340 os        1 2QK     -0.320900
     19 C19        -7.5480   -0.0750    6.4310 c3        1 2QK      0.140100
     20 C20        -8.9610    0.1320    6.9660 c3        1 2QK     -0.089900
     21 C21        -9.9950    0.2190    5.8490 c3        1 2QK      0.170300
     22 N22        -9.6500    1.2020    4.8290 n3        1 2QK     -0.731600
     23 C23       -10.6710    1.3210    3.8120 c3        1 2QK      0.156100
     24 C24        -8.3280    0.9680    4.2630 c3        1 2QK      0.170300
     25 C25        -7.2290    0.9170    5.3210 c3        1 2QK     -0.089900
     26 C26        -5.0540   -1.4430    6.0540 ca        1 2QK     -0.191000
     27 C27        -3.8920   -2.1930    5.9100 ca        1 2QK     -0.061500
     28 C28        -1.4580   -3.8290    4.8490 ca        1 2QK     -0.238900
     29 C29        -0.9930   -2.6400    4.3150 ca        1 2QK      0.059000
     30 C30         3.5460    0.0620    1.1240 ca        1 2QK     -0.172300
     31 C31         4.1370   -0.3180   -0.0860 ca        1 2QK     -0.091000
     32 C32         5.4640    0.0070   -0.3630 ca        1 2QK     -0.118000
     33 C33         6.2230    0.7130    0.5700 ca        1 2QK     -0.078000
     34 C34         5.6570    1.0880    1.7890 ca        1 2QK     -0.110000
     35 C35         4.3280    0.7570    2.0670 ca        1 2QK      0.016400
     36 CL          3.6790    1.2100    3.5740 cl        1 2QK     -0.076400
     37 H1         -0.5240    0.4030    0.9410 hc        1 2QK      0.055700
     38 H2         -0.5000   -1.4060    1.0380 hc        1 2QK      0.055700
     39 H3         -0.7540   -0.5910   -0.5580 hc        1 2QK      0.055700
     40 H4          1.5940   -1.4960   -0.3030 hc        1 2QK      0.078700
     41 H5          1.5230    0.2920   -0.5890 hc        1 2QK      0.078700
     42 H6          1.6420    0.7040    1.9090 hx        1 2QK      0.139700
     43 H7          2.8230   -1.2860    3.0430 hn        1 2QK      0.454800
     44 H8          2.2510   -3.6350    3.6610 ha        1 2QK      0.123000
     45 H9          1.4380   -5.7650    4.5810 ha        1 2QK      0.165000
     46 H10        -1.0420   -6.9330    5.6910 hn        1 2QK      0.347700
     47 H11        -5.2610   -5.2060    5.0340 ha        1 2QK      0.140000
     48 H12        -7.3540   -3.8680    5.2830 ha        1 2QK      0.155500
     49 H13        -6.8100    0.0270    7.2740 h1        1 2QK      0.051700
     50 H14        -9.2370   -0.7210    7.6390 hc        1 2QK      0.060450
     51 H15        -8.9610    1.0770    7.5690 hc        1 2QK      0.060450
     52 H16       -10.1210   -0.8120    5.4040 h1        1 2QK      0.039200
     53 H17       -10.9820    0.5260    6.2970 h1        1 2QK      0.039200
     54 H19       -10.3880    2.1510    3.1120 h1        1 2QK      0.035367
     55 H20       -11.6430    1.5820    4.3060 h1        1 2QK      0.035367
     56 H21       -10.8150    0.3800    3.2130 h1        1 2QK      0.035367
     57 H22        -8.1060    1.8140    3.5540 h1        1 2QK      0.039200
     58 H23        -8.2950    0.0040    3.6740 h1        1 2QK      0.039200
     59 H24        -6.2700    0.6330    4.8170 hc        1 2QK      0.060450
     60 H25        -7.0980    1.9290    5.7850 hc        1 2QK      0.060450
     61 H26        -4.9820   -0.3860    6.3490 ha        1 2QK      0.155500
     62 H27        -2.9180   -1.7200    6.1110 ha        1 2QK      0.140000
     63 H28        -1.6520   -1.7570    4.2410 ha        1 2QK      0.174000
     64 H29         3.5580   -0.8680   -0.8450 ha        1 2QK      0.148000
     65 H30         5.9110   -0.2920   -1.3250 ha        1 2QK      0.162000
     66 H31         7.2690    0.9790    0.3480 ha        1 2QK      0.165000
     67 H32         6.2550    1.6460    2.5280 ha        1 2QK      0.172000
     68 H042        2.0210   -2.2330    1.9290 hn        1 2QK      0.454800
@<TRIPOS>BOND
     1    1    2 1   
     2    1   37 1   
     3    1   38 1   
     4    1   39 1   
     5    2    3 1   
     6    2   40 1   
     7    2   41 1   
     8    3    4 1   
     9    3   30 1   
    10    3   42 1   
    11    4    5 1   
    12    4   43 1   
    13    4   68 1   
    14    5    6 2   
    15    5    7 1   
    16    7    8 ar  
    17    7   29 ar  
    18    8    9 ar  
    19    8   44 1   
    20    9   10 ar  
    21    9   45 1   
    22   10   11 1   
    23   10   28 ar  
    24   11   12 1   
    25   11   46 1   
    26   12   13 2   
    27   13   14 1   
    28   13   28 1   
    29   14   15 ar  
    30   14   27 ar  
    31   15   16 ar  
    32   15   47 1   
    33   16   17 ar  
    34   16   48 1   
    35   17   18 1   
    36   17   26 ar  
    37   18   19 1   
    38   19   20 1   
    39   19   25 1   
    40   19   49 1   
    41   20   21 1   
    42   20   50 1   
    43   20   51 1   
    44   21   22 1   
    45   21   52 1   
    46   21   53 1   
    47   22   23 1   
    48   22   24 1   
    49   23   54 1   
    50   23   55 1   
    51   23   56 1   
    52   24   25 1   
    53   24   57 1   
    54   24   58 1   
    55   25   59 1   
    56   25   60 1   
    57   26   27 ar  
    58   26   61 1   
    59   27   62 1   
    60   28   29 ar  
    61   29   63 1   
    62   30   31 ar  
    63   30   35 ar  
    64   31   32 ar  
    65   31   64 1   
    66   32   33 ar  
    67   32   65 1   
    68   33   34 ar  
    69   33   66 1   
    70   34   35 ar  
    71   34   67 1   
    72   35   36 1   
@<TRIPOS>SUBSTRUCTURE
     1 2QK         1 TEMP              0 ****  ****    0 ROOT
