@<TRIPOS>MOLECULE
2QL
   45    50     1     0     0
SMALL
bcc


@<TRIPOS>ATOM
      1 C14         0.0480   -0.0080    0.0550 c3        1 2QL     -0.075100
      2 C13         1.4740   -0.5090   -0.1600 c3        1 2QL      0.105100
      3 O13         2.1620    0.2860   -1.1180 oh        1 2QL     -0.609800
      4 C12         2.2770   -0.3890    1.1410 c3        1 2QL      0.126100
      5 O12         2.5110    0.9730    1.4690 oh        1 2QL     -0.597800
      6 C11         1.5280   -0.9950    2.3460 c3        1 2QL      0.183400
      7 O11         2.3140   -2.0330    2.9100 oh        1 2QL     -0.587800
      8 C16         0.1260   -1.4570    2.0600 ca        1 2QL     -0.122300
      9 C10        -0.4120   -2.4350    2.8870 ca        1 2QL     -0.101000
     10 C17        -1.7060   -2.9270    2.6580 ca        1 2QL     -0.038000
     11 C18        -2.5000   -2.3450    1.6420 ca        1 2QL     -0.008000
     12 C9         -2.2200   -4.0320    3.4180 ca        1 2QL     -0.112000
     13 C8         -3.4200   -4.5870    3.1150 ca        1 2QL     -0.116000
     14 C20        -4.2120   -4.0810    2.0280 ca        1 2QL     -0.032000
     15 C21        -3.7710   -2.9360    1.3190 ca        1 2QL     -0.015000
     16 C7         -5.4050   -4.7200    1.6470 ca        1 2QL     -0.114000
     17 C6         -6.1370   -4.2410    0.5740 ca        1 2QL     -0.126000
     18 C5         -5.7180   -3.0990   -0.1170 ca        1 2QL     -0.116000
     19 C22        -4.5590   -2.4170    0.2570 ca        1 2QL     -0.018000
     20 C23        -4.1610   -1.1570   -0.3510 ca        1 2QL     -0.018000
     21 C4         -5.0100   -0.4960   -1.2580 ca        1 2QL     -0.121000
     22 C3         -4.7230    0.7840   -1.7090 ca        1 2QL     -0.125000
     23 C2         -3.5950    1.4500   -1.2240 ca        1 2QL     -0.130000
     24 C1         -2.7330    0.8030   -0.3500 ca        1 2QL     -0.125000
     25 C24        -2.9530   -0.5310    0.0420 ca        1 2QL     -0.020000
     26 C19        -2.0080   -1.2340    0.9010 ca        1 2QL     -0.015000
     27 C15        -0.6530   -0.8890    1.0280 ca        1 2QL     -0.044300
     28 H14         0.1050    1.0460    0.4450 hc        1 2QL      0.070700
     29 H15        -0.4890    0.0030   -0.9300 hc        1 2QL      0.070700
     30 H13         1.4650   -1.5800   -0.5050 h1        1 2QL      0.050700
     31 HO13        1.6080    0.3220   -1.9060 ho        1 2QL      0.412000
     32 H12         3.2680   -0.9110    1.0130 h1        1 2QL      0.058700
     33 HO12        2.9140    1.3830    0.6910 ho        1 2QL      0.423000
     34 H11         1.4880   -0.2140    3.1670 h1        1 2QL      0.115700
     35 HO11        2.3220   -2.7660    2.2830 ho        1 2QL      0.399000
     36 H10         0.1930   -2.8480    3.7110 ha        1 2QL      0.152000
     37 H9         -1.6020   -4.4190    4.2440 ha        1 2QL      0.137000
     38 H8         -3.8150   -5.4420    3.6840 ha        1 2QL      0.136000
     39 H7         -5.7440   -5.6070    2.2030 ha        1 2QL      0.136000
     40 H6         -7.0590   -4.7540    0.2610 ha        1 2QL      0.135000
     41 H5         -6.3290   -2.7510   -0.9630 ha        1 2QL      0.134000
     42 H4         -5.9320   -0.9820   -1.6090 ha        1 2QL      0.134000
     43 H3         -5.3940    1.2820   -2.4240 ha        1 2QL      0.135000
     44 H2         -3.3970    2.4900   -1.5260 ha        1 2QL      0.135000
     45 H1         -1.8940    1.3730    0.0760 ha        1 2QL      0.140000
@<TRIPOS>BOND
     1    1    2 1   
     2    1   27 1   
     3    1   28 1   
     4    1   29 1   
     5    2    3 1   
     6    2    4 1   
     7    2   30 1   
     8    3   31 1   
     9    4    5 1   
    10    4    6 1   
    11    4   32 1   
    12    5   33 1   
    13    6    7 1   
    14    6    8 1   
    15    6   34 1   
    16    7   35 1   
    17    8    9 ar  
    18    8   27 ar  
    19    9   10 ar  
    20    9   36 1   
    21   10   11 ar  
    22   10   12 ar  
    23   11   15 ar  
    24   11   26 ar  
    25   12   13 ar  
    26   12   37 1   
    27   13   14 ar  
    28   13   38 1   
    29   14   15 ar  
    30   14   16 ar  
    31   15   19 ar  
    32   16   17 ar  
    33   16   39 1   
    34   17   18 ar  
    35   17   40 1   
    36   18   19 ar  
    37   18   41 1   
    38   19   20 ar  
    39   20   21 ar  
    40   20   25 ar  
    41   21   22 ar  
    42   21   42 1   
    43   22   23 ar  
    44   22   43 1   
    45   23   24 ar  
    46   23   44 1   
    47   24   25 ar  
    48   24   45 1   
    49   25   26 ar  
    50   26   27 ar  
@<TRIPOS>SUBSTRUCTURE
     1 2QL         1 TEMP              0 ****  ****    0 ROOT
