@<TRIPOS>MOLECULE
2QL
   45    50     1     0     0
SMALL
bcc


@<TRIPOS>ATOM
      1 C14         0.0470    0.0110    0.0630 c3        1 2QL     -0.075100
      2 C13         1.4370   -0.5660   -0.2070 c3        1 2QL      0.108100
      3 O13         2.1350    0.2030   -1.1780 oh        1 2QL     -0.610800
      4 C12         2.3010   -0.5320    1.0610 c3        1 2QL      0.156100
      5 O12         2.8010    0.7750    1.3060 oh        1 2QL     -0.604800
      6 C11         1.4890   -0.8990    2.3210 c3        1 2QL      0.186400
      7 O11         2.3020   -1.8240    3.0350 oh        1 2QL     -0.590800
      8 C16         0.1230   -1.4580    2.0410 ca        1 2QL     -0.108300
      9 C10        -0.3850   -2.4890    2.8160 ca        1 2QL     -0.101000
     10 C17        -1.6730   -2.9950    2.5690 ca        1 2QL     -0.035000
     11 C18        -2.4880   -2.3800    1.5910 ca        1 2QL     -0.011000
     12 C9         -2.1590   -4.1460    3.2780 ca        1 2QL     -0.114000
     13 C8         -3.3570   -4.7000    2.9670 ca        1 2QL     -0.115000
     14 C20        -4.1750   -4.1490    1.9220 ca        1 2QL     -0.033000
     15 C21        -3.7570   -2.9690    1.2600 ca        1 2QL     -0.013000
     16 C7         -5.3710   -4.7810    1.5340 ca        1 2QL     -0.113000
     17 C6         -6.1270   -4.2580    0.4990 ca        1 2QL     -0.127000
     18 C5         -5.7300   -3.0830   -0.1470 ca        1 2QL     -0.115000
     19 C22        -4.5680   -2.4090    0.2350 ca        1 2QL     -0.018000
     20 C23        -4.1880   -1.1240   -0.3290 ca        1 2QL     -0.017000
     21 C4         -5.0560   -0.4310   -1.1940 ca        1 2QL     -0.121000
     22 C3         -4.7770    0.8630   -1.6080 ca        1 2QL     -0.125000
     23 C2         -3.6370    1.5120   -1.1280 ca        1 2QL     -0.130000
     24 C1         -2.7580    0.8360   -0.2930 ca        1 2QL     -0.125000
     25 C24        -2.9730   -0.5090    0.0620 ca        1 2QL     -0.020000
     26 C19        -2.0160   -1.2350    0.8860 ca        1 2QL     -0.012000
     27 C15        -0.6680   -0.8770    1.0210 ca        1 2QL     -0.053300
     28 H14         0.1670    1.0440    0.4870 hc        1 2QL      0.068700
     29 H15        -0.5100    0.0850   -0.9080 hc        1 2QL      0.068700
     30 H13         1.3470   -1.6280   -0.5710 h1        1 2QL      0.056700
     31 HO13        1.5640    0.2650   -1.9530 ho        1 2QL      0.413000
     32 H12         3.1650   -1.2460    0.9440 h1        1 2QL      0.072700
     33 HO12        3.2600    1.0580    0.5040 ho        1 2QL      0.425000
     34 H11         1.3520    0.0430    2.9340 h1        1 2QL      0.072700
     35 HO11        2.0550   -1.7540    3.9650 ho        1 2QL      0.404000
     36 H10         0.2300   -2.9500    3.6040 ha        1 2QL      0.139000
     37 H9         -1.5210   -4.5690    4.0690 ha        1 2QL      0.136000
     38 H8         -3.7300   -5.5900    3.4970 ha        1 2QL      0.135000
     39 H7         -5.6910   -5.6960    2.0540 ha        1 2QL      0.135000
     40 H6         -7.0510   -4.7640    0.1800 ha        1 2QL      0.135000
     41 H5         -6.3590   -2.7020   -0.9650 ha        1 2QL      0.134000
     42 H4         -5.9860   -0.9050   -1.5410 ha        1 2QL      0.134000
     43 H3         -5.4630    1.3850   -2.2900 ha        1 2QL      0.135000
     44 H2         -3.4420    2.5590   -1.4010 ha        1 2QL      0.135000
     45 H1         -1.9040    1.3870    0.1290 ha        1 2QL      0.139000
@<TRIPOS>BOND
     1    1    2 1   
     2    1   27 1   
     3    1   28 1   
     4    1   29 1   
     5    2    3 1   
     6    2    4 1   
     7    2   30 1   
     8    3   31 1   
     9    4    5 1   
    10    4    6 1   
    11    4   32 1   
    12    5   33 1   
    13    6    7 1   
    14    6    8 1   
    15    6   34 1   
    16    7   35 1   
    17    8    9 ar  
    18    8   27 ar  
    19    9   10 ar  
    20    9   36 1   
    21   10   11 ar  
    22   10   12 ar  
    23   11   15 ar  
    24   11   26 ar  
    25   12   13 ar  
    26   12   37 1   
    27   13   14 ar  
    28   13   38 1   
    29   14   15 ar  
    30   14   16 ar  
    31   15   19 ar  
    32   16   17 ar  
    33   16   39 1   
    34   17   18 ar  
    35   17   40 1   
    36   18   19 ar  
    37   18   41 1   
    38   19   20 ar  
    39   20   21 ar  
    40   20   25 ar  
    41   21   22 ar  
    42   21   42 1   
    43   22   23 ar  
    44   22   43 1   
    45   23   24 ar  
    46   23   44 1   
    47   24   25 ar  
    48   24   45 1   
    49   25   26 ar  
    50   26   27 ar  
@<TRIPOS>SUBSTRUCTURE
     1 2QL         1 TEMP              0 ****  ****    0 ROOT
