@<TRIPOS>MOLECULE
2QM
   58    59     1     0     0
SMALL
bcc


@<TRIPOS>ATOM
      1 CAO        -1.0580   -0.1600    3.2040 ca        1 2QM     -0.057500
      2 CAI         0.0700   -0.7970    3.7090 ca        1 2QM     -0.191000
      3 CBB         0.3550   -0.7090    5.0820 ca        1 2QM      0.177100
      4 OAG         1.4450   -1.3010    5.6560 oh        1 2QM     -0.475100
      5 CAJ        -0.4900    0.0140    5.9480 ca        1 2QM     -0.191000
      6 CAP        -1.6130    0.6380    5.4280 ca        1 2QM     -0.057500
      7 CBE        -1.9020    0.5620    4.0560 ca        1 2QM     -0.214300
      8 CBG        -3.1220    1.2190    3.5040 c3        1 2QM      0.107800
      9 CAY        -4.3640    0.9550    4.3940 c         1 2QM      0.918600
     10 OAF        -4.5770    1.7070    5.3960 o         1 2QM     -0.826300
     11 OAB        -5.1480    0.0260    4.0630 o         1 2QM     -0.826300
     12 NAW        -2.8910    2.7200    3.4100 ny        1 2QM     -0.645800
     13 CAZ        -3.5700    3.3320    2.2320 c         1 2QM      0.669100
     14 OAC        -3.2580    3.0960    1.0770 o         1 2QM     -0.401000
     15 N          -5.7990    1.8990    1.7900 n8        1 2QM     -0.979800
     16 CA         -6.5970    3.0230    2.2050 c3        1 2QM      0.133500
     17 C          -5.7800    4.3130    2.1300 c         1 2QM      0.658100
     18 O          -6.1190    5.4430    1.8470 o         1 2QM     -0.381000
     19 OXT        -4.4390    4.3000    2.6110 os        1 2QM     -0.475200
     20 CB         -7.1150    2.9550    3.6540 c3        1 2QM     -0.108400
     21 CAR        -8.0760    1.8070    3.8800 c3        1 2QM     -0.092400
     22 CAQ        -8.6010    1.8260    5.3050 c3        1 2QM     -0.101400
     23 CAS        -8.2990    0.5640    6.1000 c3        1 2QM      0.118800
     24 NAU        -6.8460    0.3030    6.3020 ny        1 2QM     -0.691800
     25 CBA        -6.6290   -0.6410    7.4510 c         1 2QM      0.573700
     26 OAD        -7.1130   -1.7610    7.3230 o         1 2QM     -0.441100
     27 CBD        -5.8990   -0.1280    8.6170 ca        1 2QM     -0.182600
     28 CAM        -4.8640    0.8090    8.5140 ca        1 2QM     -0.077500
     29 CAK        -4.2070    1.2370    9.6660 ca        1 2QM     -0.104000
     30 CBC        -4.5710    0.7370   10.9190 ca        1 2QM      0.069900
     31 IAH        -3.6160    1.3750   12.5790 i         1 2QM     -0.077900
     32 CAL        -5.5920   -0.2100   11.0170 ca        1 2QM     -0.104000
     33 CAN        -6.2530   -0.6500    9.8730 ca        1 2QM     -0.077500
     34 H1         -1.2870   -0.2370    2.1290 ha        1 2QM      0.149500
     35 H2          0.7300   -1.3700    3.0400 ha        1 2QM      0.161500
     36 H3          1.9360   -1.7820    4.9710 ho        1 2QM      0.438000
     37 H4         -0.2490    0.0630    7.0200 ha        1 2QM      0.161500
     38 H5         -2.3010    1.1860    6.0960 ha        1 2QM      0.149500
     39 H6         -3.3380    0.8420    2.4590 hx        1 2QM      0.129700
     40 H8         -3.2560    3.1470    4.2800 hn        1 2QM      0.474800
     41 H9         -5.9200    1.6900    0.8210 hn        1 2QM      0.407800
     42 H10        -7.4810    3.1960    1.5150 h1        1 2QM      0.091700
     43 H12        -6.2430    2.8560    4.3580 hc        1 2QM      0.077700
     44 H13        -7.6330    3.9270    3.8760 hc        1 2QM      0.077700
     45 H14        -7.5690    0.8280    3.6640 hc        1 2QM      0.064700
     46 H15        -8.9360    1.8930    3.1640 hc        1 2QM      0.064700
     47 H16        -8.2070    2.7220    5.8580 hc        1 2QM      0.078700
     48 H17        -9.7220    1.9240    5.2890 hc        1 2QM      0.078700
     49 H18        -8.7810    0.6560    7.1160 hx        1 2QM      0.099200
     50 H19        -8.7340   -0.3400    5.5830 hx        1 2QM      0.099200
     51 H20        -6.3240    1.1850    6.4420 hn        1 2QM      0.493800
     52 H21        -4.5290    1.2000    7.5340 ha        1 2QM      0.170500
     53 H22        -3.3930    1.9760    9.5750 ha        1 2QM      0.167500
     54 H23        -5.8820   -0.6250   11.9980 ha        1 2QM      0.167500
     55 H24        -7.0480   -1.4110    9.9490 ha        1 2QM      0.170500
     56 HAW2       -1.8830    2.9010    3.3360 hn        1 2QM      0.474800
     57 H25        -5.9300    1.0860    2.3610 hn        1 2QM      0.407800
     58 HAU2       -6.4450   -0.1270    5.4330 hn        1 2QM      0.493800
@<TRIPOS>BOND
     1    1    2 ar  
     2    1    7 ar  
     3    1   34 1   
     4    2    3 ar  
     5    2   35 1   
     6    3    4 1   
     7    3    5 ar  
     8    4   36 1   
     9    5    6 ar  
    10    5   37 1   
    11    6    7 ar  
    12    6   38 1   
    13    7    8 1   
    14    8    9 1   
    15    8   12 1   
    16    8   39 1   
    17    9   10 1   
    18    9   11 1   
    19   12   13 1   
    20   12   40 1   
    21   12   56 1   
    22   13   14 2   
    23   13   19 1   
    24   15   16 1   
    25   15   41 1   
    26   15   57 1   
    27   16   17 1   
    28   16   20 1   
    29   16   42 1   
    30   17   18 2   
    31   17   19 1   
    32   20   21 1   
    33   20   43 1   
    34   20   44 1   
    35   21   22 1   
    36   21   45 1   
    37   21   46 1   
    38   22   23 1   
    39   22   47 1   
    40   22   48 1   
    41   23   24 1   
    42   23   49 1   
    43   23   50 1   
    44   24   25 1   
    45   24   51 1   
    46   24   58 1   
    47   25   26 2   
    48   25   27 1   
    49   27   28 ar  
    50   27   33 ar  
    51   28   29 ar  
    52   28   52 1   
    53   29   30 ar  
    54   29   53 1   
    55   30   31 1   
    56   30   32 ar  
    57   32   33 ar  
    58   32   54 1   
    59   33   55 1   
@<TRIPOS>SUBSTRUCTURE
     1 2QM         1 TEMP              0 ****  ****    0 ROOT
