@<TRIPOS>MOLECULE
2QM
   58    59     1     0     0
SMALL
bcc


@<TRIPOS>ATOM
      1 CAO        -1.0650   -0.2550    3.0840 ca        1 2QM     -0.056500
      2 CAI         0.0460   -0.9510    3.5390 ca        1 2QM     -0.191000
      3 CBB         0.3310   -0.9620    4.9190 ca        1 2QM      0.177100
      4 OAG         1.4420   -1.6600    5.3010 oh        1 2QM     -0.473100
      5 CAJ        -0.4970   -0.2830    5.8300 ca        1 2QM     -0.191000
      6 CAP        -1.6080    0.4050    5.3560 ca        1 2QM     -0.056500
      7 CBE        -1.8960    0.4280    3.9860 ca        1 2QM     -0.214300
      8 CBG        -3.0980    1.1470    3.4730 c3        1 2QM      0.107800
      9 CAY        -4.3400    0.9010    4.3650 c         1 2QM      0.918600
     10 OAF        -4.5200    1.6270    5.3920 o         1 2QM     -0.826800
     11 OAB        -5.1610    0.0120    4.0120 o         1 2QM     -0.826800
     12 NAW        -2.8110    2.6410    3.4250 n4        1 2QM     -0.645800
     13 CAZ        -3.4850    3.3170    2.2790 c         1 2QM      0.669100
     14 OAC        -3.1910    3.1190    1.1120 o         1 2QM     -0.400000
     15 N          -5.7600    1.9690    1.7980 n3        1 2QM     -0.979800
     16 CA         -6.5220    3.1000    2.2570 c3        1 2QM      0.134500
     17 C          -5.6650    4.3660    2.2310 c         1 2QM      0.658100
     18 O          -5.9710    5.5170    1.9960 o         1 2QM     -0.381000
     19 OXT        -4.3240    4.2920    2.7050 os        1 2QM     -0.475200
     20 CB         -7.0430    2.9920    3.7030 c3        1 2QM     -0.108400
     21 CAR        -8.0410    1.8690    3.8830 c3        1 2QM     -0.092400
     22 CAQ        -8.5760    1.8550    5.3040 c3        1 2QM     -0.101400
     23 CAS        -8.2900    0.5700    6.0670 c3        1 2QM      0.118800
     24 NAU        -6.8400    0.2810    6.2570 n4        1 2QM     -0.691800
     25 CBA        -6.6310   -0.6650    7.4060 c         1 2QM      0.573700
     26 OAD        -7.0840   -1.7960    7.2600 o         1 2QM     -0.439100
     27 CBD        -5.9470   -0.1390    8.5950 ca        1 2QM     -0.182600
     28 CAM        -4.9140    0.8030    8.5180 ca        1 2QM     -0.078500
     29 CAK        -4.3000    1.2460    9.6900 ca        1 2QM     -0.104000
     30 CBC        -4.7050    0.7540   10.9330 ca        1 2QM      0.068900
     31 IAH        -3.8120    1.4130   12.6190 i         1 2QM     -0.077900
     32 CAL        -5.7230   -0.1980   11.0040 ca        1 2QM     -0.104000
     33 CAN        -6.3410   -0.6510    9.8410 ca        1 2QM     -0.078500
     34 H1         -1.2980   -0.2540    2.0070 ha        1 2QM      0.150000
     35 H2          0.7040   -1.4970    2.8460 ha        1 2QM      0.161500
     36 H3          1.5240   -1.6130    6.2670 ho        1 2QM      0.435000
     37 H4         -0.2710   -0.3020    6.9050 ha        1 2QM      0.161500
     38 H5         -2.2800    0.9230    6.0620 ha        1 2QM      0.150000
     39 H6         -3.3370    0.8130    2.4180 hx        1 2QM      0.130700
     40 H8         -1.7990    2.7870    3.3390 hn        1 2QM      0.474300
     41 H9         -5.9120    1.1400    2.3400 hn        1 2QM      0.408300
     42 H10        -7.4000    3.3270    1.5750 h1        1 2QM      0.091700
     43 H12        -6.1740    2.8360    4.4020 hc        1 2QM      0.077200
     44 H13        -7.5270    3.9720    3.9640 hc        1 2QM      0.077200
     45 H14        -7.5660    0.8830    3.6340 hc        1 2QM      0.065200
     46 H15        -8.8940    2.0100    3.1660 hc        1 2QM      0.065200
     47 H16        -9.6950    1.9620    5.2840 hc        1 2QM      0.079200
     48 H17        -8.1790    2.7320    5.8840 hc        1 2QM      0.079200
     49 H18        -8.7400   -0.3150    5.5300 hx        1 2QM      0.098700
     50 H19        -8.7680    0.6450    7.0870 hx        1 2QM      0.098700
     51 H20        -6.4550   -0.1570    5.3860 hn        1 2QM      0.494300
     52 H21        -4.5480    1.1860    7.5470 ha        1 2QM      0.170500
     53 H22        -3.4880    1.9890    9.6210 ha        1 2QM      0.167500
     54 H23        -6.0450   -0.6060   11.9780 ha        1 2QM      0.167500
     55 H24        -7.1340   -1.4170    9.8960 ha        1 2QM      0.170500
     56 HAW2       -3.1470    3.0520    4.3140 hn        1 2QM      0.474300
     57 H25        -5.8910    1.7980    0.8230 hn        1 2QM      0.408300
     58 HAU2       -6.3000    1.1530    6.3920 hn        1 2QM      0.494300
@<TRIPOS>BOND
     1    1    2 ar  
     2    1    7 ar  
     3    1   34 1   
     4    2    3 ar  
     5    2   35 1   
     6    3    4 1   
     7    3    5 ar  
     8    4   36 1   
     9    5    6 ar  
    10    5   37 1   
    11    6    7 ar  
    12    6   38 1   
    13    7    8 1   
    14    8    9 1   
    15    8   12 1   
    16    8   39 1   
    17    9   10 1   
    18    9   11 1   
    19   12   13 1   
    20   12   40 1   
    21   12   56 1   
    22   13   14 2   
    23   13   19 1   
    24   15   16 1   
    25   15   41 1   
    26   15   57 1   
    27   16   17 1   
    28   16   20 1   
    29   16   42 1   
    30   17   18 2   
    31   17   19 1   
    32   20   21 1   
    33   20   43 1   
    34   20   44 1   
    35   21   22 1   
    36   21   45 1   
    37   21   46 1   
    38   22   23 1   
    39   22   47 1   
    40   22   48 1   
    41   23   24 1   
    42   23   49 1   
    43   23   50 1   
    44   24   25 1   
    45   24   51 1   
    46   24   58 1   
    47   25   26 2   
    48   25   27 1   
    49   27   28 ar  
    50   27   33 ar  
    51   28   29 ar  
    52   28   52 1   
    53   29   30 ar  
    54   29   53 1   
    55   30   31 1   
    56   30   32 ar  
    57   32   33 ar  
    58   32   54 1   
    59   33   55 1   
@<TRIPOS>SUBSTRUCTURE
     1 2QM         1 TEMP              0 ****  ****    0 ROOT
