@<TRIPOS>MOLECULE
2QM
   58    59     1     0     0
SMALL
bcc


@<TRIPOS>ATOM
      1 CAO        -1.1080   -0.2370    3.1660 ca        1 2QM     -0.057500
      2 CAI         0.0520   -0.8870    3.5570 ca        1 2QM     -0.192000
      3 CBB         0.4730   -0.7920    4.8990 ca        1 2QM      0.178100
      4 OAG         1.6280   -1.4500    5.2180 oh        1 2QM     -0.473100
      5 CAJ        -0.2720   -0.0550    5.8350 ca        1 2QM     -0.192000
      6 CAP        -1.4360    0.5850    5.4260 ca        1 2QM     -0.057500
      7 CBE        -1.8590    0.5040    4.0930 ca        1 2QM     -0.215300
      8 CBG        -3.1140    1.1740    3.6470 c3        1 2QM      0.106800
      9 CAY        -4.2740    0.9940    4.6610 c         1 2QM      0.918600
     10 OAF        -4.2820    1.7200    5.7010 o         1 2QM     -0.823300
     11 OAB        -5.1930    0.1770    4.3880 o         1 2QM     -0.823300
     12 NAW        -2.8530    2.6660    3.4830 n4        1 2QM     -0.641800
     13 CAZ        -3.7920    3.3030    2.5180 c         1 2QM      0.668100
     14 OAC        -3.5500    3.4180    1.3270 o         1 2QM     -0.416000
     15 N          -5.7460    1.5930    1.7680 n3        1 2QM     -0.972800
     16 CA         -6.6940    2.6700    1.8430 c3        1 2QM      0.130500
     17 C          -6.1520    3.8670    2.6130 c         1 2QM      0.662100
     18 O          -6.7180    4.8960    2.9330 o         1 2QM     -0.406000
     19 OXT        -4.8380    3.8740    3.1590 os        1 2QM     -0.461200
     20 CB         -8.0870    2.3330    2.4090 c3        1 2QM     -0.105400
     21 CAR        -8.1260    1.6060    3.7360 c3        1 2QM     -0.102400
     22 CAQ        -7.8060    2.5060    4.9100 c3        1 2QM     -0.106400
     23 CAS        -7.9700    1.7850    6.2420 c3        1 2QM      0.119800
     24 NAU        -6.8180    0.8980    6.5700 n4        1 2QM     -0.691800
     25 CBA        -7.0930    0.0350    7.7640 c         1 2QM      0.572700
     26 OAD        -8.1610   -0.5710    7.7580 o         1 2QM     -0.455100
     27 CBD        -6.0840    0.0020    8.8300 ca        1 2QM     -0.182600
     28 CAM        -4.7340    0.3160    8.6270 ca        1 2QM     -0.071500
     29 CAK        -3.8420    0.2420    9.6960 ca        1 2QM     -0.106000
     30 CBC        -4.2810   -0.1420   10.9650 ca        1 2QM      0.072900
     31 IAH        -2.9760   -0.2340   12.5020 i         1 2QM     -0.080900
     32 CAL        -5.6250   -0.4650   11.1640 ca        1 2QM     -0.106000
     33 CAN        -6.5250   -0.4000   10.1030 ca        1 2QM     -0.071500
     34 H1         -1.4450   -0.3180    2.1200 ha        1 2QM      0.151000
     35 H2          0.6480   -1.4780    2.8440 ha        1 2QM      0.161500
     36 H3          1.8060   -1.3270    6.1640 ho        1 2QM      0.436000
     37 H4          0.0610    0.0090    6.8810 ha        1 2QM      0.161500
     38 H5         -2.0450    1.1470    6.1560 ha        1 2QM      0.151000
     39 H6         -3.4320    0.7720    2.6400 hx        1 2QM      0.124700
     40 H8         -2.9790    3.0970    4.4170 hn        1 2QM      0.476800
     41 H9         -5.7150    1.1900    0.8540 hn        1 2QM      0.404800
     42 H10        -6.8600    3.0860    0.7960 h1        1 2QM      0.109700
     43 H12        -8.6680    3.2910    2.4900 hc        1 2QM      0.079200
     44 H13        -8.6020    1.6900    1.6430 hc        1 2QM      0.079200
     45 H14        -9.1660    1.1960    3.8650 hc        1 2QM      0.067200
     46 H15        -7.4320    0.7220    3.7320 hc        1 2QM      0.067200
     47 H16        -6.7630    2.9170    4.8110 hc        1 2QM      0.079700
     48 H17        -8.5080    3.3840    4.9180 hc        1 2QM      0.079700
     49 H18        -8.9050    1.1530    6.2280 hx        1 2QM      0.100700
     50 H19        -8.0600    2.5420    7.0730 hx        1 2QM      0.100700
     51 H20        -6.6040    0.2860    5.7500 hn        1 2QM      0.496300
     52 H21        -4.3400    0.6050    7.6340 ha        1 2QM      0.171000
     53 H22        -2.7820    0.4920    9.5250 ha        1 2QM      0.166000
     54 H23        -5.9870   -0.7780   12.1580 ha        1 2QM      0.166000
     55 H24        -7.5850   -0.6680   10.2580 ha        1 2QM      0.171000
     56 HAW2       -1.8930    2.8100    3.1530 hn        1 2QM      0.476800
     57 H25        -5.8850    0.8880    2.4680 hn        1 2QM      0.404800
     58 HAU2       -5.9650    1.4760    6.7130 hn        1 2QM      0.496300
@<TRIPOS>BOND
     1    1    2 ar  
     2    1    7 ar  
     3    1   34 1   
     4    2    3 ar  
     5    2   35 1   
     6    3    4 1   
     7    3    5 ar  
     8    4   36 1   
     9    5    6 ar  
    10    5   37 1   
    11    6    7 ar  
    12    6   38 1   
    13    7    8 1   
    14    8    9 1   
    15    8   12 1   
    16    8   39 1   
    17    9   10 1   
    18    9   11 1   
    19   12   13 1   
    20   12   40 1   
    21   12   56 1   
    22   13   14 2   
    23   13   19 1   
    24   15   16 1   
    25   15   41 1   
    26   15   57 1   
    27   16   17 1   
    28   16   20 1   
    29   16   42 1   
    30   17   18 2   
    31   17   19 1   
    32   20   21 1   
    33   20   43 1   
    34   20   44 1   
    35   21   22 1   
    36   21   45 1   
    37   21   46 1   
    38   22   23 1   
    39   22   47 1   
    40   22   48 1   
    41   23   24 1   
    42   23   49 1   
    43   23   50 1   
    44   24   25 1   
    45   24   51 1   
    46   24   58 1   
    47   25   26 2   
    48   25   27 1   
    49   27   28 ar  
    50   27   33 ar  
    51   28   29 ar  
    52   28   52 1   
    53   29   30 ar  
    54   29   53 1   
    55   30   31 1   
    56   30   32 ar  
    57   32   33 ar  
    58   32   54 1   
    59   33   55 1   
@<TRIPOS>SUBSTRUCTURE
     1 2QM         1 TEMP              0 ****  ****    0 ROOT
