@<TRIPOS>MOLECULE
2QN
   59    60     1     0     0
SMALL
bcc


@<TRIPOS>ATOM
      1 CAN        -2.3880    1.3230    0.4750 ca        1 2QN     -0.077500
      2 CAL        -1.4460    2.3360    0.6430 ca        1 2QN     -0.103000
      3 CBC        -1.6440    3.3250    1.6100 ca        1 2QN      0.069900
      4 IAG        -0.2780    4.7900    1.8550 i         1 2QN     -0.075900
      5 CAM        -2.7940    3.3000    2.4030 ca        1 2QN     -0.103000
      6 CAO        -3.7400    2.2880    2.2480 ca        1 2QN     -0.077500
      7 CBE        -3.5320    1.2890    1.2890 ca        1 2QN     -0.184600
      8 CBB        -4.4900    0.2020    1.0510 c         1 2QN      0.573700
      9 OAD        -4.7180   -0.3560   -0.0170 o         1 2QN     -0.440100
     10 NAV        -5.2520   -0.3190    2.2390 n4        1 2QN     -0.690800
     11 CAR        -4.8680   -1.7280    2.5350 c3        1 2QN      0.117800
     12 CAP        -5.1900   -2.1790    3.9520 c3        1 2QN     -0.101400
     13 CAQ        -6.6680   -2.1440    4.3000 c3        1 2QN     -0.092400
     14 CB         -6.9240   -1.1790    5.4380 c3        1 2QN     -0.110400
     15 CA         -8.4020   -1.1440    5.8690 c3        1 2QN      0.134500
     16 C          -8.4370   -0.2550    7.1110 c         1 2QN      0.658100
     17 OXT        -8.4890    1.1610    6.9400 os        1 2QN     -0.472200
     18 O          -8.2850   -0.5330    8.2820 o         1 2QN     -0.379000
     19 N          -9.3170   -0.6550    4.8710 n3        1 2QN     -0.979800
     20 CBA        -9.3850    1.7280    6.1000 c         1 2QN      0.672100
     21 OAC       -10.5940    1.5930    6.1760 o         1 2QN     -0.395000
     22 NAX        -8.7230    2.7060    5.1840 n4        1 2QN     -0.640800
     23 CBG        -8.8950    2.3370    3.7320 c3        1 2QN      0.032500
     24 CAZ        -7.7130    1.4470    3.2750 c         1 2QN      0.912600
     25 OAF        -7.9460    0.5310    2.4420 o         1 2QN     -0.822800
     26 OAB        -6.5630    1.6510    3.7710 o         1 2QN     -0.822800
     27 CAT        -8.9470    3.5760    2.8350 c3        1 2QN     -0.057100
     28 CBD       -10.0300    4.5150    3.2320 ca        1 2QN     -0.097300
     29 CAJ        -9.7440    5.6460    4.0090 ca        1 2QN     -0.256300
     30 CAH       -10.7980    6.5150    4.3460 ca        1 2QN      0.415700
     31 NAU       -12.0750    6.3160    3.9650 nb        1 2QN     -0.636000
     32 CAI       -12.3350    5.2280    3.2160 ca        1 2QN      0.415700
     33 CAK       -11.3510    4.3000    2.8240 ca        1 2QN     -0.256300
     34 H1         -2.2400    0.5520   -0.3010 ha        1 2QN      0.170500
     35 H2         -0.5500    2.3490    0.0010 ha        1 2QN      0.168000
     36 H3         -2.9670    4.0840    3.1590 ha        1 2QN      0.168000
     37 H4         -4.6550    2.3170    2.8680 ha        1 2QN      0.170500
     38 H5         -6.2770   -0.2740    2.0260 hn        1 2QN      0.492800
     39 H6         -3.7560   -1.8290    2.3710 hx        1 2QN      0.099700
     40 H7         -5.3970   -2.3840    1.7840 hx        1 2QN      0.099700
     41 H8         -4.5980   -1.5660    4.6850 hc        1 2QN      0.080200
     42 H9         -4.8120   -3.2350    4.0360 hc        1 2QN      0.080200
     43 H10        -7.2730   -1.8550    3.3990 hc        1 2QN      0.064200
     44 H11        -7.0040   -3.1720    4.6010 hc        1 2QN      0.064200
     45 H12        -6.3160   -1.4840    6.3320 hc        1 2QN      0.078200
     46 H13        -6.6000   -0.1450    5.1330 hc        1 2QN      0.078200
     47 H14        -8.6920   -2.1770    6.2420 h1        1 2QN      0.092700
     48 H16       -10.2060   -1.1080    4.9230 hn        1 2QN      0.407300
     49 H17        -7.7070    2.7290    5.3850 hn        1 2QN      0.478300
     50 H18        -9.8630    1.7600    3.6350 hx        1 2QN      0.131700
     51 H20        -9.1220    3.2010    1.7880 hc        1 2QN      0.095200
     52 H21        -7.9520    4.0960    2.8430 hc        1 2QN      0.095200
     53 H22        -8.7160    5.8850    4.3140 ha        1 2QN      0.147500
     54 H23       -10.6130    7.4240    4.9490 h4        1 2QN      0.041600
     55 H24       -13.3910    5.0950    2.9100 h4        1 2QN      0.041600
     56 H25       -11.6200    3.4350    2.2030 ha        1 2QN      0.147500
     57 HAV2       -5.1100    0.2880    3.0640 hn        1 2QN      0.492800
     58 H26        -8.9430   -0.6830    3.9420 hn        1 2QN      0.407300
     59 HAX2       -9.1340    3.6360    5.3480 hn        1 2QN      0.478300
@<TRIPOS>BOND
     1    1    2 ar  
     2    1    7 ar  
     3    1   34 1   
     4    2    3 ar  
     5    2   35 1   
     6    3    4 1   
     7    3    5 ar  
     8    5    6 ar  
     9    5   36 1   
    10    6    7 ar  
    11    6   37 1   
    12    7    8 1   
    13    8    9 2   
    14    8   10 1   
    15   10   11 1   
    16   10   38 1   
    17   10   57 1   
    18   11   12 1   
    19   11   39 1   
    20   11   40 1   
    21   12   13 1   
    22   12   41 1   
    23   12   42 1   
    24   13   14 1   
    25   13   43 1   
    26   13   44 1   
    27   14   15 1   
    28   14   45 1   
    29   14   46 1   
    30   15   16 1   
    31   15   19 1   
    32   15   47 1   
    33   16   17 1   
    34   16   18 2   
    35   17   20 1   
    36   19   48 1   
    37   19   58 1   
    38   20   21 2   
    39   20   22 1   
    40   22   23 1   
    41   22   49 1   
    42   22   59 1   
    43   23   24 1   
    44   23   27 1   
    45   23   50 1   
    46   24   25 1   
    47   24   26 1   
    48   27   28 1   
    49   27   51 1   
    50   27   52 1   
    51   28   29 ar  
    52   28   33 ar  
    53   29   30 ar  
    54   29   53 1   
    55   30   31 ar  
    56   30   54 1   
    57   31   32 ar  
    58   32   33 ar  
    59   32   55 1   
    60   33   56 1   
@<TRIPOS>SUBSTRUCTURE
     1 2QN         1 TEMP              0 ****  ****    0 ROOT
