@<TRIPOS>MOLECULE
2QN
   59    60     1     0     0
SMALL
bcc


@<TRIPOS>ATOM
      1 CAN        -2.4070    1.3420    0.4470 ca        1 2QN     -0.077500
      2 CAL        -1.4540    2.3420    0.6310 ca        1 2QN     -0.103000
      3 CBC        -1.6360    3.3110    1.6200 ca        1 2QN      0.069900
      4 IAG        -0.2540    4.7580    1.8890 i         1 2QN     -0.075900
      5 CAM        -2.7820    3.2800    2.4200 ca        1 2QN     -0.103000
      6 CAO        -3.7390    2.2820    2.2480 ca        1 2QN     -0.077500
      7 CBE        -3.5460    1.3010    1.2670 ca        1 2QN     -0.184600
      8 CBB        -4.5160    0.2290    1.0110 c         1 2QN      0.573700
      9 OAD        -4.7560   -0.3030   -0.0670 o         1 2QN     -0.440100
     10 NAV        -5.2770   -0.3090    2.1910 n4        1 2QN     -0.690800
     11 CAR        -4.9080   -1.7280    2.4540 c3        1 2QN      0.117800
     12 CAP        -5.2280   -2.2070    3.8630 c3        1 2QN     -0.101400
     13 CAQ        -6.7030   -2.1640    4.2180 c3        1 2QN     -0.092400
     14 CB         -6.9430   -1.2230    5.3790 c3        1 2QN     -0.110400
     15 CA         -8.4190   -1.1810    5.8190 c3        1 2QN      0.134500
     16 C          -8.4390   -0.3190    7.0810 c         1 2QN      0.658100
     17 OXT        -8.4750    1.1000    6.9420 os        1 2QN     -0.472200
     18 O          -8.2840   -0.6260    8.2440 o         1 2QN     -0.379000
     19 N          -9.3330   -0.6600    4.8370 n3        1 2QN     -0.979800
     20 CBA        -9.3690    1.6960    6.1190 c         1 2QN      0.672100
     21 OAC       -10.5790    1.5720    6.1980 o         1 2QN     -0.395000
     22 NAX        -8.7010    2.6870    5.2210 n4        1 2QN     -0.640800
     23 CBG        -8.8840    2.3520    3.7630 c3        1 2QN      0.032500
     24 CAZ        -7.7140    1.4600    3.2800 c         1 2QN      0.912600
     25 OAF        -7.9610    0.5650    2.4270 o         1 2QN     -0.822800
     26 OAB        -6.5600    1.6400    3.7740 o         1 2QN     -0.822800
     27 CAT        -8.9270    3.6120    2.8940 c3        1 2QN     -0.057100
     28 CBD        -9.9960    4.5540    3.3170 ca        1 2QN     -0.097300
     29 CAJ        -9.6930    5.6640    4.1180 ca        1 2QN     -0.256300
     30 CAH       -10.7360    6.5370    4.4800 ca        1 2QN      0.415700
     31 NAU       -12.0160    6.3610    4.1020 nb        1 2QN     -0.636000
     32 CAI       -12.2930    5.2930    3.3300 ca        1 2QN      0.415700
     33 CAK       -11.3220    4.3630    2.9120 ca        1 2QN     -0.256300
     34 H1         -2.2710    0.5870   -0.3460 ha        1 2QN      0.170500
     35 H2         -0.5610    2.3600   -0.0160 ha        1 2QN      0.168000
     36 H3         -2.9430    4.0490    3.1940 ha        1 2QN      0.168000
     37 H4         -4.6500    2.3060    2.8740 ha        1 2QN      0.170500
     38 H5         -6.3030   -0.2480    1.9850 hn        1 2QN      0.492800
     39 H6         -5.4480   -2.3620    1.6920 hx        1 2QN      0.099700
     40 H7         -3.7980   -1.8380    2.2820 hx        1 2QN      0.099700
     41 H8         -4.6260   -1.6170    4.6060 hc        1 2QN      0.080200
     42 H9         -4.8610   -3.2690    3.9210 hc        1 2QN      0.080200
     43 H10        -7.3100   -1.8490    3.3270 hc        1 2QN      0.064200
     44 H11        -7.0490   -3.1950    4.4980 hc        1 2QN      0.064200
     45 H12        -6.3340   -1.5540    6.2630 hc        1 2QN      0.078200
     46 H13        -6.6090   -0.1860    5.0960 hc        1 2QN      0.078200
     47 H14        -8.7180   -2.2190    6.1690 h1        1 2QN      0.092700
     48 H16        -8.9640   -0.6710    3.9050 hn        1 2QN      0.407300
     49 H17        -7.6830    2.6940    5.4180 hn        1 2QN      0.478300
     50 H18        -9.8580    1.7880    3.6580 hx        1 2QN      0.131700
     51 H20        -7.9250    4.1210    2.9080 hc        1 2QN      0.095200
     52 H21        -9.1110    3.2620    1.8390 hc        1 2QN      0.095200
     53 H22        -8.6610    5.8830    4.4230 ha        1 2QN      0.147500
     54 H23       -10.5370    7.4300    5.1030 h4        1 2QN      0.041600
     55 H24       -13.3510    5.1800    3.0260 h4        1 2QN      0.041600
     56 H25       -11.6040    3.5160    2.2730 ha        1 2QN      0.147500
     57 HAV2       -5.1240    0.2780    3.0290 hn        1 2QN      0.492800
     58 H26       -10.2270   -1.1040    4.8820 hn        1 2QN      0.407300
     59 HAX2       -9.1010    3.6180    5.4090 hn        1 2QN      0.478300
@<TRIPOS>BOND
     1    1    2 ar  
     2    1    7 ar  
     3    1   34 1   
     4    2    3 ar  
     5    2   35 1   
     6    3    4 1   
     7    3    5 ar  
     8    5    6 ar  
     9    5   36 1   
    10    6    7 ar  
    11    6   37 1   
    12    7    8 1   
    13    8    9 2   
    14    8   10 1   
    15   10   11 1   
    16   10   38 1   
    17   10   57 1   
    18   11   12 1   
    19   11   39 1   
    20   11   40 1   
    21   12   13 1   
    22   12   41 1   
    23   12   42 1   
    24   13   14 1   
    25   13   43 1   
    26   13   44 1   
    27   14   15 1   
    28   14   45 1   
    29   14   46 1   
    30   15   16 1   
    31   15   19 1   
    32   15   47 1   
    33   16   17 1   
    34   16   18 2   
    35   17   20 1   
    36   19   48 1   
    37   19   58 1   
    38   20   21 2   
    39   20   22 1   
    40   22   23 1   
    41   22   49 1   
    42   22   59 1   
    43   23   24 1   
    44   23   27 1   
    45   23   50 1   
    46   24   25 1   
    47   24   26 1   
    48   27   28 1   
    49   27   51 1   
    50   27   52 1   
    51   28   29 ar  
    52   28   33 ar  
    53   29   30 ar  
    54   29   53 1   
    55   30   31 ar  
    56   30   54 1   
    57   31   32 ar  
    58   32   33 ar  
    59   32   55 1   
    60   33   56 1   
@<TRIPOS>SUBSTRUCTURE
     1 2QN         1 TEMP              0 ****  ****    0 ROOT
