@<TRIPOS>MOLECULE
2QN
   59    60     1     0     0
SMALL
bcc


@<TRIPOS>ATOM
      1 CAN        -2.3920    1.2370    0.4730 ca        1 2QN     -0.077500
      2 CAL        -1.4440    2.2460    0.6230 ca        1 2QN     -0.103000
      3 CBC        -1.6320    3.2520    1.5730 ca        1 2QN      0.069900
      4 IAG        -0.2560    4.7120    1.7920 i         1 2QN     -0.075900
      5 CAM        -2.7810    3.2480    2.3680 ca        1 2QN     -0.103000
      6 CAO        -3.7360    2.2420    2.2310 ca        1 2QN     -0.077500
      7 CBE        -3.5360    1.2250    1.2890 ca        1 2QN     -0.184600
      8 CBB        -4.5020    0.1410    1.0700 c         1 2QN      0.573700
      9 OAD        -4.7350   -0.4330    0.0120 o         1 2QN     -0.440100
     10 NAV        -5.2660   -0.3540    2.2670 ny        1 2QN     -0.690800
     11 CAR        -4.8930   -1.7610    2.5860 c3        1 2QN      0.117800
     12 CAP        -5.2170   -2.1860    4.0110 c3        1 2QN     -0.101400
     13 CAQ        -6.6940   -2.1340    4.3580 c3        1 2QN     -0.092400
     14 CB         -6.9430   -1.1500    5.4800 c3        1 2QN     -0.110400
     15 CA         -8.4200   -1.0960    5.9120 c3        1 2QN      0.134500
     16 C          -8.4490   -0.1870    7.1390 c         1 2QN      0.658100
     17 OXT        -8.4900    1.2260    6.9460 os        1 2QN     -0.472200
     18 O          -8.2990   -0.4480    8.3150 o         1 2QN     -0.379000
     19 N          -9.3320   -0.6170    4.9060 n8        1 2QN     -0.979800
     20 CBA        -9.3820    1.7870    6.0960 c         1 2QN      0.672100
     21 OAC       -10.5920    1.6620    6.1750 o         1 2QN     -0.395000
     22 NAX        -8.7130    2.7450    5.1640 ny        1 2QN     -0.640800
     23 CBG        -8.8880    2.3530    3.7190 c3        1 2QN      0.032500
     24 CAZ        -7.7130    1.4470    3.2760 c         1 2QN      0.912600
     25 OAF        -7.9530    0.5200    2.4570 o         1 2QN     -0.822800
     26 OAB        -6.5610    1.6500    3.7670 o         1 2QN     -0.822800
     27 CAT        -8.9310    3.5790    2.8020 c3        1 2QN     -0.057100
     28 CBD       -10.0050    4.5330    3.1840 ca        1 2QN     -0.097300
     29 CAJ        -9.7090    5.6740    3.9430 ca        1 2QN     -0.256300
     30 CAH       -10.7560    6.5560    4.2670 ca        1 2QN      0.415700
     31 NAU       -12.0340    6.3620    3.8900 nb        1 2QN     -0.636000
     32 CAI       -12.3050    5.2640    3.1580 ca        1 2QN      0.415700
     33 CAK       -11.3280    4.3220    2.7810 ca        1 2QN     -0.256300
     34 H1         -2.2510    0.4530   -0.2900 ha        1 2QN      0.170500
     35 H2         -0.5470    2.2420   -0.0210 ha        1 2QN      0.168000
     36 H3         -2.9480    4.0460    3.1110 ha        1 2QN      0.168000
     37 H4         -4.6490    2.2870    2.8520 ha        1 2QN      0.170500
     38 H5         -6.2910   -0.3050    2.0540 hn        1 2QN      0.492800
     39 H6         -3.7820   -1.8730    2.4230 hx        1 2QN      0.099700
     40 H7         -5.4270   -2.4250    1.8470 hx        1 2QN      0.099700
     41 H8         -4.8470   -3.2430    4.1120 hc        1 2QN      0.080200
     42 H9         -4.6210   -1.5650    4.7330 hc        1 2QN      0.080200
     43 H10        -7.2980   -1.8560    3.4530 hc        1 2QN      0.064200
     44 H11        -7.0380   -3.1550    4.6760 hc        1 2QN      0.064200
     45 H12        -6.6110   -0.1230    5.1590 hc        1 2QN      0.078200
     46 H13        -6.3370   -1.4440    6.3790 hc        1 2QN      0.078200
     47 H14        -8.7180   -2.1210    6.3010 h1        1 2QN      0.092700
     48 H16        -8.9590   -0.6620    3.9780 hn        1 2QN      0.407300
     49 H17        -7.6960    2.7630    5.3640 hn        1 2QN      0.478300
     50 H18        -9.8600    1.7830    3.6310 hx        1 2QN      0.131700
     51 H20        -7.9310    4.0910    2.8010 hc        1 2QN      0.095200
     52 H21        -9.1090    3.1880    1.7610 hc        1 2QN      0.095200
     53 H22        -8.6800    5.9080    4.2440 ha        1 2QN      0.147500
     54 H23       -10.5630    7.4730    4.8550 h4        1 2QN      0.041600
     55 H24       -13.3610    5.1360    2.8540 h4        1 2QN      0.041600
     56 H25       -11.6050    3.4500    2.1730 ha        1 2QN      0.147500
     57 HAV2       -5.1190    0.2650    3.0820 hn        1 2QN      0.492800
     58 H26       -10.2250   -1.0610    4.9650 hn        1 2QN      0.407300
     59 HAX2       -9.1160    3.6810    5.3140 hn        1 2QN      0.478300
@<TRIPOS>BOND
     1    1    2 ar  
     2    1    7 ar  
     3    1   34 1   
     4    2    3 ar  
     5    2   35 1   
     6    3    4 1   
     7    3    5 ar  
     8    5    6 ar  
     9    5   36 1   
    10    6    7 ar  
    11    6   37 1   
    12    7    8 1   
    13    8    9 2   
    14    8   10 1   
    15   10   11 1   
    16   10   38 1   
    17   10   57 1   
    18   11   12 1   
    19   11   39 1   
    20   11   40 1   
    21   12   13 1   
    22   12   41 1   
    23   12   42 1   
    24   13   14 1   
    25   13   43 1   
    26   13   44 1   
    27   14   15 1   
    28   14   45 1   
    29   14   46 1   
    30   15   16 1   
    31   15   19 1   
    32   15   47 1   
    33   16   17 1   
    34   16   18 2   
    35   17   20 1   
    36   19   48 1   
    37   19   58 1   
    38   20   21 2   
    39   20   22 1   
    40   22   23 1   
    41   22   49 1   
    42   22   59 1   
    43   23   24 1   
    44   23   27 1   
    45   23   50 1   
    46   24   25 1   
    47   24   26 1   
    48   27   28 1   
    49   27   51 1   
    50   27   52 1   
    51   28   29 ar  
    52   28   33 ar  
    53   29   30 ar  
    54   29   53 1   
    55   30   31 ar  
    56   30   54 1   
    57   31   32 ar  
    58   32   33 ar  
    59   32   55 1   
    60   33   56 1   
@<TRIPOS>SUBSTRUCTURE
     1 2QN         1 TEMP              0 ****  ****    0 ROOT
