@<TRIPOS>MOLECULE
2QO
   36    37     1     0     0
SMALL
bcc


@<TRIPOS>ATOM
      1 C01         0.1620    0.9910    0.4440 c2        1 2QO     -0.240000
      2 C02         1.4010    0.5030    0.4300 c2        1 2QO     -0.147200
      3 C03         2.0910   -0.0330    1.6320 c3        1 2QO     -0.005900
      4 C04         2.9010   -1.2470    1.3270 ca        1 2QO     -0.089300
      5 C05         4.0310   -1.1500    0.5070 ca        1 2QO     -0.145000
      6 C06         4.7970   -2.2830    0.2420 ca        1 2QO     -0.137000
      7 C07         4.4430   -3.5150    0.7850 ca        1 2QO     -0.128000
      8 C08         3.3100   -3.6300    1.6060 cp        1 2QO      0.008000
      9 C09         2.9340   -4.9300    2.1540 cp        1 2QO     -0.092000
     10 C10         3.0510   -6.0780    1.3560 ca        1 2QO     -0.108000
     11 C11         2.7190   -7.3530    1.8310 ca        1 2QO     -0.032800
     12 C12         2.8440   -8.4920    0.9380 ce        1 2QO     -0.184200
     13 C13         3.0220   -9.7790    1.2530 cf        1 2QO     -0.144200
     14 C14         3.1820  -10.4270    2.6080 c         1 2QO      0.894800
     15 O15         4.3340  -10.8340    2.9250 o         1 2QO     -0.831800
     16 O16         2.1540  -10.5800    3.3340 o         1 2QO     -0.831800
     17 C17         2.2510   -7.4820    3.1510 ca        1 2QO     -0.070000
     18 C18         2.1220   -6.3620    3.9600 ca        1 2QO     -0.216000
     19 C19         2.4550   -5.0900    3.4680 ca        1 2QO      0.106100
     20 O20         2.3150   -3.9630    4.2580 oh        1 2QO     -0.517100
     21 C21         2.5460   -2.4840    1.8710 ca        1 2QO     -0.103000
     22 H1         -0.4570    1.0160    1.3500 ha        1 2QO      0.106500
     23 H2         -0.3180    1.3920   -0.4570 ha        1 2QO      0.106500
     24 H3          1.9960    0.4760   -0.4980 ha        1 2QO      0.121000
     25 H4          2.7760    0.7680    2.0330 hc        1 2QO      0.051200
     26 H5          1.3460   -0.2630    2.4410 hc        1 2QO      0.051200
     27 H6          4.3130   -0.1790    0.0770 ha        1 2QO      0.117000
     28 H7          5.6880   -2.2040   -0.3980 ha        1 2QO      0.120000
     29 H8          5.0580   -4.4050    0.5810 ha        1 2QO      0.139000
     30 H9          3.4130   -5.9680    0.3220 ha        1 2QO      0.124000
     31 H10         2.7930   -8.2100   -0.1320 ha        1 2QO      0.085000
     32 H12         3.0990  -10.5150    0.4330 ha        1 2QO      0.099000
     33 H15         1.9920   -8.4900    3.5390 ha        1 2QO      0.212000
     34 H16         1.7620   -6.4700    4.9930 ha        1 2QO      0.125000
     35 H17         2.1500   -4.2670    5.1620 ho        1 2QO      0.408000
     36 H18         1.6650   -2.5680    2.5280 ha        1 2QO      0.148000
@<TRIPOS>BOND
     1    1    2 2   
     2    1   22 1   
     3    1   23 1   
     4    2    3 1   
     5    2   24 1   
     6    3    4 1   
     7    3   25 1   
     8    3   26 1   
     9    4    5 ar  
    10    4   21 ar  
    11    5    6 ar  
    12    5   27 1   
    13    6    7 ar  
    14    6   28 1   
    15    7    8 ar  
    16    7   29 1   
    17    8    9 1   
    18    8   21 ar  
    19    9   10 ar  
    20    9   19 ar  
    21   10   11 ar  
    22   10   30 1   
    23   11   12 1   
    24   11   17 ar  
    25   12   13 2   
    26   12   31 1   
    27   13   14 1   
    28   13   32 1   
    29   14   15 1   
    30   14   16 1   
    31   17   18 ar  
    32   17   33 1   
    33   18   19 ar  
    34   18   34 1   
    35   19   20 1   
    36   20   35 1   
    37   21   36 1   
@<TRIPOS>SUBSTRUCTURE
     1 2QO         1 TEMP              0 ****  ****    0 ROOT
