@<TRIPOS>MOLECULE
2QP
   57    58     1     0     0
SMALL
bcc


@<TRIPOS>ATOM
      1 CAM        -3.5100   -2.2330   -0.1800 ca        1 2QP     -0.078000
      2 CAK        -2.5010   -3.0960   -0.6070 ca        1 2QP     -0.103000
      3 CBB        -1.2960   -3.1820    0.0930 ca        1 2QP      0.069900
      4 IAG         0.1580   -4.4280   -0.5450 i         1 2QP     -0.076900
      5 CAL        -1.1020   -2.4070    1.2390 ca        1 2QP     -0.103000
      6 CAN        -2.1040   -1.5450    1.6790 ca        1 2QP     -0.078000
      7 CBC        -3.3070   -1.4450    0.9600 ca        1 2QP     -0.184600
      8 CBA        -4.3250   -0.5270    1.4850 c         1 2QP      0.573700
      9 OAD        -4.5160   -0.2350    2.6610 o         1 2QP     -0.441100
     10 NAT        -5.2130    0.1630    0.4860 ny        1 2QP     -0.690800
     11 CAQ        -4.9690    1.6330    0.4920 c3        1 2QP      0.117800
     12 CAO        -5.4290    2.3490   -0.7690 c3        1 2QP     -0.101400
     13 CAP        -6.9190    2.2440   -1.0400 c3        1 2QP     -0.092400
     14 CB         -7.1730    1.5150   -2.3420 c3        1 2QP     -0.110400
     15 CA         -8.6690    1.4260   -2.6950 c3        1 2QP      0.135500
     16 C          -8.7160    0.8080   -4.0920 c         1 2QP      0.658100
     17 OXT        -8.6330   -0.6090   -4.2170 os        1 2QP     -0.473200
     18 O          -8.6720    1.3350   -5.1840 o         1 2QP     -0.382000
     19 N          -9.4680    0.6590   -1.7760 n8        1 2QP     -0.978800
     20 CAZ        -9.4290   -1.4190   -3.4790 c         1 2QP      0.671100
     21 OAC       -10.6470   -1.3710   -3.4710 o         1 2QP     -0.398000
     22 NAV        -8.6410   -2.5090   -2.8290 ny        1 2QP     -0.638800
     23 CBF        -8.7350   -2.4580   -1.3260 c3        1 2QP      0.032500
     24 CAY        -7.5980   -1.5710   -0.7590 c         1 2QP      0.910600
     25 OAF        -6.4770   -1.5520   -1.3520 o         1 2QP     -0.823300
     26 OAB        -7.8390   -0.8780    0.2670 o         1 2QP     -0.823300
     27 CAS        -8.6120   -3.8500   -0.6980 c3        1 2QP     -0.119700
     28 CBD        -9.6660   -4.7740   -1.1280 cc        1 2QP      0.172000
     29 CAJ       -10.7830   -5.3080   -0.5210 cd        1 2QP     -0.189300
     30 CAH       -11.3820   -6.2240   -1.4700 cd        1 2QP     -0.249300
     31 CAI       -10.5950   -6.1940   -2.6020 cc        1 2QP      0.270600
     32 OAW        -9.5260   -5.3130   -2.4250 os        1 2QP     -0.421800
     33 H1         -4.4640   -2.2140   -0.7370 ha        1 2QP      0.170500
     34 H2         -2.6710   -3.7140   -1.5050 ha        1 2QP      0.168500
     35 H3         -0.1600   -2.4730    1.8100 ha        1 2QP      0.168500
     36 H4         -1.9580   -0.9460    2.5940 ha        1 2QP      0.170500
     37 H5         -5.0830   -0.2330   -0.4600 hn        1 2QP      0.493300
     38 H6         -5.4940    2.0560    1.3980 hx        1 2QP      0.099700
     39 H7         -3.8600    1.8030    0.6160 hx        1 2QP      0.099700
     40 H8         -5.1500    3.4310   -0.6310 hc        1 2QP      0.079700
     41 H9         -4.8410    1.9740   -1.6500 hc        1 2QP      0.079700
     42 H10        -7.3600    3.2750   -1.0990 hc        1 2QP      0.064200
     43 H11        -7.4340    1.7190   -0.1910 hc        1 2QP      0.064200
     44 H12        -6.6570    2.0550   -3.1810 hc        1 2QP      0.078700
     45 H13        -6.7420    0.4770   -2.2810 hc        1 2QP      0.078700
     46 H14        -9.0700    2.4800   -2.8280 h1        1 2QP      0.091700
     47 H16       -10.3930    1.0260   -1.6830 hn        1 2QP      0.407300
     48 H17        -7.6420   -2.4100   -3.0860 hn        1 2QP      0.483800
     49 H18        -9.7360   -2.0060   -1.0570 hx        1 2QP      0.133700
     50 H20        -7.6000   -4.2850   -0.9250 hc        1 2QP      0.102200
     51 H21        -8.6820   -3.7040    0.4180 hc        1 2QP      0.102200
     52 H22       -11.1600   -5.0990    0.4790 ha        1 2QP      0.178000
     53 H23       -12.2800   -6.8140   -1.3000 ha        1 2QP      0.183000
     54 H24       -10.6110   -6.6910   -3.5700 h4        1 2QP      0.068100
     55 HAT2       -6.2130   -0.0250    0.7380 hn        1 2QP      0.493300
     56 H25        -9.0330    0.5280   -0.8830 hn        1 2QP      0.407300
     57 HAV2       -9.0010   -3.4130   -3.1700 hn        1 2QP      0.483800
@<TRIPOS>BOND
     1    1    2 ar  
     2    1    7 ar  
     3    1   33 1   
     4    2    3 ar  
     5    2   34 1   
     6    3    4 1   
     7    3    5 ar  
     8    5    6 ar  
     9    5   35 1   
    10    6    7 ar  
    11    6   36 1   
    12    7    8 1   
    13    8    9 2   
    14    8   10 1   
    15   10   11 1   
    16   10   37 1   
    17   10   55 1   
    18   11   12 1   
    19   11   38 1   
    20   11   39 1   
    21   12   13 1   
    22   12   40 1   
    23   12   41 1   
    24   13   14 1   
    25   13   42 1   
    26   13   43 1   
    27   14   15 1   
    28   14   44 1   
    29   14   45 1   
    30   15   16 1   
    31   15   19 1   
    32   15   46 1   
    33   16   17 1   
    34   16   18 2   
    35   17   20 1   
    36   19   47 1   
    37   19   56 1   
    38   20   21 2   
    39   20   22 1   
    40   22   23 1   
    41   22   48 1   
    42   22   57 1   
    43   23   24 1   
    44   23   27 1   
    45   23   49 1   
    46   24   25 1   
    47   24   26 1   
    48   27   28 1   
    49   27   50 1   
    50   27   51 1   
    51   28   29 2   
    52   28   32 1   
    53   29   30 1   
    54   29   52 1   
    55   30   31 2   
    56   30   53 1   
    57   31   32 1   
    58   31   54 1   
@<TRIPOS>SUBSTRUCTURE
     1 2QP         1 TEMP              0 ****  ****    0 ROOT
