@<TRIPOS>MOLECULE
2QP
   57    58     1     0     0
SMALL
bcc


@<TRIPOS>ATOM
      1 CAM        -3.5300   -2.3980    0.4730 ca        1 2QP     -0.072500
      2 CAK        -2.7400   -3.5390    0.6010 ca        1 2QP     -0.105500
      3 CBB        -1.4980   -3.4770    1.2390 ca        1 2QP      0.072900
      4 IAG        -0.3640   -5.1380    1.4080 i         1 2QP     -0.077900
      5 CAL        -1.0480   -2.2640    1.7620 ca        1 2QP     -0.105500
      6 CAN        -1.8300   -1.1170    1.6450 ca        1 2QP     -0.072500
      7 CBC        -3.0720   -1.1780    0.9890 ca        1 2QP     -0.184600
      8 CBA        -3.8400    0.0710    0.9160 c         1 2QP      0.572700
      9 OAD        -3.7080    1.0480    1.6490 o         1 2QP     -0.455100
     10 NAT        -4.8760    0.1930   -0.1610 n4        1 2QP     -0.691800
     11 CAQ        -4.7060    1.4390   -0.9600 c3        1 2QP      0.119800
     12 CAO        -5.8540    1.6860   -1.9300 c3        1 2QP     -0.106400
     13 CAP        -7.0720    2.2560   -1.2350 c3        1 2QP     -0.102400
     14 CB         -8.1880    2.6040   -2.1950 c3        1 2QP     -0.104400
     15 CA         -9.0190    1.4300   -2.7480 c3        1 2QP      0.130500
     16 C          -8.1930    0.7320   -3.8200 c         1 2QP      0.662100
     17 OXT        -8.0400   -0.6820   -3.8460 os        1 2QP     -0.459200
     18 O          -7.5230    1.2190   -4.7130 o         1 2QP     -0.406000
     19 N          -9.5600    0.5080   -1.7880 n3        1 2QP     -0.972800
     20 CAZ        -9.0430   -1.5170   -3.4900 c         1 2QP      0.670100
     21 OAC       -10.2060   -1.4100   -3.8470 o         1 2QP     -0.412000
     22 NAV        -8.5210   -2.7100   -2.7650 n4        1 2QP     -0.634800
     23 CBF        -8.5750   -2.5350   -1.2680 c3        1 2QP      0.030500
     24 CAY        -7.3510   -1.6960   -0.8130 c         1 2QP      0.910600
     25 OAF        -6.2300   -1.9490   -1.3470 o         1 2QP     -0.818800
     26 OAB        -7.5210   -0.7880    0.0420 o         1 2QP     -0.818800
     27 CAS        -8.5310   -3.8820   -0.5410 c3        1 2QP     -0.120700
     28 CBD        -9.6600   -4.7570   -0.8730 cc        1 2QP      0.172000
     29 CAJ       -10.7720   -5.1930   -0.1820 cd        1 2QP     -0.192300
     30 CAH       -11.4730   -6.1150   -1.0510 cd        1 2QP     -0.250300
     31 CAI       -10.7500   -6.1880   -2.2210 cc        1 2QP      0.270600
     32 OAW        -9.6220   -5.3660   -2.1450 os        1 2QP     -0.421800
     33 H1         -4.5140   -2.4950   -0.0220 ha        1 2QP      0.170500
     34 H2         -3.1100   -4.4940    0.1920 ha        1 2QP      0.168000
     35 H3         -0.0740   -2.2000    2.2760 ha        1 2QP      0.168000
     36 H4         -1.4800   -0.1610    2.0700 ha        1 2QP      0.170500
     37 H5         -4.8560   -0.6310   -0.7950 hn        1 2QP      0.495300
     38 H6         -4.6130    2.3040   -0.2410 hx        1 2QP      0.100700
     39 H7         -3.7400    1.3440   -1.5340 hx        1 2QP      0.100700
     40 H8         -6.1240    0.7370   -2.4700 hc        1 2QP      0.080200
     41 H9         -5.4840    2.4120   -2.7050 hc        1 2QP      0.080200
     42 H10        -7.4270    1.5450   -0.4420 hc        1 2QP      0.067200
     43 H11        -6.7750    3.2040   -0.7050 hc        1 2QP      0.067200
     44 H12        -8.9060    3.2880   -1.6640 hc        1 2QP      0.079200
     45 H13        -7.7680    3.1710   -3.0700 hc        1 2QP      0.079200
     46 H14        -9.8790    1.8900   -3.3390 h1        1 2QP      0.109700
     47 H16       -10.5140    0.7120   -1.5750 hn        1 2QP      0.404300
     48 H17        -9.0800   -3.5320   -3.0410 hn        1 2QP      0.485800
     49 H18        -9.5350   -1.9990   -1.0160 hx        1 2QP      0.127700
     50 H20        -7.5580   -4.4030   -0.7630 hc        1 2QP      0.103200
     51 H21        -8.5550   -3.6530    0.5620 hc        1 2QP      0.103200
     52 H22       -11.0800   -4.9140    0.8240 ha        1 2QP      0.177000
     53 H23       -12.3930   -6.6410   -0.8030 ha        1 2QP      0.183000
     54 H24       -10.8460   -6.7300   -3.1600 h4        1 2QP      0.068100
     55 HAT2       -5.8240    0.1860    0.2770 hn        1 2QP      0.495300
     56 H25        -9.0110    0.4330   -0.9520 hn        1 2QP      0.404300
     57 HAV2       -7.5260   -2.8530   -3.0180 hn        1 2QP      0.485800
@<TRIPOS>BOND
     1    1    2 ar  
     2    1    7 ar  
     3    1   33 1   
     4    2    3 ar  
     5    2   34 1   
     6    3    4 1   
     7    3    5 ar  
     8    5    6 ar  
     9    5   35 1   
    10    6    7 ar  
    11    6   36 1   
    12    7    8 1   
    13    8    9 2   
    14    8   10 1   
    15   10   11 1   
    16   10   37 1   
    17   10   55 1   
    18   11   12 1   
    19   11   38 1   
    20   11   39 1   
    21   12   13 1   
    22   12   40 1   
    23   12   41 1   
    24   13   14 1   
    25   13   42 1   
    26   13   43 1   
    27   14   15 1   
    28   14   44 1   
    29   14   45 1   
    30   15   16 1   
    31   15   19 1   
    32   15   46 1   
    33   16   17 1   
    34   16   18 2   
    35   17   20 1   
    36   19   47 1   
    37   19   56 1   
    38   20   21 2   
    39   20   22 1   
    40   22   23 1   
    41   22   48 1   
    42   22   57 1   
    43   23   24 1   
    44   23   27 1   
    45   23   49 1   
    46   24   25 1   
    47   24   26 1   
    48   27   28 1   
    49   27   50 1   
    50   27   51 1   
    51   28   29 2   
    52   28   32 1   
    53   29   30 1   
    54   29   52 1   
    55   30   31 2   
    56   30   53 1   
    57   31   32 1   
    58   31   54 1   
@<TRIPOS>SUBSTRUCTURE
     1 2QP         1 TEMP              0 ****  ****    0 ROOT
