@<TRIPOS>MOLECULE
2QQ
   52    52     1     0     0
SMALL
bcc


@<TRIPOS>ATOM
      1 CAL        -3.3060   -2.2000    0.7300 ca        1 2QQ     -0.072000
      2 CAJ        -2.4790   -3.2990    0.9540 ca        1 2QQ     -0.105000
      3 CAZ        -1.2150   -3.1350    1.5260 ca        1 2QQ      0.073900
      4 IAH        -0.0290   -4.7390    1.8360 i         1 2QQ     -0.077900
      5 CAK        -0.7780   -1.8590    1.8850 ca        1 2QQ     -0.105000
      6 CAM        -1.5970   -0.7520    1.6710 ca        1 2QQ     -0.072000
      7 CBA        -2.8620   -0.9170    1.0810 ca        1 2QQ     -0.184600
      8 CAY        -3.6660    0.2970    0.8990 c         1 2QQ      0.572700
      9 OAE        -3.5260    1.3590    1.5000 o         1 2QQ     -0.454100
     10 NAS        -4.7590    0.2630   -0.1280 n4        1 2QQ     -0.690800
     11 CAP        -4.6860    1.4230   -1.0600 c3        1 2QQ      0.118800
     12 CAN        -5.8970    1.5270   -1.9790 c3        1 2QQ     -0.106400
     13 CAO        -7.0940    2.1290   -1.2730 c3        1 2QQ     -0.102400
     14 CAR        -8.2730    2.3480   -2.1960 c3        1 2QQ     -0.104400
     15 CBC        -9.0830    1.0990   -2.5960 c3        1 2QQ      0.130500
     16 CAW        -8.2870    0.3390   -3.6490 c         1 2QQ      0.662100
     17 OAG        -8.0800   -1.0660   -3.5620 os        1 2QQ     -0.460200
     18 OAC        -7.6870    0.7660   -4.6180 o         1 2QQ     -0.404000
     19 NAU        -9.5310    0.2470   -1.5290 n3        1 2QQ     -0.973800
     20 CAX        -9.0220   -1.9020   -3.0680 c         1 2QQ      0.672100
     21 OAD       -10.2070   -1.8830   -3.3590 o         1 2QQ     -0.410000
     22 N          -8.4010   -2.9970   -2.2660 n4        1 2QQ     -0.634800
     23 CA         -8.3930   -2.6880   -0.7890 c3        1 2QQ      0.030500
     24 C          -7.1820   -1.7700   -0.4720 c         1 2QQ      0.910600
     25 O          -7.3480   -0.7900    0.2990 o         1 2QQ     -0.817800
     26 OXT        -6.0780   -2.0370   -1.0350 o         1 2QQ     -0.817800
     27 CB         -8.2670   -3.9680    0.0450 c3        1 2QQ     -0.011300
     28 CAI        -9.2790   -4.9320   -0.2630 c1        1 2QQ     -0.229100
     29 CAA       -10.1150   -5.7640   -0.4650 c1        1 2QQ     -0.065500
     30 H1         -4.3060   -2.3770    0.2920 ha        1 2QQ      0.170500
     31 H2         -2.8390   -4.3040    0.6740 ha        1 2QQ      0.168000
     32 H3          0.2140   -1.7120    2.3460 ha        1 2QQ      0.168000
     33 H4         -1.2560    0.2550    1.9670 ha        1 2QQ      0.170500
     34 H5         -4.7340   -0.6210   -0.6730 hn        1 2QQ      0.495300
     35 H6         -4.5860    2.3630   -0.4420 hx        1 2QQ      0.101200
     36 H7         -3.7520    1.3010   -1.6800 hx        1 2QQ      0.101200
     37 H8         -6.1610    0.5170   -2.3970 hc        1 2QQ      0.079700
     38 H9         -5.6010    2.1780   -2.8470 hc        1 2QQ      0.079700
     39 H10        -6.8010    3.1330   -0.8570 hc        1 2QQ      0.067200
     40 H11        -7.3800    1.4900   -0.3950 hc        1 2QQ      0.067200
     41 H12        -7.9230    2.8480   -3.1400 hc        1 2QQ      0.080200
     42 H13        -8.9890    3.0510   -1.6880 hc        1 2QQ      0.080200
     43 H14        -9.9920    1.4730   -3.1740 h1        1 2QQ      0.110700
     44 H16        -8.9400    0.2750   -0.7200 hn        1 2QQ      0.405300
     45 H17        -8.9280   -3.8640   -2.4300 hn        1 2QQ      0.480800
     46 H18        -9.3600   -2.1660   -0.5380 hx        1 2QQ      0.128700
     47 H20        -7.2430   -4.4180   -0.0980 hc        1 2QQ      0.103700
     48 H21        -8.3470   -3.6550    1.1270 hc        1 2QQ      0.103700
     49 H22       -10.8600   -6.5030   -0.6440 ha        1 2QQ      0.186500
     50 HAS2       -5.6830    0.2660    0.3590 hn        1 2QQ      0.495300
     51 HAU2      -10.4830    0.4260   -1.2860 hn        1 2QQ      0.405300
     52 H23        -7.4130   -3.1130   -2.5590 hn        1 2QQ      0.480800
@<TRIPOS>BOND
     1    1    2 ar  
     2    1    7 ar  
     3    1   30 1   
     4    2    3 ar  
     5    2   31 1   
     6    3    4 1   
     7    3    5 ar  
     8    5    6 ar  
     9    5   32 1   
    10    6    7 ar  
    11    6   33 1   
    12    7    8 1   
    13    8    9 2   
    14    8   10 1   
    15   10   11 1   
    16   10   34 1   
    17   10   50 1   
    18   11   12 1   
    19   11   35 1   
    20   11   36 1   
    21   12   13 1   
    22   12   37 1   
    23   12   38 1   
    24   13   14 1   
    25   13   39 1   
    26   13   40 1   
    27   14   15 1   
    28   14   41 1   
    29   14   42 1   
    30   15   16 1   
    31   15   19 1   
    32   15   43 1   
    33   16   17 1   
    34   16   18 2   
    35   17   20 1   
    36   19   44 1   
    37   19   51 1   
    38   20   21 2   
    39   20   22 1   
    40   22   23 1   
    41   22   45 1   
    42   22   52 1   
    43   23   24 1   
    44   23   27 1   
    45   23   46 1   
    46   24   25 1   
    47   24   26 1   
    48   27   28 1   
    49   27   47 1   
    50   27   48 1   
    51   28   29 3   
    52   29   49 1   
@<TRIPOS>SUBSTRUCTURE
     1 2QQ         1 TEMP              0 ****  ****    0 ROOT
