@<TRIPOS>MOLECULE
2QQ
   52    53     1     0     0
SMALL
bcc


@<TRIPOS>ATOM
      1 CAL        -1.6400   -0.4870    0.3470 ca        1 2QQ     -0.068500
      2 CAJ        -0.4920   -1.2140    0.0490 ca        1 2QQ     -0.095500
      3 CAZ         0.7230   -0.9160    0.6780 ca        1 2QQ      0.082900
      4 IAH         2.3780   -1.9780    0.2290 i         1 2QQ     -0.048900
      5 CAK         0.7790    0.1140    1.6170 ca        1 2QQ     -0.095500
      6 CAM        -0.3650    0.8480    1.9270 ca        1 2QQ     -0.068500
      7 CBA        -1.5820    0.5550    1.2870 ca        1 2QQ     -0.195600
      8 CAY        -2.7320    1.3670    1.6730 c         1 2QQ      0.574700
      9 OAE        -2.8570    2.0980    2.6470 o         1 2QQ     -0.422100
     10 NAS        -3.9390    1.3610    0.7480 ny        1 2QQ     -0.678800
     11 CAP        -4.9450    0.3420    1.1780 c3        1 2QQ      0.106800
     12 CAN        -6.1920    0.3500    0.3070 c3        1 2QQ     -0.147400
     13 CAO        -7.1090   -0.7820    0.7660 c3        1 2QQ      0.163400
     14 CAR        -6.9740   -0.2480   -4.1540 c3        1 2QQ     -0.097100
     15 CBC        -8.1200   -0.7640   -3.2760 c3        1 2QQ      0.103500
     16 CAW        -8.9630   -1.6990   -4.1430 c         1 2QQ      0.606100
     17 OAG        -9.8290   -1.1730   -5.0510 oh        1 2QQ     -0.553100
     18 OAC        -8.9250   -2.9290   -4.1250 o         1 2QQ     -0.493000
     19 NAU        -7.6150   -1.3870   -2.0630 n7        1 2QQ     -0.824200
     20 CAX        -8.5900   -1.5930   -0.9810 c3        1 2QQ      0.769000
     21 OAD        -8.3590   -0.6820    0.1070 os        1 2QQ     -0.433600
     22 N         -10.0400   -1.5090   -1.3330 n7        1 2QQ     -0.810200
     23 CA        -10.6740   -2.7460   -0.8520 c3        1 2QQ      0.094500
     24 C          -9.5400   -3.5970   -0.2920 c         1 2QQ      0.716600
     25 O          -9.4760   -4.7070    0.2030 o         1 2QQ     -0.513500
     26 OXT        -8.3410   -2.8900   -0.3690 os        1 2QQ     -0.466900
     27 CB        -11.4160   -3.5150   -1.9580 c3        1 2QQ      0.008700
     28 CAI       -12.6640   -2.8930   -2.2790 c1        1 2QQ     -0.162100
     29 CAA       -13.7130   -2.3960   -2.5700 c1        1 2QQ     -0.121500
     30 H1         -2.5780   -0.7690   -0.1530 ha        1 2QQ      0.153500
     31 H2         -0.5510   -2.0350   -0.6870 ha        1 2QQ      0.178000
     32 H3          1.7280    0.3590    2.1290 ha        1 2QQ      0.178000
     33 H4         -0.3170    1.6570    2.6780 ha        1 2QQ      0.153500
     34 H5         -3.6420    1.1710   -0.2140 hn        1 2QQ      0.458300
     35 H6         -4.4480   -0.6710    1.1370 hx        1 2QQ      0.110700
     36 H7         -5.2160    0.5670    2.2510 hx        1 2QQ      0.110700
     37 H8         -5.9330    0.2050   -0.7740 hc        1 2QQ      0.081200
     38 H9         -6.7400    1.3240    0.4010 hc        1 2QQ      0.081200
     39 H10        -6.3700    0.5080   -3.6000 hc        1 2QQ      0.054033
     40 H11        -7.3620   -0.6590    1.8570 h1        1 2QQ      0.073200
     41 H12        -7.4080    0.2310   -5.0650 hc        1 2QQ      0.054033
     42 H13        -6.3040   -1.0820   -4.4740 hc        1 2QQ      0.054033
     43 H14        -8.7620    0.1200   -2.9800 h1        1 2QQ      0.084700
     44 H16        -6.6230   -1.7780    0.6020 h1        1 2QQ      0.073200
     45 H17        -9.8380   -0.2080   -4.9830 ho        1 2QQ      0.428000
     46 H18       -11.4010   -2.5360   -0.0120 h1        1 2QQ      0.098700
     47 H20       -10.7760   -3.5910   -2.8850 hc        1 2QQ      0.099200
     48 H21       -11.5970   -4.5610   -1.5770 hc        1 2QQ      0.099200
     49 H22       -14.6460   -1.9640   -2.8320 ha        1 2QQ      0.172500
     50 HAS2       -4.3830    2.2890    0.7750 hn        1 2QQ      0.458300
     51 HAU2       -7.1730   -2.2670   -2.2770 hn        1 2QQ      0.411800
     52 H23       -10.4510   -0.6950   -0.9150 hn        1 2QQ      0.404800
@<TRIPOS>BOND
     1    1    2 ar  
     2    1    7 ar  
     3    1   30 1   
     4    2    3 ar  
     5    2   31 1   
     6    3    4 1   
     7    3    5 ar  
     8    5    6 ar  
     9    5   32 1   
    10    6    7 ar  
    11    6   33 1   
    12    7    8 1   
    13    8    9 2   
    14    8   10 1   
    15   10   11 1   
    16   10   34 1   
    17   10   50 1   
    18   11   12 1   
    19   11   35 1   
    20   11   36 1   
    21   12   13 1   
    22   12   37 1   
    23   12   38 1   
    24   13   21 1   
    25   13   40 1   
    26   13   44 1   
    27   14   15 1   
    28   14   39 1   
    29   14   41 1   
    30   14   42 1   
    31   15   16 1   
    32   15   19 1   
    33   15   43 1   
    34   16   17 1   
    35   16   18 2   
    36   17   45 1   
    37   19   20 1   
    38   19   51 1   
    39   20   21 1   
    40   20   22 1   
    41   20   26 1   
    42   22   23 1   
    43   22   52 1   
    44   23   24 1   
    45   23   27 1   
    46   23   46 1   
    47   24   25 2   
    48   24   26 1   
    49   27   28 1   
    50   27   47 1   
    51   27   48 1   
    52   28   29 3   
    53   29   49 1   
@<TRIPOS>SUBSTRUCTURE
     1 2QQ         1 TEMP              0 ****  ****    0 ROOT
