@<TRIPOS>MOLECULE
2QQ
   52    52     1     0     0
SMALL
bcc


@<TRIPOS>ATOM
      1 CAL         0.2050    1.1060   -0.3420 ca        1 2QQ     -0.069500
      2 CAJ         1.3070    1.9480   -0.4410 ca        1 2QQ     -0.094500
      3 CAZ         1.7080    2.7250    0.6530 ca        1 2QQ      0.082900
      4 IAH         3.3050    3.9470    0.4900 i         1 2QQ     -0.046900
      5 CAK         1.0020    2.6460    1.8530 ca        1 2QQ     -0.094500
      6 CAM        -0.1020    1.8010    1.9660 ca        1 2QQ     -0.069500
      7 CBA        -0.5120    1.0320    0.8630 ca        1 2QQ     -0.200600
      8 CAY        -1.6720    0.1650    1.0620 c         1 2QQ      0.573700
      9 OAE        -2.1590   -0.2220    2.1140 o         1 2QQ     -0.417100
     10 NAS        -2.3790   -0.3010   -0.2040 n4        1 2QQ     -0.678800
     11 CAP        -3.7790   -0.7600    0.0410 c3        1 2QQ      0.103800
     12 CAN        -4.4550   -1.2600   -1.2300 c3        1 2QQ     -0.107400
     13 CAO        -5.9050   -1.5980   -0.9360 c3        1 2QQ     -0.085400
     14 CAR        -6.6060   -2.0030   -2.2160 c3        1 2QQ     -0.099400
     15 CBC        -8.1200   -1.9930   -2.0950 c3        1 2QQ     -0.075500
     16 CAW        -8.7430   -1.8190   -3.5740 c         1 2QQ      0.940600
     17 OAG        -9.5850   -2.6960   -3.9020 o         1 2QQ     -0.754800
     18 OAC        -8.3160   -0.8360   -4.1960 o         1 2QQ     -0.754800
     19 NAU        -8.6650   -3.2310   -1.4540 n4        1 2QQ     -0.637800
     20 CAX        -9.9670   -2.9520   -0.7160 c         1 2QQ      0.656100
     21 OAD        -9.8700   -3.0030    0.5210 o         1 2QQ     -0.544100
     22 N         -11.0760   -2.7110   -1.4710 n         1 2QQ     -0.521900
     23 CA        -12.3580   -2.4680   -0.8410 c3        1 2QQ      0.010700
     24 C         -13.2590   -3.7060   -0.9200 c         1 2QQ      0.603100
     25 O         -13.7540   -4.2630    0.0550 o         1 2QQ     -0.450000
     26 OXT       -13.5780   -4.2610   -2.1190 oh        1 2QQ     -0.557100
     27 CB        -13.1210   -1.2860   -1.4720 c3        1 2QQ     -0.010300
     28 CAI       -12.4430   -0.0410   -1.2940 c1        1 2QQ     -0.176100
     29 CAA       -11.9090    1.0220   -1.1630 c1        1 2QQ     -0.099500
     30 H1         -0.0620    0.4950   -1.2180 ha        1 2QQ      0.152000
     31 H2          1.8660    1.9950   -1.3920 ha        1 2QQ      0.179000
     32 H3          1.3090    3.2450    2.7290 ha        1 2QQ      0.179000
     33 H4         -0.6520    1.7340    2.9210 ha        1 2QQ      0.152000
     34 H5         -2.3870    0.4720   -0.8790 hn        1 2QQ      0.457800
     35 H6         -4.3510    0.1110    0.4740 hx        1 2QQ      0.115700
     36 H7         -3.7460   -1.5780    0.8180 hx        1 2QQ      0.115700
     37 H8         -4.4180   -0.4740   -2.0310 hc        1 2QQ      0.070700
     38 H9         -3.9290   -2.1720   -1.6200 hc        1 2QQ      0.070700
     39 H10        -6.4150   -0.7020   -0.4910 hc        1 2QQ      0.053700
     40 H11        -5.9560   -2.4240   -0.1790 hc        1 2QQ      0.053700
     41 H12        -6.2300   -3.0000   -2.5640 hc        1 2QQ      0.090700
     42 H13        -6.3660   -1.2580   -3.0320 hc        1 2QQ      0.090700
     43 H14        -8.4580   -1.1060   -1.4920 hx        1 2QQ      0.097700
     44 H16        -8.0060   -3.6240   -0.7810 hn        1 2QQ      0.460800
     45 H17       -13.1870   -3.7570   -2.8470 ho        1 2QQ      0.436000
     46 H18       -12.1950   -2.2530    0.2620 h1        1 2QQ      0.131700
     47 H20       -13.2910   -1.4740   -2.5710 hc        1 2QQ      0.090700
     48 H21       -14.1340   -1.2430   -0.9760 hc        1 2QQ      0.090700
     49 H22       -11.4440    1.9700   -1.0550 ha        1 2QQ      0.173500
     50 HAS2       -1.8380   -1.0720   -0.6110 hn        1 2QQ      0.457800
     51 HAU2       -8.8430   -3.9030   -2.2240 hn        1 2QQ      0.460800
     52 H23       -10.9950   -2.5800   -2.4710 hn        1 2QQ      0.393500
@<TRIPOS>BOND
     1    1    2 ar  
     2    1    7 ar  
     3    1   30 1   
     4    2    3 ar  
     5    2   31 1   
     6    3    4 1   
     7    3    5 ar  
     8    5    6 ar  
     9    5   32 1   
    10    6    7 ar  
    11    6   33 1   
    12    7    8 1   
    13    8    9 2   
    14    8   10 1   
    15   10   11 1   
    16   10   34 1   
    17   10   50 1   
    18   11   12 1   
    19   11   35 1   
    20   11   36 1   
    21   12   13 1   
    22   12   37 1   
    23   12   38 1   
    24   13   14 1   
    25   13   39 1   
    26   13   40 1   
    27   14   15 1   
    28   14   41 1   
    29   14   42 1   
    30   15   16 1   
    31   15   19 1   
    32   15   43 1   
    33   16   17 1   
    34   16   18 1   
    35   19   20 1   
    36   19   44 1   
    37   19   51 1   
    38   20   21 2   
    39   20   22 1   
    40   22   23 1   
    41   22   52 1   
    42   23   24 1   
    43   23   27 1   
    44   23   46 1   
    45   24   25 2   
    46   24   26 1   
    47   26   45 1   
    48   27   28 1   
    49   27   47 1   
    50   27   48 1   
    51   28   29 3   
    52   29   49 1   
@<TRIPOS>SUBSTRUCTURE
     1 2QQ         1 TEMP              0 ****  ****    0 ROOT
