@<TRIPOS>MOLECULE
2QS
   55    56     1     0     0
SMALL
bcc


@<TRIPOS>ATOM
      1 CAP         1.4960   -3.4980    4.9200 cx        1 2QS      0.076400
      2 OAU         0.4670   -2.6650    4.3510 os        1 2QS     -0.485600
      3 CBB         1.8050   -2.5540    3.8140 cx        1 2QS      0.074100
      4 CAQ         2.5150   -1.2460    3.9790 c3        1 2QS     -0.116400
      5 CBD         2.4160   -0.5920    5.3620 c3        1 2QS      0.001700
      6 CAW         3.2500    0.6960    5.3540 c         1 2QS      0.619100
      7 OAF         2.9210    1.7460    4.5660 oh        1 2QS     -0.550100
      8 OAB         4.2620    0.8410    6.0330 o         1 2QS     -0.452000
      9 NAT         1.0680   -0.3680    5.8580 n         1 2QS     -0.497900
     10 CAX         0.0610   -0.0370    4.9820 c         1 2QS      0.667100
     11 OAC         0.1480    0.6710    3.9690 o         1 2QS     -0.532100
     12 N          -1.3460   -0.5420    5.2730 n4        1 2QS     -0.643800
     13 CA         -1.9950    0.1670    6.4250 c3        1 2QS      0.001500
     14 C          -1.2840   -0.2070    7.7520 c         1 2QS      0.897600
     15 OXT        -1.2130    0.6700    8.6490 o         1 2QS     -0.811800
     16 O          -0.8380   -1.3880    7.8890 o         1 2QS     -0.811800
     17 CB         -3.4970   -0.1570    6.4960 c3        1 2QS     -0.084400
     18 CAM        -4.0390   -0.2130    7.9140 c3        1 2QS     -0.093400
     19 CAL        -3.9010   -1.5950    8.5270 c3        1 2QS     -0.113400
     20 CAN        -3.6700   -1.5780   10.0340 c3        1 2QS      0.118800
     21 NAR        -2.2790   -1.1960   10.4050 n4        1 2QS     -0.689800
     22 CAY        -1.9200   -1.4780   11.8350 c         1 2QS      0.572700
     23 OAD        -2.7240   -2.1430   12.4830 o         1 2QS     -0.456100
     24 CBA        -0.6430   -0.9360   12.3120 ca        1 2QS     -0.193600
     25 CAJ         0.2190   -0.1600   11.5220 ca        1 2QS     -0.069000
     26 CAH         1.4110    0.3150   12.0670 ca        1 2QS     -0.106500
     27 CAZ         1.7550    0.0250   13.3900 ca        1 2QS      0.077900
     28 IAG         3.4850    0.7220   14.1620 i         1 2QS     -0.073900
     29 CAI         0.8970   -0.7480   14.1750 ca        1 2QS     -0.106500
     30 CAK        -0.2970   -1.2280   13.6440 ca        1 2QS     -0.069000
     31 H1          1.7490   -3.2580    5.9690 h1        1 2QS      0.094200
     32 H2          1.3760   -4.5780    4.7130 h1        1 2QS      0.094200
     33 H3          1.8930   -2.9550    2.7790 h1        1 2QS      0.119700
     34 H4          3.6080   -1.4170    3.7680 hc        1 2QS      0.099200
     35 H5          2.1280   -0.5320    3.1990 hc        1 2QS      0.099200
     36 H6          2.9140   -1.2780    6.1210 h1        1 2QS      0.117700
     37 H8          0.8310   -0.8700    6.7000 hn        1 2QS      0.375500
     38 H9         -1.9010   -0.4040    4.4200 hn        1 2QS      0.471800
     39 H10        -1.8600    1.2780    6.2580 hx        1 2QS      0.126700
     40 H12        -4.0480    0.6440    5.9320 hc        1 2QS      0.065200
     41 H13        -3.7240   -1.1340    5.9890 hc        1 2QS      0.065200
     42 H14        -5.1290    0.0610    7.8800 hc        1 2QS      0.075200
     43 H15        -3.5350    0.5690    8.5430 hc        1 2QS      0.075200
     44 H16        -3.0710   -2.1640    8.0230 hc        1 2QS      0.082200
     45 H17        -4.8480   -2.1740    8.3530 hc        1 2QS      0.082200
     46 H18        -3.8690   -2.6080   10.4520 hx        1 2QS      0.105200
     47 H19        -4.3730   -0.8540   10.5350 hx        1 2QS      0.105200
     48 H20        -1.6020   -1.6880    9.7850 hn        1 2QS      0.492800
     49 H21        -0.0080    0.1000   10.4710 ha        1 2QS      0.173000
     50 H22         2.0780    0.9290   11.4380 ha        1 2QS      0.171500
     51 H23         1.1530   -0.9860   15.2220 ha        1 2QS      0.171500
     52 H24        -0.9760   -1.8370   14.2660 ha        1 2QS      0.173000
     53 HAT2        2.1150    1.5650    4.0580 ho        1 2QS      0.446000
     54 H25        -1.2940   -1.5500    5.4930 hn        1 2QS      0.471800
     55 HAR2       -2.1400   -0.1820   10.2190 hn        1 2QS      0.492800
@<TRIPOS>BOND
     1    1    2 1   
     2    1    3 1   
     3    1   31 1   
     4    1   32 1   
     5    2    3 1   
     6    3    4 1   
     7    3   33 1   
     8    4    5 1   
     9    4   34 1   
    10    4   35 1   
    11    5    6 1   
    12    5    9 1   
    13    5   36 1   
    14    6    7 1   
    15    6    8 2   
    16    7   53 1   
    17    9   10 1   
    18    9   37 1   
    19   10   11 2   
    20   10   12 1   
    21   12   13 1   
    22   12   38 1   
    23   12   54 1   
    24   13   14 1   
    25   13   17 1   
    26   13   39 1   
    27   14   15 1   
    28   14   16 1   
    29   17   18 1   
    30   17   40 1   
    31   17   41 1   
    32   18   19 1   
    33   18   42 1   
    34   18   43 1   
    35   19   20 1   
    36   19   44 1   
    37   19   45 1   
    38   20   21 1   
    39   20   46 1   
    40   20   47 1   
    41   21   22 1   
    42   21   48 1   
    43   21   55 1   
    44   22   23 2   
    45   22   24 1   
    46   24   25 ar  
    47   24   30 ar  
    48   25   26 ar  
    49   25   49 1   
    50   26   27 ar  
    51   26   50 1   
    52   27   28 1   
    53   27   29 ar  
    54   29   30 ar  
    55   29   51 1   
    56   30   52 1   
@<TRIPOS>SUBSTRUCTURE
     1 2QS         1 TEMP              0 ****  ****    0 ROOT
