@<TRIPOS>MOLECULE
2QS
   55    56     1     0     0
SMALL
bcc


@<TRIPOS>ATOM
      1 CAP         1.9620   -3.4450    5.2160 cx        1 2QS      0.076400
      2 OAU         0.8190   -2.8570    4.5660 os        1 2QS     -0.485600
      3 CBB         2.1300   -2.5830    4.0180 cx        1 2QS      0.074100
      4 CAQ         2.6120   -1.1650    4.0440 c3        1 2QS     -0.116400
      5 CBD         2.3850   -0.3970    5.3510 c3        1 2QS      0.001700
      6 CAW         2.9960    1.0030    5.2080 c         1 2QS      0.619100
      7 OAF         2.5110    1.8980    4.3140 oh        1 2QS     -0.550100
      8 OAB         3.9600    1.3830    5.8660 o         1 2QS     -0.452000
      9 NAT         1.0110   -0.3480    5.8230 ns        1 2QS     -0.497900
     10 CAX        -0.0230   -0.2800    4.9180 c         1 2QS      0.667100
     11 OAC        -0.0370    0.3230    3.8360 o         1 2QS     -0.532100
     12 N          -1.3330   -0.9780    5.2620 ny        1 2QS     -0.643800
     13 CA         -2.1080   -0.2710    6.3340 c3        1 2QS      0.001500
     14 C          -1.3660   -0.3820    7.6910 c         1 2QS      0.897600
     15 OXT        -1.4540    0.5830    8.4910 o         1 2QS     -0.811800
     16 O          -0.7340   -1.4520    7.9520 o         1 2QS     -0.811800
     17 CB         -3.5370   -0.8300    6.4410 c3        1 2QS     -0.084400
     18 CAM        -4.0850   -0.8260    7.8570 c3        1 2QS     -0.093400
     19 CAL        -3.7310   -2.0950    8.6130 c3        1 2QS     -0.113400
     20 CAN        -3.5310   -1.8830   10.1080 c3        1 2QS      0.118800
     21 NAR        -2.2280   -1.2400   10.4350 ny        1 2QS     -0.689800
     22 CAY        -1.8500   -1.3080   11.8870 c         1 2QS      0.572700
     23 OAD        -2.5440   -2.0250   12.6030 o         1 2QS     -0.456100
     24 CBA        -0.6870   -0.5160   12.3020 ca        1 2QS     -0.193600
     25 CAJ        -0.3190   -0.6060   13.6570 ca        1 2QS     -0.069000
     26 CAH         1.1370    1.0240   11.9240 ca        1 2QS     -0.106500
     27 CAZ         1.5030    0.9340   13.2700 ca        1 2QS      0.077900
     28 IAG         3.0820    1.9840   13.9610 i         1 2QS     -0.073900
     29 CAI         0.7710    0.1170   14.1330 ca        1 2QS     -0.106500
     30 CAK         0.0490    0.3050   11.4340 ca        1 2QS     -0.069000
     31 H1          2.0250   -4.5460    5.1240 h1        1 2QS      0.094200
     32 H2          2.1560   -3.0590    6.2340 h1        1 2QS      0.094200
     33 H3          2.2980   -3.0680    3.0300 h1        1 2QS      0.119700
     34 H4          3.7220   -1.1740    3.8500 hc        1 2QS      0.099200
     35 H5          2.1250   -0.6100    3.1940 hc        1 2QS      0.099200
     36 H6          2.9770   -0.9090    6.1770 h1        1 2QS      0.117700
     37 H8          1.7540    1.5340    3.8290 ho        1 2QS      0.446000
     38 H9         -1.1190   -1.9360    5.5860 hn        1 2QS      0.471800
     39 H10        -2.1550    0.8240    6.0510 hx        1 2QS      0.126700
     40 H12        -3.5920   -1.8780    6.0400 hc        1 2QS      0.065200
     41 H13        -4.2020   -0.1940    5.7960 hc        1 2QS      0.065200
     42 H14        -3.7270    0.0890    8.4000 hc        1 2QS      0.075200
     43 H15        -5.2050   -0.7410    7.7960 hc        1 2QS      0.075200
     44 H16        -4.5680   -2.8380    8.5020 hc        1 2QS      0.082200
     45 H17        -2.8110   -2.5680    8.1700 hc        1 2QS      0.082200
     46 H18        -3.5640   -2.8820   10.6340 hx        1 2QS      0.105200
     47 H19        -4.3510   -1.2370   10.5320 hx        1 2QS      0.105200
     48 H20        -1.4690   -1.6760    9.8700 hn        1 2QS      0.492800
     49 H21        -0.8990   -1.2510   14.3410 ha        1 2QS      0.173000
     50 H22         1.7040    1.6700   11.2320 ha        1 2QS      0.171500
     51 H23         1.0460    0.0350   15.1990 ha        1 2QS      0.171500
     52 H24        -0.2010    0.4130   10.3610 ha        1 2QS      0.173000
     53 HAT2        0.8450   -0.7930    6.7130 hn        1 2QS      0.375500
     54 H25        -1.8890   -1.0230    4.4000 hn        1 2QS      0.471800
     55 HAR2       -2.2540   -0.2420   10.1440 hn        1 2QS      0.492800
@<TRIPOS>BOND
     1    1    2 1   
     2    1    3 1   
     3    1   31 1   
     4    1   32 1   
     5    2    3 1   
     6    3    4 1   
     7    3   33 1   
     8    4    5 1   
     9    4   34 1   
    10    4   35 1   
    11    5    6 1   
    12    5    9 1   
    13    5   36 1   
    14    6    7 1   
    15    6    8 2   
    16    7   37 1   
    17    9   10 1   
    18    9   53 1   
    19   10   11 2   
    20   10   12 1   
    21   12   13 1   
    22   12   38 1   
    23   12   54 1   
    24   13   14 1   
    25   13   17 1   
    26   13   39 1   
    27   14   15 1   
    28   14   16 1   
    29   17   18 1   
    30   17   40 1   
    31   17   41 1   
    32   18   19 1   
    33   18   42 1   
    34   18   43 1   
    35   19   20 1   
    36   19   44 1   
    37   19   45 1   
    38   20   21 1   
    39   20   46 1   
    40   20   47 1   
    41   21   22 1   
    42   21   48 1   
    43   21   55 1   
    44   22   23 2   
    45   22   24 1   
    46   24   25 ar  
    47   24   30 ar  
    48   25   29 ar  
    49   25   49 1   
    50   26   27 ar  
    51   26   30 ar  
    52   26   50 1   
    53   27   28 1   
    54   27   29 ar  
    55   29   51 1   
    56   30   52 1   
@<TRIPOS>SUBSTRUCTURE
     1 2QS         1 TEMP              0 ****  ****    0 ROOT
