@<TRIPOS>MOLECULE
2QS
   55    56     1     0     0
SMALL
bcc


@<TRIPOS>ATOM
      1 CAP         4.0400   -1.8430    6.2190 cx        1 2QS      0.070400
      2 OAU         2.6470   -2.0120    6.5260 os        1 2QS     -0.428600
      3 CBB         3.0490   -2.1420    5.1490 cx        1 2QS      0.051100
      4 CAQ         2.5670   -1.0890    4.1970 c3        1 2QS     -0.109400
      5 CBD         1.7880    0.0360    4.8870 c3        1 2QS      0.017700
      6 CAW         1.6800    1.2450    3.9500 c         1 2QS      0.604100
      7 OAF         2.0050    2.3830    4.2740 o         1 2QS     -0.446000
      8 OAB         1.2240    1.1130    2.6800 oh        1 2QS     -0.555100
      9 NAT         0.4980   -0.3470    5.4370 n         1 2QS     -0.491900
     10 CAX        -0.4710   -0.9080    4.6640 c         1 2QS      0.646100
     11 OAC        -0.4540   -1.0860    3.4330 o         1 2QS     -0.555100
     12 N          -1.7750   -1.3570    5.3140 n4        1 2QS     -0.641800
     13 CA         -2.2480   -0.4470    6.4030 c3        1 2QS     -0.015500
     14 C          -1.5180   -0.8430    7.7200 c         1 2QS      0.878600
     15 OXT        -1.6470   -2.0250    8.1380 o         1 2QS     -0.796800
     16 O          -0.8520    0.0530    8.3040 o         1 2QS     -0.796800
     17 CB         -3.7640   -0.5240    6.6170 c3        1 2QS     -0.084400
     18 CAM        -4.1520    0.1080    7.9460 c3        1 2QS     -0.084400
     19 CAL        -4.4000   -0.9270    9.0300 c3        1 2QS     -0.113400
     20 CAN        -3.8870   -0.5130   10.4040 c3        1 2QS      0.118800
     21 NAR        -2.4130   -0.6800   10.5500 n4        1 2QS     -0.690800
     22 CAY        -1.9280   -0.6600   11.9720 c         1 2QS      0.572700
     23 OAD        -2.7630   -0.4000   12.8340 o         1 2QS     -0.453100
     24 CBA        -0.5090   -0.9650   12.1820 ca        1 2QS     -0.192600
     25 CAJ         0.4180   -1.0980   11.1370 ca        1 2QS     -0.066000
     26 CAH         1.2440   -1.4080   13.7960 ca        1 2QS     -0.106500
     27 CAZ         2.1660   -1.5470   12.7560 ca        1 2QS      0.077900
     28 IAG         4.0970   -1.9700   13.1640 i         1 2QS     -0.079900
     29 CAI         1.7480   -1.3890   11.4320 ca        1 2QS     -0.106500
     30 CAK        -0.0880   -1.1170   13.5150 ca        1 2QS     -0.066000
     31 H1          4.6990   -2.6400    6.6110 h1        1 2QS      0.094200
     32 H2          4.4210   -0.8150    6.3650 h1        1 2QS      0.094200
     33 H3          2.9710   -3.1770    4.7550 h1        1 2QS      0.109700
     34 H4          3.4570   -0.6260    3.6860 hc        1 2QS      0.089200
     35 H5          1.9350   -1.5690    3.4010 hc        1 2QS      0.089200
     36 H6          2.3950    0.3840    5.7870 h1        1 2QS      0.131700
     37 H8          1.0070    0.1880    2.4810 ho        1 2QS      0.447000
     38 H9         -1.6350   -2.2950    5.7250 hn        1 2QS      0.472800
     39 H10        -1.9740    0.6140    6.1280 hx        1 2QS      0.121700
     40 H12        -4.1110   -1.5910    6.5890 hc        1 2QS      0.067700
     41 H13        -4.2770    0.0230    5.7820 hc        1 2QS      0.067700
     42 H14        -5.0900    0.7070    7.7930 hc        1 2QS      0.068700
     43 H15        -3.3580    0.8350    8.2660 hc        1 2QS      0.068700
     44 H16        -5.5070   -1.0930    9.1370 hc        1 2QS      0.087700
     45 H17        -3.9490   -1.9170    8.7380 hc        1 2QS      0.087700
     46 H18        -4.1360    0.5650   10.6180 hx        1 2QS      0.105200
     47 H19        -4.3840   -1.1490   11.1930 hx        1 2QS      0.105200
     48 H20        -1.9210    0.0720   10.0280 hn        1 2QS      0.492300
     49 H21         0.1370   -0.9700   10.0740 ha        1 2QS      0.173500
     50 H22         1.5590   -1.5260   14.8470 ha        1 2QS      0.169500
     51 H23         2.4670   -1.4930   10.6020 ha        1 2QS      0.169500
     52 H24        -0.8160   -1.0040   14.3370 ha        1 2QS      0.173500
     53 HAT2        0.4170   -0.3130    6.4410 hn        1 2QS      0.391500
     54 H25        -2.4750   -1.4240    4.5640 hn        1 2QS      0.472800
     55 HAR2       -2.1160   -1.5730   10.1040 hn        1 2QS      0.492300
@<TRIPOS>BOND
     1    1    2 1   
     2    1    3 1   
     3    1   31 1   
     4    1   32 1   
     5    2    3 1   
     6    3    4 1   
     7    3   33 1   
     8    4    5 1   
     9    4   34 1   
    10    4   35 1   
    11    5    6 1   
    12    5    9 1   
    13    5   36 1   
    14    6    7 2   
    15    6    8 1   
    16    8   37 1   
    17    9   10 1   
    18    9   53 1   
    19   10   11 2   
    20   10   12 1   
    21   12   13 1   
    22   12   38 1   
    23   12   54 1   
    24   13   14 1   
    25   13   17 1   
    26   13   39 1   
    27   14   15 1   
    28   14   16 1   
    29   17   18 1   
    30   17   40 1   
    31   17   41 1   
    32   18   19 1   
    33   18   42 1   
    34   18   43 1   
    35   19   20 1   
    36   19   44 1   
    37   19   45 1   
    38   20   21 1   
    39   20   46 1   
    40   20   47 1   
    41   21   22 1   
    42   21   48 1   
    43   21   55 1   
    44   22   23 2   
    45   22   24 1   
    46   24   25 ar  
    47   24   30 ar  
    48   25   29 ar  
    49   25   49 1   
    50   26   27 ar  
    51   26   30 ar  
    52   26   50 1   
    53   27   28 1   
    54   27   29 ar  
    55   29   51 1   
    56   30   52 1   
@<TRIPOS>SUBSTRUCTURE
     1 2QS         1 TEMP              0 ****  ****    0 ROOT
