@<TRIPOS>MOLECULE
2QT
   49    52     1     0     0
SMALL
bcc


@<TRIPOS>ATOM
      1 C1         -0.1530    0.9210    0.0300 ca        1 2QT     -0.093000
      2 C2          1.2160    0.8760    0.0110 ca        1 2QT     -0.124300
      3 C3          1.9250    0.0540    0.9480 ca        1 2QT      0.440600
      4 C4          1.1610   -0.7080    1.9030 ca        1 2QT     -0.246600
      5 C5         -0.2520   -0.6330    1.8930 ca        1 2QT     -0.125000
      6 C6         -0.9050    0.1640    0.9720 cp        1 2QT      0.002000
      7 C7         -2.3680    0.2640    0.9520 cp        1 2QT     -0.009000
      8 C8         -3.0500    0.2520   -0.2740 ca        1 2QT     -0.102000
      9 C9         -4.4480    0.3840   -0.2910 ca        1 2QT     -0.003400
     10 C10        -5.1810    0.5120    0.8990 ca        1 2QT     -0.140000
     11 C11        -4.4820    0.5150    2.1210 ca        1 2QT      0.174900
     12 C12        -3.0790    0.3970    2.1470 ca        1 2QT     -0.120000
     13 N14        -5.1600    0.4090   -1.5710 n4        1 2QT     -0.553200
     14 C15        -5.2690   -0.9730   -2.2090 c         1 2QT      0.537100
     15 O16        -4.2140   -1.4810   -2.5500 o         1 2QT     -0.424100
     16 C17        -6.6620   -1.5850   -2.3840 c3        1 2QT      0.127800
     17 N18        -7.7290   -0.7060   -2.0110 n3        1 2QT     -0.800600
     18 C19        -8.5750   -1.1500   -0.8970 c3        1 2QT      0.166300
     19 C20       -10.0460   -0.9070   -1.2630 c3        1 2QT     -0.092900
     20 C21       -10.0510   -0.3310   -2.6720 c3        1 2QT     -0.092900
     21 C22        -8.5820   -0.2220   -3.1030 c3        1 2QT      0.166300
     22 C23         1.9570   -1.5000    2.8080 ca        1 2QT      0.511200
     23 N24         3.2910   -1.5430    2.7820 nb        1 2QT     -0.648000
     24 C25         3.9090   -0.7660    1.8160 ca        1 2QT      0.678900
     25 N26         3.3020    0.0110    0.9200 nb        1 2QT     -0.599000
     26 N27         1.2850   -2.3240    3.8390 n4        1 2QT     -0.832300
     27 F13        -5.1670    0.6360    3.2760 f         1 2QT     -0.089900
     28 H1         -0.6890    1.5670   -0.6870 ha        1 2QT      0.165000
     29 H2          1.7970    1.4710   -0.7190 ha        1 2QT      0.199000
     30 H3         -0.8450   -1.2130    2.6160 ha        1 2QT      0.128000
     31 H4         -2.4830    0.1220   -1.2130 ha        1 2QT      0.175000
     32 H5         -6.2800    0.6160    0.9110 ha        1 2QT      0.186000
     33 H6         -2.5560    0.4320    3.1170 ha        1 2QT      0.173000
     34 H7         -6.1110    0.7880   -1.4260 hn        1 2QT      0.478300
     35 H8         -6.6960   -1.8900   -3.4760 h1        1 2QT      0.119700
     36 H9         -6.6320   -2.5330   -1.7630 h1        1 2QT      0.119700
     37 H11        -8.4120   -2.2330   -0.6430 h1        1 2QT      0.052450
     38 H12        -8.2850   -0.5370    0.0010 h1        1 2QT      0.052450
     39 H13       -10.6200   -1.8660   -1.2190 hc        1 2QT      0.076450
     40 H14       -10.5140   -0.1980   -0.5370 hc        1 2QT      0.076450
     41 H15       -10.5370    0.6760   -2.6940 hc        1 2QT      0.076450
     42 H16       -10.6140   -0.9930   -3.3760 hc        1 2QT      0.076450
     43 H17        -8.4140   -0.7910   -4.0590 h1        1 2QT      0.052450
     44 H18        -8.3040    0.8530   -3.2870 h1        1 2QT      0.052450
     45 H19         5.0250   -0.8150    1.8110 h5        1 2QT      0.116100
     46 H20         0.6550   -2.9880    3.3760 hn        1 2QT      0.479133
     47 H21         0.7480   -1.7080    4.4600 hn        1 2QT      0.479133
     48 H142       -4.6520    1.0300   -2.2140 hn        1 2QT      0.478300
     49 H273        1.9760   -2.8490    4.4000 hn        1 2QT      0.479133
@<TRIPOS>BOND
     1    1    2 ar  
     2    1    6 ar  
     3    1   28 1   
     4    2    3 ar  
     5    2   29 1   
     6    3    4 ar  
     7    3   25 ar  
     8    4    5 ar  
     9    4   22 ar  
    10    5    6 ar  
    11    5   30 1   
    12    6    7 1   
    13    7    8 ar  
    14    7   12 ar  
    15    8    9 ar  
    16    8   31 1   
    17    9   10 ar  
    18    9   13 1   
    19   10   11 ar  
    20   10   32 1   
    21   11   12 ar  
    22   11   27 1   
    23   12   33 1   
    24   13   14 1   
    25   13   34 1   
    26   13   48 1   
    27   14   15 2   
    28   14   16 1   
    29   16   17 1   
    30   16   35 1   
    31   16   36 1   
    32   17   18 1   
    33   17   21 1   
    34   18   19 1   
    35   18   37 1   
    36   18   38 1   
    37   19   20 1   
    38   19   39 1   
    39   19   40 1   
    40   20   21 1   
    41   20   41 1   
    42   20   42 1   
    43   21   43 1   
    44   21   44 1   
    45   22   23 ar  
    46   22   26 1   
    47   23   24 ar  
    48   24   25 ar  
    49   24   45 1   
    50   26   46 1   
    51   26   47 1   
    52   26   49 1   
@<TRIPOS>SUBSTRUCTURE
     1 2QT         1 TEMP              0 ****  ****    0 ROOT
