@<TRIPOS>MOLECULE
2QT
   47    50     1     0     0
SMALL
bcc


@<TRIPOS>ATOM
      1 C1         -0.4250    0.4410   -0.1310 ca        1 2QT     -0.091000
      2 C2          0.8780    0.0250   -0.2340 ca        1 2QT     -0.183300
      3 C3          1.5640   -0.5060    0.9040 ca        1 2QT      0.445600
      4 C4          0.8580   -0.5890    2.1450 ca        1 2QT     -0.299600
      5 C5         -0.4780   -0.1410    2.2190 ca        1 2QT     -0.074000
      6 C6         -1.1210    0.3630    1.1030 cp        1 2QT     -0.059000
      7 C7         -2.5100    0.8200    1.1830 cp        1 2QT      0.014000
      8 C8         -3.4100    0.4890    0.1680 ca        1 2QT     -0.193000
      9 C9         -4.7600    0.9160    0.2270 ca        1 2QT      0.098600
     10 C10        -5.1870    1.6830    1.3280 ca        1 2QT     -0.196000
     11 C11        -4.2670    2.0060    2.3400 ca        1 2QT      0.152900
     12 C12        -2.9310    1.5810    2.2780 ca        1 2QT     -0.192000
     13 N14        -5.6100    0.5680   -0.8340 n         1 2QT     -0.459100
     14 C15        -6.9850    0.7240   -0.8910 c         1 2QT      0.664100
     15 O16        -7.6610    1.2620    0.0030 o         1 2QT     -0.589100
     16 C17        -7.6820    0.2510   -2.1790 c3        1 2QT      0.086800
     17 N18        -7.3070   -1.0920   -2.5760 n3        1 2QT     -0.730600
     18 C19        -7.7420   -1.4380   -3.9340 c3        1 2QT      0.152300
     19 C20        -8.6620   -2.6690   -3.8840 c3        1 2QT     -0.096900
     20 C21        -8.7100   -3.1020   -2.4250 c3        1 2QT     -0.096900
     21 C22        -7.7860   -2.1380   -1.6650 c3        1 2QT      0.152300
     22 C23         1.6000   -1.1430    3.2810 ca        1 2QT      0.707200
     23 N24         2.8860   -1.5550    3.1370 nb        1 2QT     -0.790000
     24 C25         3.4410   -1.4050    1.8910 ca        1 2QT      0.679900
     25 N26         2.8780   -0.9200    0.7840 nb        1 2QT     -0.726000
     26 N27         1.0150   -1.2020    4.5310 nh        1 2QT     -0.950500
     27 F13        -4.6830    2.7450    3.3970 f         1 2QT     -0.137900
     28 H1         -0.9460    0.8540   -1.0090 ha        1 2QT      0.141000
     29 H2          1.4170    0.0950   -1.1930 ha        1 2QT      0.156000
     30 H3         -1.0340   -0.1840    3.1680 ha        1 2QT      0.133000
     31 H4         -3.0550   -0.1190   -0.6790 ha        1 2QT      0.140000
     32 H5         -6.2280    2.0350    1.4180 ha        1 2QT      0.190000
     33 H6         -2.2290    1.8590    3.0760 ha        1 2QT      0.152000
     34 H7         -5.1820    0.0510   -1.5730 hn        1 2QT      0.334500
     35 H8         -7.3860    0.9660   -2.9990 h1        1 2QT      0.068700
     36 H9         -8.7910    0.3690   -1.9960 h1        1 2QT      0.068700
     37 H11        -8.2620   -0.5840   -4.4460 h1        1 2QT      0.052200
     38 H12        -6.8110   -1.6740   -4.5190 h1        1 2QT      0.052200
     39 H13        -9.6820   -2.4110   -4.2600 hc        1 2QT      0.051450
     40 H14        -8.2550   -3.4820   -4.5330 hc        1 2QT      0.051450
     41 H15        -8.3580   -4.1550   -2.3030 hc        1 2QT      0.051450
     42 H16        -9.7510   -3.0430   -2.0240 hc        1 2QT      0.051450
     43 H17        -6.8750   -2.6870   -1.2980 h1        1 2QT      0.052200
     44 H18        -8.3120   -1.7060   -0.7710 h1        1 2QT      0.052200
     45 H19         4.4970   -1.7430    1.8130 h5        1 2QT      0.052100
     46 H20         1.4940   -1.6780    5.2590 hn        1 2QT      0.431300
     47 H21         0.0260   -1.1830    4.5800 hn        1 2QT      0.431300
@<TRIPOS>BOND
     1    1    2 ar  
     2    1    6 ar  
     3    1   28 1   
     4    2    3 ar  
     5    2   29 1   
     6    3    4 ar  
     7    3   25 ar  
     8    4    5 ar  
     9    4   22 ar  
    10    5    6 ar  
    11    5   30 1   
    12    6    7 1   
    13    7    8 ar  
    14    7   12 ar  
    15    8    9 ar  
    16    8   31 1   
    17    9   10 ar  
    18    9   13 1   
    19   10   11 ar  
    20   10   32 1   
    21   11   12 ar  
    22   11   27 1   
    23   12   33 1   
    24   13   14 1   
    25   13   34 1   
    26   14   15 2   
    27   14   16 1   
    28   16   17 1   
    29   16   35 1   
    30   16   36 1   
    31   17   18 1   
    32   17   21 1   
    33   18   19 1   
    34   18   37 1   
    35   18   38 1   
    36   19   20 1   
    37   19   39 1   
    38   19   40 1   
    39   20   21 1   
    40   20   41 1   
    41   20   42 1   
    42   21   43 1   
    43   21   44 1   
    44   22   23 ar  
    45   22   26 1   
    46   23   24 ar  
    47   24   25 ar  
    48   24   45 1   
    49   26   46 1   
    50   26   47 1   
@<TRIPOS>SUBSTRUCTURE
     1 2QT         1 TEMP              0 ****  ****    0 ROOT
