@<TRIPOS>MOLECULE
2QT
   47    50     1     0     0
SMALL
bcc


@<TRIPOS>ATOM
      1 C1         -0.4370    0.4820   -0.1290 ca        1 2QT     -0.091000
      2 C2          0.8690    0.0830   -0.2490 ca        1 2QT     -0.183300
      3 C3          1.5680   -0.4660    0.8720 ca        1 2QT      0.445600
      4 C4          0.8710   -0.5850    2.1150 ca        1 2QT     -0.299600
      5 C5         -0.4700   -0.1550    2.2070 ca        1 2QT     -0.074000
      6 C6         -1.1260    0.3680    1.1060 cp        1 2QT     -0.059000
      7 C7         -2.5190    0.8070    1.2050 cp        1 2QT      0.014000
      8 C8         -3.4210    0.4890    0.1880 ca        1 2QT     -0.193000
      9 C9         -4.7750    0.8990    0.2660 ca        1 2QT      0.098600
     10 C10        -5.2040    1.6360    1.3860 ca        1 2QT     -0.196000
     11 C11        -4.2820    1.9460    2.3990 ca        1 2QT      0.152900
     12 C12        -2.9410    1.5390    2.3200 ca        1 2QT     -0.192000
     13 N14        -5.6280    0.5660   -0.7970 ns        1 2QT     -0.459100
     14 C15        -7.0060    0.7040   -0.8410 c         1 2QT      0.664100
     15 O16        -7.6830    1.2090    0.0720 o         1 2QT     -0.589100
     16 C17        -7.7070    0.2530   -2.1350 c3        1 2QT      0.086800
     17 N18        -7.3140   -1.0740   -2.5700 n3        1 2QT     -0.730600
     18 C19        -7.7560   -1.3910   -3.9330 c3        1 2QT      0.152300
     19 C20        -8.6540   -2.6380   -3.9070 c3        1 2QT     -0.096900
     20 C21        -8.6840   -3.1090   -2.4600 c3        1 2QT     -0.096900
     21 C22        -7.7690   -2.1500   -1.6820 c3        1 2QT      0.152300
     22 C23         1.6250   -1.1570    3.2340 ca        1 2QT      0.707200
     23 N24         2.9150   -1.5510    3.0730 nb        1 2QT     -0.790000
     24 C25         3.4610   -1.3660    1.8280 ca        1 2QT      0.679900
     25 N26         2.8860   -0.8630    0.7360 nb        1 2QT     -0.726000
     26 N27         1.0480   -1.2510    4.4860 nv        1 2QT     -0.950500
     27 F13        -4.6990    2.6570    3.4760 f         1 2QT     -0.137900
     28 H1         -0.9690    0.9090   -0.9950 ha        1 2QT      0.141000
     29 H2          1.4010    0.1810   -1.2090 ha        1 2QT      0.156000
     30 H3         -1.0200   -0.2250    3.1580 ha        1 2QT      0.133000
     31 H4         -3.0650   -0.0950   -0.6750 ha        1 2QT      0.140000
     32 H5         -6.2480    1.9740    1.4910 ha        1 2QT      0.190000
     33 H6         -2.2370    1.8060    3.1200 ha        1 2QT      0.152000
     34 H7         -5.1990    0.0730   -1.5520 hn        1 2QT      0.334500
     35 H8         -7.4280    0.9930   -2.9390 h1        1 2QT      0.068700
     36 H9         -8.8150    0.3490   -1.9400 h1        1 2QT      0.068700
     37 H11        -8.2950   -0.5330   -4.4170 h1        1 2QT      0.052200
     38 H12        -6.8260   -1.5950   -4.5320 h1        1 2QT      0.052200
     39 H13        -9.6810   -2.3880   -4.2690 hc        1 2QT      0.051450
     40 H14        -8.2390   -3.4280   -4.5800 hc        1 2QT      0.051450
     41 H15        -8.3140   -4.1590   -2.3680 hc        1 2QT      0.051450
     42 H16        -9.7230   -3.0780   -2.0490 hc        1 2QT      0.051450
     43 H17        -6.8470   -2.6930   -1.3360 h1        1 2QT      0.052200
     44 H18        -8.2960   -1.7490   -0.7740 h1        1 2QT      0.052200
     45 H19         4.5200   -1.6900    1.7360 h5        1 2QT      0.052100
     46 H20         0.0600   -1.2440    4.5400 hn        1 2QT      0.431300
     47 H21         1.5370   -1.7380    5.2000 hn        1 2QT      0.431300
@<TRIPOS>BOND
     1    1    2 ar  
     2    1    6 ar  
     3    1   28 1   
     4    2    3 ar  
     5    2   29 1   
     6    3    4 ar  
     7    3   25 ar  
     8    4    5 ar  
     9    4   22 ar  
    10    5    6 ar  
    11    5   30 1   
    12    6    7 1   
    13    7    8 ar  
    14    7   12 ar  
    15    8    9 ar  
    16    8   31 1   
    17    9   10 ar  
    18    9   13 1   
    19   10   11 ar  
    20   10   32 1   
    21   11   12 ar  
    22   11   27 1   
    23   12   33 1   
    24   13   14 1   
    25   13   34 1   
    26   14   15 2   
    27   14   16 1   
    28   16   17 1   
    29   16   35 1   
    30   16   36 1   
    31   17   18 1   
    32   17   21 1   
    33   18   19 1   
    34   18   37 1   
    35   18   38 1   
    36   19   20 1   
    37   19   39 1   
    38   19   40 1   
    39   20   21 1   
    40   20   41 1   
    41   20   42 1   
    42   21   43 1   
    43   21   44 1   
    44   22   23 ar  
    45   22   26 1   
    46   23   24 ar  
    47   24   25 ar  
    48   24   45 1   
    49   26   46 1   
    50   26   47 1   
@<TRIPOS>SUBSTRUCTURE
     1 2QT         1 TEMP              0 ****  ****    0 ROOT
