@<TRIPOS>MOLECULE
2QU
   27    29     1     0     0
SMALL
bcc


@<TRIPOS>ATOM
      1 C1          0.0260   -0.4430    0.0180 ca        1 2QU     -0.108300
      2 C2          1.3920   -0.3760    0.0410 ca        1 2QU     -0.200300
      3 C3          2.0880   -0.1090    1.2780 cp        1 2QU      0.545800
      4 N4          1.4500    0.0830    2.4340 nb        1 2QU     -0.705000
      5 C5          0.0800    0.0260    2.4220 ca        1 2QU      0.191000
      6 C6         -0.7070   -0.2360    1.2390 ca        1 2QU      0.330300
      7 N7         -2.0780   -0.2850    1.2800 nb        1 2QU     -0.596000
      8 C8         -2.6590   -0.0750    2.4650 ca        1 2QU      0.660900
      9 N9         -2.0280    0.1900    3.6650 nb        1 2QU     -0.652000
     10 C10        -0.6940    0.2370    3.6300 ca        1 2QU      0.448900
     11 N11         0.0390    0.5220    4.8830 n4        1 2QU     -0.819300
     12 C12         3.5620   -0.0520    1.2400 cp        1 2QU     -0.127500
     13 C13         4.2080    0.6350    0.2060 ca        1 2QU     -0.241300
     14 C14         5.6170    0.6620    0.2020 ca        1 2QU      0.438200
     15 N15         6.3870    0.0660    1.1250 nb        1 2QU     -0.648000
     16 C16         5.7390   -0.6020    2.1250 ca        1 2QU      0.626500
     17 C17         4.3250   -0.6850    2.2260 ca        1 2QU     -0.245300
     18 F18         6.4970   -1.2100    3.0680 f         1 2QU     -0.201200
     19 H1         -0.5300   -0.6520   -0.9130 ha        1 2QU      0.195000
     20 H2          1.9880   -0.5330   -0.8740 ha        1 2QU      0.186000
     21 H3         -3.7730   -0.1130    2.5160 h5        1 2QU      0.105100
     22 H4          0.6620   -0.2700    5.0850 hn        1 2QU      0.480467
     23 H5          0.6070    1.3680    4.7440 hn        1 2QU      0.480467
     24 H6          3.6460    1.1540   -0.5820 ha        1 2QU      0.159000
     25 H7          6.1690    1.1960   -0.5960 h4        1 2QU      0.053100
     26 H8          3.8700   -1.2440    3.0530 ha        1 2QU      0.163000
     27 H113       -0.6070    0.6640    5.6720 hn        1 2QU      0.480467
@<TRIPOS>BOND
     1    1    2 ar  
     2    1    6 ar  
     3    1   19 1   
     4    2    3 ar  
     5    2   20 1   
     6    3    4 ar  
     7    3   12 1   
     8    4    5 ar  
     9    5    6 ar  
    10    5   10 ar  
    11    6    7 ar  
    12    7    8 ar  
    13    8    9 ar  
    14    8   21 1   
    15    9   10 ar  
    16   10   11 1   
    17   11   22 1   
    18   11   23 1   
    19   11   27 1   
    20   12   13 ar  
    21   12   17 ar  
    22   13   14 ar  
    23   13   24 1   
    24   14   15 ar  
    25   14   25 1   
    26   15   16 ar  
    27   16   17 ar  
    28   16   18 1   
    29   17   26 1   
@<TRIPOS>SUBSTRUCTURE
     1 2QU         1 TEMP              0 ****  ****    0 ROOT
