@<TRIPOS>MOLECULE
2QU
   26    28     1     0     0
SMALL
bcc


@<TRIPOS>ATOM
      1 C1          0.0380   -0.4620    0.0360 ca        1 2QU     -0.150300
      2 C2          1.4070   -0.3840    0.0430 ca        1 2QU     -0.205300
      3 C3          2.0960   -0.0900    1.2660 cp        1 2QU      0.437800
      4 N4          1.4600    0.1140    2.4220 nb        1 2QU     -0.633000
      5 C5          0.0950    0.0450    2.4290 ca        1 2QU      0.123000
      6 C6         -0.6850   -0.2430    1.2550 ca        1 2QU      0.352300
      7 N7         -2.0600   -0.3090    1.2860 nb        1 2QU     -0.732000
      8 C8         -2.6270   -0.0860    2.4760 ca        1 2QU      0.692900
      9 N9         -2.0270    0.2010    3.6710 nb        1 2QU     -0.800000
     10 C10        -0.6680    0.2720    3.6790 ca        1 2QU      0.677900
     11 N11        -0.0110    0.5470    4.8450 nv        1 2QU     -0.949500
     12 C12         3.5690   -0.0170    1.2290 cp        1 2QU     -0.079500
     13 C13         4.2140    0.6360    0.1700 ca        1 2QU     -0.253300
     14 C14         5.6190    0.6750    0.1620 ca        1 2QU      0.420200
     15 N15         6.3990    0.1240    1.1070 nb        1 2QU     -0.680000
     16 C16         5.7540   -0.5050    2.1320 ca        1 2QU      0.607500
     17 C17         4.3420   -0.6000    2.2370 ca        1 2QU     -0.242300
     18 F18         6.5230   -1.0660    3.0990 f         1 2QU     -0.220200
     19 H1         -0.5200   -0.6910   -0.8850 ha        1 2QU      0.164000
     20 H2          1.9920   -0.5520   -0.8730 ha        1 2QU      0.152000
     21 H3         -3.7370   -0.1350    2.5170 h5        1 2QU      0.055100
     22 H4          0.9760    0.6260    4.8520 hn        1 2QU      0.453800
     23 H5         -0.5170    0.7140    5.6800 hn        1 2QU      0.453800
     24 H6          3.6410    1.1170   -0.6340 ha        1 2QU      0.153000
     25 H7          6.1640    1.1820   -0.6560 h4        1 2QU      0.033100
     26 H8          3.8880   -1.1170    3.0930 ha        1 2QU      0.170000
@<TRIPOS>BOND
     1    1    2 ar  
     2    1    6 ar  
     3    1   19 1   
     4    2    3 ar  
     5    2   20 1   
     6    3    4 ar  
     7    3   12 1   
     8    4    5 ar  
     9    5    6 ar  
    10    5   10 ar  
    11    6    7 ar  
    12    7    8 ar  
    13    8    9 ar  
    14    8   21 1   
    15    9   10 ar  
    16   10   11 1   
    17   11   22 1   
    18   11   23 1   
    19   12   13 ar  
    20   12   17 ar  
    21   13   14 ar  
    22   13   24 1   
    23   14   15 ar  
    24   14   25 1   
    25   15   16 ar  
    26   16   17 ar  
    27   16   18 1   
    28   17   26 1   
@<TRIPOS>SUBSTRUCTURE
     1 2QU         1 TEMP              0 ****  ****    0 ROOT
