@<TRIPOS>MOLECULE
2QU
   26    28     1     0     0
SMALL
bcc


@<TRIPOS>ATOM
      1 C1          0.0370   -0.4820    0.0430 ca        1 2QU     -0.150300
      2 C2          1.4050   -0.3990    0.0460 ca        1 2QU     -0.205300
      3 C3          2.0960   -0.0930    1.2660 cp        1 2QU      0.437800
      4 N4          1.4610    0.1180    2.4210 nb        1 2QU     -0.633000
      5 C5          0.0960    0.0440    2.4310 ca        1 2QU      0.123000
      6 C6         -0.6850   -0.2560    1.2610 ca        1 2QU      0.352300
      7 N7         -2.0600   -0.3270    1.2940 nb        1 2QU     -0.732000
      8 C8         -2.6260   -0.0970    2.4830 ca        1 2QU      0.692900
      9 N9         -2.0250    0.2000    3.6760 nb        1 2QU     -0.800000
     10 C10        -0.6660    0.2770    3.6800 ca        1 2QU      0.677900
     11 N11        -0.0080    0.5630    4.8440 nh        1 2QU     -0.949500
     12 C12         3.5680   -0.0140    1.2260 cp        1 2QU     -0.079500
     13 C13         4.2090    0.6330    0.1610 ca        1 2QU     -0.253300
     14 C14         5.6140    0.6770    0.1500 ca        1 2QU      0.420200
     15 N15         6.3970    0.1370    1.0990 nb        1 2QU     -0.680000
     16 C16         5.7560   -0.4870    2.1300 ca        1 2QU      0.607500
     17 C17         4.3450   -0.5860    2.2370 ca        1 2QU     -0.242300
     18 F18         6.5290   -1.0380    3.0990 f         1 2QU     -0.220200
     19 H1         -0.5220   -0.7200   -0.8760 ha        1 2QU      0.164000
     20 H2          1.9900   -0.5710   -0.8690 ha        1 2QU      0.152000
     21 H3         -3.7360   -0.1510    2.5270 h5        1 2QU      0.055100
     22 H4         -0.5140    0.7340    5.6780 hn        1 2QU      0.453800
     23 H5          0.9780    0.6460    4.8480 hn        1 2QU      0.453800
     24 H6          3.6330    1.1060   -0.6460 ha        1 2QU      0.153000
     25 H7          6.1560    1.1810   -0.6720 h4        1 2QU      0.033100
     26 H8          3.8940   -1.0990    3.0980 ha        1 2QU      0.170000
@<TRIPOS>BOND
     1    1    2 ar  
     2    1    6 ar  
     3    1   19 1   
     4    2    3 ar  
     5    2   20 1   
     6    3    4 ar  
     7    3   12 1   
     8    4    5 ar  
     9    5    6 ar  
    10    5   10 ar  
    11    6    7 ar  
    12    7    8 ar  
    13    8    9 ar  
    14    8   21 1   
    15    9   10 ar  
    16   10   11 1   
    17   11   22 1   
    18   11   23 1   
    19   12   13 ar  
    20   12   17 ar  
    21   13   14 ar  
    22   13   24 1   
    23   14   15 ar  
    24   14   25 1   
    25   15   16 ar  
    26   16   17 ar  
    27   16   18 1   
    28   17   26 1   
@<TRIPOS>SUBSTRUCTURE
     1 2QU         1 TEMP              0 ****  ****    0 ROOT
