@<TRIPOS>MOLECULE
2QV
   28    30     1     0     0
SMALL
bcc


@<TRIPOS>ATOM
      1 CL7         0.3330    1.2340   -0.1460 cl        1 2QV     -0.093400
      2 C1          3.8700   -0.5700    0.0210 ca        1 2QV     -0.120000
      3 C2          4.1660   -0.5220    1.3810 ca        1 2QV     -0.118000
      4 C3          3.2680    0.0710    2.2800 cp        1 2QV     -0.027000
      5 C4          2.0720    0.6190    1.7980 ca        1 2QV     -0.119000
      6 C5          1.7870    0.5660    0.4320 ca        1 2QV      0.018400
      7 C6          2.6810   -0.0280   -0.4640 ca        1 2QV     -0.121000
      8 C8          3.5750    0.1180    3.7090 cp        1 2QV     -0.058000
      9 C9          4.8890    0.4400    4.1350 ca        1 2QV     -0.092000
     10 C10         5.2090    0.4870    5.4680 ca        1 2QV     -0.182300
     11 C11         4.2200    0.2090    6.4630 ca        1 2QV      0.445600
     12 C12         2.8940   -0.1120    6.0330 ca        1 2QV     -0.299600
     13 C13         2.5990   -0.1520    4.6530 ca        1 2QV     -0.077000
     14 C14         1.9150   -0.3900    7.0880 ca        1 2QV      0.708200
     15 N15         2.2690   -0.3270    8.3980 nb        1 2QV     -0.790000
     16 C16         3.5780   -0.0150    8.6640 ca        1 2QV      0.679900
     17 N17         4.5600    0.2540    7.8030 nb        1 2QV     -0.726000
     18 N18         0.6290   -0.7720    6.7620 nh        1 2QV     -0.952500
     19 H2          5.1050   -0.9590    1.7560 ha        1 2QV      0.141000
     20 H3          1.3670    1.0980    2.4940 ha        1 2QV      0.147000
     21 H4          2.4500   -0.0670   -1.5390 ha        1 2QV      0.149000
     22 H5          5.6550    0.6600    3.3730 ha        1 2QV      0.141000
     23 H6          6.2310    0.7400    5.7920 ha        1 2QV      0.157000
     24 H7          1.5900   -0.4130    4.3020 ha        1 2QV      0.131000
     25 H8          3.8340    0.0180    9.7450 h5        1 2QV      0.052100
     26 H9         -0.0450   -0.8520    7.4860 hn        1 2QV      0.432800
     27 H10         0.2970   -0.5590    5.8540 hn        1 2QV      0.432800
     28 H1          4.5790   -1.0400   -0.6780 ha        1 2QV      0.140000
@<TRIPOS>BOND
     1    1    6 1   
     2    2    3 ar  
     3    2    7 ar  
     4    2   28 1   
     5    3    4 ar  
     6    3   19 1   
     7    4    5 ar  
     8    4    8 1   
     9    5    6 ar  
    10    5   20 1   
    11    6    7 ar  
    12    7   21 1   
    13    8    9 ar  
    14    8   13 ar  
    15    9   10 ar  
    16    9   22 1   
    17   10   11 ar  
    18   10   23 1   
    19   11   12 ar  
    20   11   17 ar  
    21   12   13 ar  
    22   12   14 ar  
    23   13   24 1   
    24   14   15 ar  
    25   14   18 1   
    26   15   16 ar  
    27   16   17 ar  
    28   16   25 1   
    29   18   26 1   
    30   18   27 1   
@<TRIPOS>SUBSTRUCTURE
     1 2QV         1 TEMP              0 ****  ****    0 ROOT
