@<TRIPOS>MOLECULE
2QV
   28    30     1     0     0
SMALL
bcc


@<TRIPOS>ATOM
      1 Cl7         0.3230   -1.1950   -0.1530 cl        1 2QV     -0.093400
      2 C1          3.8690    0.5880    0.0250 ca        1 2QV     -0.120000
      3 C2          4.1670    0.5280    1.3850 ca        1 2QV     -0.118000
      4 C3          3.2660   -0.0680    2.2800 cp        1 2QV     -0.027000
      5 C4          2.0670   -0.6050    1.7940 ca        1 2QV     -0.119000
      6 C5          1.7800   -0.5400    0.4290 ca        1 2QV      0.018400
      7 C6          2.6770    0.0560   -0.4630 ca        1 2QV     -0.121000
      8 C8          3.5740   -0.1270    3.7080 cp        1 2QV     -0.058000
      9 C9          4.8870   -0.4590    4.1300 ca        1 2QV     -0.092000
     10 C10         5.2080   -0.5190    5.4620 ca        1 2QV     -0.182300
     11 C11         4.2210   -0.2430    6.4610 ca        1 2QV      0.445600
     12 C12         2.8960    0.0870    6.0340 ca        1 2QV     -0.299600
     13 C13         2.6010    0.1400    4.6550 ca        1 2QV     -0.077000
     14 C14         1.9200    0.3620    7.0920 ca        1 2QV      0.708200
     15 N15         2.2740    0.2860    8.4020 nb        1 2QV     -0.790000
     16 C16         3.5820   -0.0340    8.6640 ca        1 2QV      0.679900
     17 N17         4.5620   -0.3010    7.8000 nb        1 2QV     -0.726000
     18 N18         0.6360    0.7530    6.7700 nv        1 2QV     -0.952500
     19 H2          5.1080    0.9570    1.7620 ha        1 2QV      0.141000
     20 H3          1.3590   -1.0860    2.4880 ha        1 2QV      0.147000
     21 H4          2.4460    0.1040   -1.5380 ha        1 2QV      0.149000
     22 H5          5.6510   -0.6770    3.3660 ha        1 2QV      0.141000
     23 H6          6.2290   -0.7790    5.7840 ha        1 2QV      0.157000
     24 H7          1.5920    0.4100    4.3060 ha        1 2QV      0.131000
     25 H8          3.8380   -0.0770    9.7450 h5        1 2QV      0.052100
     26 H9         -0.0370    0.8310    7.4960 hn        1 2QV      0.432800
     27 H10         0.3020    0.5500    5.8610 hn        1 2QV      0.432800
     28 H1          4.5800    1.0600   -0.6700 ha        1 2QV      0.140000
@<TRIPOS>BOND
     1    1    6 1   
     2    2    3 ar  
     3    2    7 ar  
     4    2   28 1   
     5    3    4 ar  
     6    3   19 1   
     7    4    5 ar  
     8    4    8 1   
     9    5    6 ar  
    10    5   20 1   
    11    6    7 ar  
    12    7   21 1   
    13    8    9 ar  
    14    8   13 ar  
    15    9   10 ar  
    16    9   22 1   
    17   10   11 ar  
    18   10   23 1   
    19   11   12 ar  
    20   11   17 ar  
    21   12   13 ar  
    22   12   14 ar  
    23   13   24 1   
    24   14   15 ar  
    25   14   18 1   
    26   15   16 ar  
    27   16   17 ar  
    28   16   25 1   
    29   18   26 1   
    30   18   27 1   
@<TRIPOS>SUBSTRUCTURE
     1 2QV         1 TEMP              0 ****  ****    0 ROOT
