@<TRIPOS>MOLECULE
2QV
   29    31     1     0     0
SMALL
bcc


@<TRIPOS>ATOM
      1 CL7         0.3720   -1.2990   -0.1440 cl        1 2QV     -0.061400
      2 C1          3.8330    0.6450    0.0380 ca        1 2QV     -0.111000
      3 C2          4.1380    0.5860    1.3960 ca        1 2QV     -0.100000
      4 C3          3.2640   -0.0560    2.2860 cp        1 2QV     -0.084000
      5 C4          2.0880   -0.6440    1.8000 ca        1 2QV     -0.111000
      6 C5          1.7950   -0.5830    0.4350 ca        1 2QV      0.015400
      7 C6          2.6640    0.0620   -0.4520 ca        1 2QV     -0.090000
      8 C8          3.5750   -0.1140    3.7120 cp        1 2QV      0.059000
      9 C9          4.9130   -0.3720    4.1310 ca        1 2QV     -0.088000
     10 C10         5.2460   -0.4380    5.4580 ca        1 2QV     -0.140300
     11 C11         4.2470   -0.2400    6.4670 ca        1 2QV      0.426600
     12 C12         2.8960    0.0250    6.0390 ca        1 2QV     -0.230600
     13 C13         2.5880    0.0780    4.6620 ca        1 2QV     -0.166000
     14 C14         1.9550    0.2200    7.1090 ca        1 2QV      0.494200
     15 N15         2.2750    0.1610    8.4070 nb        1 2QV     -0.663000
     16 C16         3.6010   -0.1050    8.6860 ca        1 2QV      0.653900
     17 N17         4.5800   -0.3020    7.8000 nb        1 2QV     -0.603000
     18 N18         0.5410    0.5060    6.7740 n4        1 2QV     -0.828300
     19 H3          1.4100   -1.1720    2.4860 ha        1 2QV      0.138000
     20 H4          2.4300    0.1070   -1.5280 ha        1 2QV      0.167000
     21 H5          5.6850   -0.5310    3.3570 ha        1 2QV      0.175000
     22 H6          6.2850   -0.6450    5.7730 ha        1 2QV      0.187000
     23 H7          1.5610    0.2800    4.3220 ha        1 2QV      0.129000
     24 H8          3.8550   -0.1530    9.7710 h5        1 2QV      0.100100
     25 H9          0.5070    1.3580    6.2010 hn        1 2QV      0.475133
     26 H10         0.1650   -0.2830    6.2370 hn        1 2QV      0.475133
     27 H1          4.5210    1.1530   -0.6570 ha        1 2QV      0.159000
     28 H183       -0.0230    0.6420    7.6250 hn        1 2QV      0.475133
     29 H2          5.0620    1.0540    1.7700 ha        1 2QV      0.145000
@<TRIPOS>BOND
     1    1    6 1   
     2    2    3 ar  
     3    2    7 ar  
     4    2   27 1   
     5    3    4 ar  
     6    3   29 1   
     7    4    5 ar  
     8    4    8 1   
     9    5    6 ar  
    10    5   19 1   
    11    6    7 ar  
    12    7   20 1   
    13    8    9 ar  
    14    8   13 ar  
    15    9   10 ar  
    16    9   21 1   
    17   10   11 ar  
    18   10   22 1   
    19   11   12 ar  
    20   11   17 ar  
    21   12   13 ar  
    22   12   14 ar  
    23   13   23 1   
    24   14   15 ar  
    25   14   18 1   
    26   15   16 ar  
    27   16   17 ar  
    28   16   24 1   
    29   18   25 1   
    30   18   26 1   
    31   18   28 1   
@<TRIPOS>SUBSTRUCTURE
     1 2QV         1 TEMP              0 ****  ****    0 ROOT
